MODEL 1
REMARK VINA RESULT:      -7.9      0.000      0.000
REMARK  6 active torsions:
REMARK  status: ('A' for Active; 'I' for Inactive)
REMARK    1  A    between atoms: C2_2  and  C3_3 
REMARK    2  A    between atoms: C3_3  and  C4_4 
REMARK    3  A    between atoms: C4_4  and  N1_5 
REMARK    4  A    between atoms: C5_6  and  C6_7 
REMARK    5  A    between atoms: C6_7  and  N2_8 
REMARK       I    between atoms: N2_8  and  C7_9 
REMARK    6  A    between atoms: C7_9  and  C8_11 
ROOT
HETATM    1  C8  UNL     1      23.712   2.031  51.753  1.00  0.00     0.066 C 
HETATM    2  C9  UNL     1      23.162   2.375  50.603  1.00  0.00     0.015 C 
HETATM    3  C10 UNL     1      24.167   2.927  49.624  1.00  0.00     0.068 C 
HETATM    4  N3  UNL     1      21.847   2.348  50.065  1.00  0.00    -0.392 N 
HETATM    5  C11 UNL     1      20.857   1.569  50.826  1.00  0.00     0.126 C 
HETATM    6  C12 UNL     1      21.357   0.280  51.335  1.00  0.00     0.034 A 
HETATM    7  C13 UNL     1      20.784  -0.142  52.620  1.00  0.00     0.011 A 
HETATM    8  C14 UNL     1      20.465  -0.605  53.845  1.00  0.00    -0.015 C 
HETATM    9  C15 UNL     1      21.770  -1.117  54.222  1.00  0.00    -0.006 C 
HETATM   10  C16 UNL     1      22.733  -0.853  53.359  1.00  0.00    -0.013 C 
HETATM   11  C17 UNL     1      22.306  -0.003  52.255  1.00  0.00     0.032 A 
HETATM   12  C18 UNL     1      22.787   1.497  52.765  1.00  0.00     0.224 C 
HETATM   13  F1  UNL     1      21.740   2.230  53.086  1.00  0.00    -0.243 F 
HETATM   14  H17 UNL     1      21.714   2.885  49.175  1.00  0.00     0.159 HD
ENDROOT
BRANCH   1  15
HETATM   15  C7  UNL     1      25.098   2.129  52.133  1.00  0.00     0.252 C 
HETATM   16  N2  UNL     1      26.237   2.807  52.612  1.00  0.00    -0.355 N 
HETATM   17  H13 UNL     1      25.893   3.756  52.789  1.00  0.00     0.162 HD
HETATM   18  O1  UNL     1      25.656   0.996  51.959  1.00  0.00    -0.268 OA
BRANCH  16  19
HETATM   19  C6  UNL     1      27.379   1.918  52.656  1.00  0.00     0.162 C 
BRANCH  19  20
HETATM   20  C5  UNL     1      28.418   2.364  53.592  1.00  0.00     0.677 C 
HETATM   21  N1  UNL     1      29.024   1.578  54.431  1.00  0.00     0.021 NA
BRANCH  21  22
HETATM   22  C4  UNL     1      28.644   0.173  54.435  1.00  0.00     0.250 C 
BRANCH  22  23
HETATM   23  C3  UNL     1      29.775  -0.578  53.731  1.00  0.00     0.028 C 
BRANCH  23  24
HETATM   24  C2  UNL     1      29.220  -1.900  53.262  1.00  0.00    -0.003 C 
HETATM   25  C1  UNL     1      27.740  -1.710  52.954  1.00  0.00     0.005 C 
ENDBRANCH  23  24
ENDBRANCH  22  23
ENDBRANCH  21  22
ENDBRANCH  19  20
ENDBRANCH  16  19
ENDBRANCH   1  15
TORSDOF 6
ENDMDL
MODEL 2
REMARK VINA RESULT:      -7.6      2.471      4.872
REMARK  6 active torsions:
REMARK  status: ('A' for Active; 'I' for Inactive)
REMARK    1  A    between atoms: C2_2  and  C3_3 
REMARK    2  A    between atoms: C3_3  and  C4_4 
REMARK    3  A    between atoms: C4_4  and  N1_5 
REMARK    4  A    between atoms: C5_6  and  C6_7 
REMARK    5  A    between atoms: C6_7  and  N2_8 
REMARK       I    between atoms: N2_8  and  C7_9 
REMARK    6  A    between atoms: C7_9  and  C8_11 
ROOT
HETATM    1  C8  UNL     1      24.196  -0.034  53.450  1.00  0.00     0.066 C 
HETATM    2  C9  UNL     1      24.533  -0.630  54.579  1.00  0.00     0.015 C 
HETATM    3  C10 UNL     1      25.922  -0.262  55.034  1.00  0.00     0.068 C 
HETATM    4  N3  UNL     1      23.898  -1.537  55.469  1.00  0.00    -0.392 N 
HETATM    5  C11 UNL     1      22.452  -1.730  55.268  1.00  0.00     0.126 C 
HETATM    6  C12 UNL     1      21.706  -0.491  54.991  1.00  0.00     0.034 A 
HETATM    7  C13 UNL     1      20.556  -0.649  54.092  1.00  0.00     0.011 A 
HETATM    8  C14 UNL     1      19.561  -0.596  53.182  1.00  0.00    -0.015 C 
HETATM    9  C15 UNL     1      19.893   0.684  52.584  1.00  0.00    -0.006 C 
HETATM   10  C16 UNL     1      21.018   1.219  53.023  1.00  0.00    -0.013 C 
HETATM   11  C17 UNL     1      21.752   0.357  53.939  1.00  0.00     0.032 A 
HETATM   12  C18 UNL     1      22.857  -0.359  52.934  1.00  0.00     0.224 C 
HETATM   13  F1  UNL     1      22.559  -1.630  52.757  1.00  0.00    -0.243 F 
HETATM   14  H17 UNL     1      24.523  -1.978  56.185  1.00  0.00     0.159 HD
ENDROOT
BRANCH   1  15
HETATM   15  C7  UNL     1      24.985   0.880  52.664  1.00  0.00     0.252 C 
HETATM   16  N2  UNL     1      25.978   1.211  51.720  1.00  0.00    -0.355 N 
HETATM   17  H13 UNL     1      26.342   0.298  51.427  1.00  0.00     0.162 HD
HETATM   18  O1  UNL     1      24.630   2.074  52.936  1.00  0.00    -0.268 OA
BRANCH  16  19
HETATM   19  C6  UNL     1      26.070   2.646  51.558  1.00  0.00     0.162 C 
BRANCH  19  20
HETATM   20  C5  UNL     1      26.399   3.049  50.184  1.00  0.00     0.677 C 
HETATM   21  N1  UNL     1      25.542   3.570  49.357  1.00  0.00     0.021 NA
BRANCH  21  22
HETATM   22  C4  UNL     1      24.180   3.763  49.829  1.00  0.00     0.250 C 
BRANCH  22  23
HETATM   23  C3  UNL     1      23.298   2.852  48.973  1.00  0.00     0.028 C 
BRANCH  23  24
HETATM   24  C2  UNL     1      22.645   1.853  49.895  1.00  0.00    -0.003 C 
HETATM   25  C1  UNL     1      21.513   1.175  49.134  1.00  0.00     0.005 C 
ENDBRANCH  23  24
ENDBRANCH  22  23
ENDBRANCH  21  22
ENDBRANCH  19  20
ENDBRANCH  16  19
ENDBRANCH   1  15
TORSDOF 6
ENDMDL
MODEL 3
REMARK VINA RESULT:      -7.5      1.997      3.101
REMARK  6 active torsions:
REMARK  status: ('A' for Active; 'I' for Inactive)
REMARK    1  A    between atoms: C2_2  and  C3_3 
REMARK    2  A    between atoms: C3_3  and  C4_4 
REMARK    3  A    between atoms: C4_4  and  N1_5 
REMARK    4  A    between atoms: C5_6  and  C6_7 
REMARK    5  A    between atoms: C6_7  and  N2_8 
REMARK       I    between atoms: N2_8  and  C7_9 
REMARK    6  A    between atoms: C7_9  and  C8_11 
ROOT
HETATM    1  C8  UNL     1      23.640  -0.084  53.653  1.00  0.00     0.066 C 
HETATM    2  C9  UNL     1      23.389  -0.972  54.597  1.00  0.00     0.015 C 
HETATM    3  C10 UNL     1      24.541  -1.139  55.555  1.00  0.00     0.068 C 
HETATM    4  N3  UNL     1      22.289  -1.808  54.929  1.00  0.00    -0.392 N 
HETATM    5  C11 UNL     1      21.024  -1.512  54.236  1.00  0.00     0.126 C 
HETATM    6  C12 UNL     1      20.714  -0.077  54.123  1.00  0.00     0.034 A 
HETATM    7  C13 UNL     1      19.989   0.305  52.904  1.00  0.00     0.011 A 
HETATM    8  C14 UNL     1      19.452   0.839  51.788  1.00  0.00    -0.015 C 
HETATM    9  C15 UNL     1      20.244   2.055  51.737  1.00  0.00    -0.006 C 
HETATM   10  C16 UNL     1      21.199   2.126  52.646  1.00  0.00    -0.013 C 
HETATM   11  C17 UNL     1      21.332   0.915  53.444  1.00  0.00     0.032 A 
HETATM   12  C18 UNL     1      22.564   0.122  52.671  1.00  0.00     0.224 C 
HETATM   13  F1  UNL     1      22.101  -0.937  52.037  1.00  0.00    -0.243 F 
HETATM   14  H17 UNL     1      22.487  -2.553  55.638  1.00  0.00     0.159 HD
ENDROOT
BRANCH   1  15
HETATM   15  C7  UNL     1      24.840   0.691  53.467  1.00  0.00     0.252 C 
HETATM   16  N2  UNL     1      25.729   1.744  53.764  1.00  0.00    -0.355 N 
HETATM   17  H13 UNL     1      25.274   2.228  54.544  1.00  0.00     0.162 HD
HETATM   18  O1  UNL     1      25.512   0.190  52.507  1.00  0.00    -0.268 OA
BRANCH  16  19
HETATM   19  C6  UNL     1      26.874   1.709  52.880  1.00  0.00     0.162 C 
BRANCH  19  20
HETATM   20  C5  UNL     1      28.067   2.339  53.460  1.00  0.00     0.677 C 
HETATM   21  N1  UNL     1      28.961   1.699  54.153  1.00  0.00     0.021 NA
BRANCH  21  22
HETATM   22  C4  UNL     1      28.760   0.273  54.360  1.00  0.00     0.250 C 
BRANCH  22  23
HETATM   23  C3  UNL     1      29.872  -0.433  53.582  1.00  0.00     0.028 C 
BRANCH  23  24
HETATM   24  C2  UNL     1      29.473  -1.879  53.431  1.00  0.00    -0.003 C 
HETATM   25  C1  UNL     1      28.044  -1.925  52.906  1.00  0.00     0.005 C 
ENDBRANCH  23  24
ENDBRANCH  22  23
ENDBRANCH  21  22
ENDBRANCH  19  20
ENDBRANCH  16  19
ENDBRANCH   1  15
TORSDOF 6
ENDMDL
MODEL 4
REMARK VINA RESULT:      -7.4      1.717      3.061
REMARK  6 active torsions:
REMARK  status: ('A' for Active; 'I' for Inactive)
REMARK    1  A    between atoms: C2_2  and  C3_3 
REMARK    2  A    between atoms: C3_3  and  C4_4 
REMARK    3  A    between atoms: C4_4  and  N1_5 
REMARK    4  A    between atoms: C5_6  and  C6_7 
REMARK    5  A    between atoms: C6_7  and  N2_8 
REMARK       I    between atoms: N2_8  and  C7_9 
REMARK    6  A    between atoms: C7_9  and  C8_11 
ROOT
HETATM    1  C8  UNL     1      23.814   1.591  52.314  1.00  0.00     0.066 C 
HETATM    2  C9  UNL     1      23.082   0.567  52.711  1.00  0.00     0.015 C 
HETATM    3  C10 UNL     1      23.847  -0.380  53.600  1.00  0.00     0.068 C 
HETATM    4  N3  UNL     1      21.742   0.143  52.501  1.00  0.00    -0.392 N 
HETATM    5  C11 UNL     1      20.842   1.135  51.892  1.00  0.00     0.126 C 
HETATM    6  C12 UNL     1      20.996   2.502  52.420  1.00  0.00     0.034 A 
HETATM    7  C13 UNL     1      20.755   3.572  51.444  1.00  0.00     0.011 A 
HETATM    8  C14 UNL     1      20.704   4.661  50.649  1.00  0.00    -0.015 C 
HETATM    9  C15 UNL     1      21.795   5.408  51.248  1.00  0.00    -0.006 C 
HETATM   10  C16 UNL     1      22.459   4.754  52.183  1.00  0.00    -0.013 C 
HETATM   11  C17 UNL     1      22.027   3.372  52.343  1.00  0.00     0.032 A 
HETATM   12  C18 UNL     1      23.137   2.552  51.428  1.00  0.00     0.224 C 
HETATM   13  F1  UNL     1      22.573   2.083  50.333  1.00  0.00    -0.243 F 
HETATM   14  H17 UNL     1      21.527  -0.837  52.805  1.00  0.00     0.159 HD
ENDROOT
BRANCH   1  15
HETATM   15  C7  UNL     1      25.191   1.870  52.634  1.00  0.00     0.252 C 
HETATM   16  N2  UNL     1      26.226   2.397  53.432  1.00  0.00    -0.355 N 
HETATM   17  H13 UNL     1      25.728   2.814  54.225  1.00  0.00     0.162 HD
HETATM   18  O1  UNL     1      25.935   1.397  51.712  1.00  0.00    -0.268 OA
BRANCH  16  19
HETATM   19  C6  UNL     1      27.517   2.142  52.828  1.00  0.00     0.162 C 
BRANCH  19  20
HETATM   20  C5  UNL     1      28.640   2.453  53.720  1.00  0.00     0.677 C 
HETATM   21  N1  UNL     1      29.203   1.585  54.507  1.00  0.00     0.021 NA
BRANCH  21  22
HETATM   22  C4  UNL     1      28.683   0.227  54.495  1.00  0.00     0.250 C 
BRANCH  22  23
HETATM   23  C3  UNL     1      29.741  -0.630  53.799  1.00  0.00     0.028 C 
BRANCH  23  24
HETATM   24  C2  UNL     1      29.048  -1.852  53.249  1.00  0.00    -0.003 C 
HETATM   25  C1  UNL     1      27.612  -1.470  52.914  1.00  0.00     0.005 C 
ENDBRANCH  23  24
ENDBRANCH  22  23
ENDBRANCH  21  22
ENDBRANCH  19  20
ENDBRANCH  16  19
ENDBRANCH   1  15
TORSDOF 6
ENDMDL
MODEL 5
REMARK VINA RESULT:      -7.2      3.600      5.581
REMARK  6 active torsions:
REMARK  status: ('A' for Active; 'I' for Inactive)
REMARK    1  A    between atoms: C2_2  and  C3_3 
REMARK    2  A    between atoms: C3_3  and  C4_4 
REMARK    3  A    between atoms: C4_4  and  N1_5 
REMARK    4  A    between atoms: C5_6  and  C6_7 
REMARK    5  A    between atoms: C6_7  and  N2_8 
REMARK       I    between atoms: N2_8  and  C7_9 
REMARK    6  A    between atoms: C7_9  and  C8_11 
ROOT
HETATM    1  C8  UNL     1      23.474   4.306  51.943  1.00  0.00     0.066 C 
HETATM    2  C9  UNL     1      22.219   3.895  51.972  1.00  0.00     0.015 C 
HETATM    3  C10 UNL     1      21.266   4.911  51.396  1.00  0.00     0.068 C 
HETATM    4  N3  UNL     1      21.551   2.722  52.416  1.00  0.00    -0.392 N 
HETATM    5  C11 UNL     1      22.413   1.569  52.724  1.00  0.00     0.126 C 
HETATM    6  C12 UNL     1      23.503   1.348  51.757  1.00  0.00     0.034 A 
HETATM    7  C13 UNL     1      24.738   0.799  52.332  1.00  0.00     0.011 A 
HETATM    8  C14 UNL     1      25.977   0.432  52.716  1.00  0.00    -0.015 C 
HETATM    9  C15 UNL     1      26.735   1.285  51.818  1.00  0.00    -0.006 C 
HETATM   10  C16 UNL     1      26.002   2.123  51.109  1.00  0.00    -0.013 C 
HETATM   11  C17 UNL     1      24.588   2.095  51.456  1.00  0.00     0.032 A 
HETATM   12  C18 UNL     1      24.462   3.371  52.505  1.00  0.00     0.224 C 
HETATM   13  F1  UNL     1      24.267   2.937  53.734  1.00  0.00    -0.243 F 
HETATM   14  H17 UNL     1      20.508   2.794  52.477  1.00  0.00     0.159 HD
ENDROOT
BRANCH   1  15
HETATM   15  C7  UNL     1      23.982   5.557  51.442  1.00  0.00     0.252 C 
HETATM   16  N2  UNL     1      24.436   6.885  51.572  1.00  0.00    -0.355 N 
HETATM   17  H13 UNL     1      24.369   7.063  52.580  1.00  0.00     0.162 HD
HETATM   18  O1  UNL     1      24.114   5.474  50.177  1.00  0.00    -0.268 OA
BRANCH  16  19
HETATM   19  C6  UNL     1      24.796   7.430  50.280  1.00  0.00     0.162 C 
BRANCH  19  20
HETATM   20  C5  UNL     1      26.024   8.235  50.319  1.00  0.00     0.677 C 
HETATM   21  N1  UNL     1      27.002   8.106  49.473  1.00  0.00     0.021 NA
BRANCH  21  22
HETATM   22  C4  UNL     1      26.863   7.102  48.429  1.00  0.00     0.250 C 
BRANCH  22  23
HETATM   23  C3  UNL     1      28.278   6.806  47.929  1.00  0.00     0.028 C 
BRANCH  23  24
HETATM   24  C2  UNL     1      28.642   5.417  48.391  1.00  0.00    -0.003 C 
HETATM   25  C1  UNL     1      27.358   4.695  48.778  1.00  0.00     0.005 C 
ENDBRANCH  23  24
ENDBRANCH  22  23
ENDBRANCH  21  22
ENDBRANCH  19  20
ENDBRANCH  16  19
ENDBRANCH   1  15
TORSDOF 6
ENDMDL
MODEL 6
REMARK VINA RESULT:      -7.2      2.624      5.960
REMARK  6 active torsions:
REMARK  status: ('A' for Active; 'I' for Inactive)
REMARK    1  A    between atoms: C2_2  and  C3_3 
REMARK    2  A    between atoms: C3_3  and  C4_4 
REMARK    3  A    between atoms: C4_4  and  N1_5 
REMARK    4  A    between atoms: C5_6  and  C6_7 
REMARK    5  A    between atoms: C6_7  and  N2_8 
REMARK       I    between atoms: N2_8  and  C7_9 
REMARK    6  A    between atoms: C7_9  and  C8_11 
ROOT
HETATM    1  C8  UNL     1      24.393   1.758  52.969  1.00  0.00     0.066 C 
HETATM    2  C9  UNL     1      23.840   0.560  53.018  1.00  0.00     0.015 C 
HETATM    3  C10 UNL     1      22.545   0.491  52.250  1.00  0.00     0.068 C 
HETATM    4  N3  UNL     1      24.174  -0.682  53.622  1.00  0.00    -0.392 N 
HETATM    5  C11 UNL     1      25.546  -0.794  54.145  1.00  0.00     0.126 C 
HETATM    6  C12 UNL     1      26.581  -0.219  53.269  1.00  0.00     0.034 A 
HETATM    7  C13 UNL     1      27.728   0.371  53.970  1.00  0.00     0.011 A 
HETATM    8  C14 UNL     1      28.774   1.071  54.454  1.00  0.00    -0.015 C 
HETATM    9  C15 UNL     1      28.798   2.127  53.458  1.00  0.00    -0.006 C 
HETATM   10  C16 UNL     1      27.800   2.089  52.595  1.00  0.00    -0.013 C 
HETATM   11  C17 UNL     1      26.816   1.057  52.890  1.00  0.00     0.032 A 
HETATM   12  C18 UNL     1      25.655   1.906  53.711  1.00  0.00     0.224 C 
HETATM   13  F1  UNL     1      25.660   1.574  54.986  1.00  0.00    -0.243 F 
HETATM   14  H17 UNL     1      23.410  -1.398  53.632  1.00  0.00     0.159 HD
ENDROOT
BRANCH   1  15
HETATM   15  C7  UNL     1      23.903   2.930  52.290  1.00  0.00     0.252 C 
HETATM   16  N2  UNL     1      23.225   3.606  51.256  1.00  0.00    -0.355 N 
HETATM   17  H13 UNL     1      22.895   2.848  50.651  1.00  0.00     0.162 HD
HETATM   18  O1  UNL     1      24.250   3.966  52.948  1.00  0.00    -0.268 OA
BRANCH  16  19
HETATM   19  C6  UNL     1      23.269   5.038  51.468  1.00  0.00     0.162 C 
BRANCH  19  20
HETATM   20  C5  UNL     1      23.128   5.806  50.225  1.00  0.00     0.677 C 
HETATM   21  N1  UNL     1      24.133   6.217  49.508  1.00  0.00     0.021 NA
BRANCH  21  22
HETATM   22  C4  UNL     1      25.472   5.890  49.975  1.00  0.00     0.250 C 
BRANCH  22  23
HETATM   23  C3  UNL     1      26.373   5.919  48.739  1.00  0.00     0.028 C 
BRANCH  23  24
HETATM   24  C2  UNL     1      27.286   4.721  48.814  1.00  0.00    -0.003 C 
HETATM   25  C1  UNL     1      26.548   3.608  49.544  1.00  0.00     0.005 C 
ENDBRANCH  23  24
ENDBRANCH  22  23
ENDBRANCH  21  22
ENDBRANCH  19  20
ENDBRANCH  16  19
ENDBRANCH   1  15
TORSDOF 6
ENDMDL
MODEL 7
REMARK VINA RESULT:      -7.0      3.888      5.740
REMARK  6 active torsions:
REMARK  status: ('A' for Active; 'I' for Inactive)
REMARK    1  A    between atoms: C2_2  and  C3_3 
REMARK    2  A    between atoms: C3_3  and  C4_4 
REMARK    3  A    between atoms: C4_4  and  N1_5 
REMARK    4  A    between atoms: C5_6  and  C6_7 
REMARK    5  A    between atoms: C6_7  and  N2_8 
REMARK       I    between atoms: N2_8  and  C7_9 
REMARK    6  A    between atoms: C7_9  and  C8_11 
ROOT
HETATM    1  C8  UNL     1      25.034   2.644  51.442  1.00  0.00     0.066 C 
HETATM    2  C9  UNL     1      23.859   2.076  51.245  1.00  0.00     0.015 C 
HETATM    3  C10 UNL     1      23.223   2.500  49.946  1.00  0.00     0.068 C 
HETATM    4  N3  UNL     1      23.049   1.158  51.966  1.00  0.00    -0.392 N 
HETATM    5  C11 UNL     1      23.702   0.471  53.093  1.00  0.00     0.126 C 
HETATM    6  C12 UNL     1      25.076   0.019  52.816  1.00  0.00     0.034 A 
HETATM    7  C13 UNL     1      25.982   0.047  53.972  1.00  0.00     0.011 A 
HETATM    8  C14 UNL     1      26.968   0.141  54.886  1.00  0.00    -0.015 C 
HETATM    9  C15 UNL     1      28.031   0.583  54.002  1.00  0.00    -0.006 C 
HETATM   10  C16 UNL     1      27.647   0.832  52.763  1.00  0.00    -0.013 C 
HETATM   11  C17 UNL     1      26.208   0.715  52.568  1.00  0.00     0.032 A 
HETATM   12  C18 UNL     1      25.710   2.289  52.700  1.00  0.00     0.224 C 
HETATM   13  F1  UNL     1      25.046   2.468  53.824  1.00  0.00    -0.243 F 
HETATM   14  H17 UNL     1      22.065   1.058  51.621  1.00  0.00     0.159 HD
ENDROOT
BRANCH   1  15
HETATM   15  C7  UNL     1      25.721   3.574  50.581  1.00  0.00     0.252 C 
HETATM   16  N2  UNL     1      26.032   4.858  50.093  1.00  0.00    -0.355 N 
HETATM   17  H13 UNL     1      25.448   5.478  50.664  1.00  0.00     0.162 HD
HETATM   18  O1  UNL     1      26.495   2.924  49.804  1.00  0.00    -0.268 OA
BRANCH  16  19
HETATM   19  C6  UNL     1      27.010   4.777  49.029  1.00  0.00     0.162 C 
BRANCH  19  20
HETATM   20  C5  UNL     1      27.324   6.084  48.437  1.00  0.00     0.677 C 
HETATM   21  N1  UNL     1      28.504   6.422  48.012  1.00  0.00     0.021 NA
BRANCH  21  22
HETATM   22  C4  UNL     1      29.572   5.441  48.133  1.00  0.00     0.250 C 
BRANCH  22  23
HETATM   23  C3  UNL     1      30.862   6.164  47.743  1.00  0.00     0.028 C 
BRANCH  23  24
HETATM   24  C2  UNL     1      30.755   7.585  48.237  1.00  0.00    -0.003 C 
HETATM   25  C1  UNL     1      31.646   7.728  49.464  1.00  0.00     0.005 C 
ENDBRANCH  23  24
ENDBRANCH  22  23
ENDBRANCH  21  22
ENDBRANCH  19  20
ENDBRANCH  16  19
ENDBRANCH   1  15
TORSDOF 6
ENDMDL
MODEL 8
REMARK VINA RESULT:      -7.0      2.671      5.202
REMARK  6 active torsions:
REMARK  status: ('A' for Active; 'I' for Inactive)
REMARK    1  A    between atoms: C2_2  and  C3_3 
REMARK    2  A    between atoms: C3_3  and  C4_4 
REMARK    3  A    between atoms: C4_4  and  N1_5 
REMARK    4  A    between atoms: C5_6  and  C6_7 
REMARK    5  A    between atoms: C6_7  and  N2_8 
REMARK       I    between atoms: N2_8  and  C7_9 
REMARK    6  A    between atoms: C7_9  and  C8_11 
ROOT
HETATM    1  C8  UNL     1      24.241  -0.015  53.442  1.00  0.00     0.066 C 
HETATM    2  C9  UNL     1      24.580  -0.587  54.582  1.00  0.00     0.015 C 
HETATM    3  C10 UNL     1      25.970  -0.210  55.028  1.00  0.00     0.068 C 
HETATM    4  N3  UNL     1      23.946  -1.475  55.493  1.00  0.00    -0.392 N 
HETATM    5  C11 UNL     1      22.500  -1.672  55.298  1.00  0.00     0.126 C 
HETATM    6  C12 UNL     1      21.753  -0.438  54.996  1.00  0.00     0.034 A 
HETATM    7  C13 UNL     1      20.602  -0.616  54.102  1.00  0.00     0.011 A 
HETATM    8  C14 UNL     1      19.606  -0.582  53.193  1.00  0.00    -0.015 C 
HETATM    9  C15 UNL     1      19.937   0.686  52.568  1.00  0.00    -0.006 C 
HETATM   10  C16 UNL     1      21.062   1.230  52.993  1.00  0.00    -0.013 C 
HETATM   11  C17 UNL     1      21.798   0.387  53.926  1.00  0.00     0.032 A 
HETATM   12  C18 UNL     1      22.901  -0.350  52.935  1.00  0.00     0.224 C 
HETATM   13  F1  UNL     1      22.603  -1.625  52.785  1.00  0.00    -0.243 F 
HETATM   14  H17 UNL     1      24.572  -1.901  56.217  1.00  0.00     0.159 HD
ENDROOT
BRANCH   1  15
HETATM   15  C7  UNL     1      25.029   0.882  52.636  1.00  0.00     0.252 C 
HETATM   16  N2  UNL     1      26.043   1.195  51.708  1.00  0.00    -0.355 N 
HETATM   17  H13 UNL     1      26.444   0.281  51.475  1.00  0.00     0.162 HD
HETATM   18  O1  UNL     1      24.629   2.077  52.834  1.00  0.00    -0.268 OA
BRANCH  16  19
HETATM   19  C6  UNL     1      26.098   2.623  51.475  1.00  0.00     0.162 C 
BRANCH  19  20
HETATM   20  C5  UNL     1      26.508   2.966  50.107  1.00  0.00     0.677 C 
HETATM   21  N1  UNL     1      26.075   4.007  49.460  1.00  0.00     0.021 NA
BRANCH  21  22
HETATM   22  C4  UNL     1      25.128   4.878  50.140  1.00  0.00     0.250 C 
BRANCH  22  23
HETATM   23  C3  UNL     1      25.635   6.306  49.930  1.00  0.00     0.028 C 
BRANCH  23  24
HETATM   24  C2  UNL     1      26.494   6.306  48.690  1.00  0.00    -0.003 C 
HETATM   25  C1  UNL     1      25.990   7.404  47.764  1.00  0.00     0.005 C 
ENDBRANCH  23  24
ENDBRANCH  22  23
ENDBRANCH  21  22
ENDBRANCH  19  20
ENDBRANCH  16  19
ENDBRANCH   1  15
TORSDOF 6
ENDMDL
MODEL 9
REMARK VINA RESULT:      -6.8      2.529      6.473
REMARK  6 active torsions:
REMARK  status: ('A' for Active; 'I' for Inactive)
REMARK    1  A    between atoms: C2_2  and  C3_3 
REMARK    2  A    between atoms: C3_3  and  C4_4 
REMARK    3  A    between atoms: C4_4  and  N1_5 
REMARK    4  A    between atoms: C5_6  and  C6_7 
REMARK    5  A    between atoms: C6_7  and  N2_8 
REMARK       I    between atoms: N2_8  and  C7_9 
REMARK    6  A    between atoms: C7_9  and  C8_11 
ROOT
HETATM    1  C8  UNL     1      24.622   1.947  53.035  1.00  0.00     0.066 C 
HETATM    2  C9  UNL     1      24.057   0.775  52.811  1.00  0.00     0.015 C 
HETATM    3  C10 UNL     1      22.790   0.890  52.004  1.00  0.00     0.068 C 
HETATM    4  N3  UNL     1      24.359  -0.572  53.149  1.00  0.00    -0.392 N 
HETATM    5  C11 UNL     1      25.710  -0.814  53.681  1.00  0.00     0.126 C 
HETATM    6  C12 UNL     1      26.781  -0.083  52.981  1.00  0.00     0.034 A 
HETATM    7  C13 UNL     1      27.907   0.327  53.828  1.00  0.00     0.011 A 
HETATM    8  C14 UNL     1      28.942   0.892  54.484  1.00  0.00    -0.015 C 
HETATM    9  C15 UNL     1      29.010   2.134  53.736  1.00  0.00    -0.006 C 
HETATM   10  C16 UNL     1      28.043   2.296  52.852  1.00  0.00    -0.013 C 
HETATM   11  C17 UNL     1      27.040   1.240  52.889  1.00  0.00     0.032 A 
HETATM   12  C18 UNL     1      25.858   1.915  53.833  1.00  0.00     0.224 C 
HETATM   13  F1  UNL     1      25.815   1.320  55.008  1.00  0.00    -0.243 F 
HETATM   14  H17 UNL     1      23.589  -1.262  52.982  1.00  0.00     0.159 HD
ENDROOT
BRANCH   1  15
HETATM   15  C7  UNL     1      24.166   3.244  52.604  1.00  0.00     0.252 C 
HETATM   16  N2  UNL     1      23.342   4.385  52.670  1.00  0.00    -0.355 N 
HETATM   17  H13 UNL     1      22.722   4.186  53.462  1.00  0.00     0.162 HD
HETATM   18  O1  UNL     1      24.865   3.617  51.605  1.00  0.00    -0.268 OA
BRANCH  16  19
HETATM   19  C6  UNL     1      23.697   5.331  51.633  1.00  0.00     0.162 C 
BRANCH  19  20
HETATM   20  C5  UNL     1      22.528   5.965  51.011  1.00  0.00     0.677 C 
HETATM   21  N1  UNL     1      22.333   6.026  49.727  1.00  0.00     0.021 NA
BRANCH  21  22
HETATM   22  C4  UNL     1      23.340   5.427  48.864  1.00  0.00     0.250 C 
BRANCH  22  23
HETATM   23  C3  UNL     1      22.594   4.913  47.631  1.00  0.00     0.028 C 
BRANCH  23  24
HETATM   24  C2  UNL     1      22.038   3.553  47.969  1.00  0.00    -0.003 C 
HETATM   25  C1  UNL     1      23.114   2.773  48.713  1.00  0.00     0.005 C 
ENDBRANCH  23  24
ENDBRANCH  22  23
ENDBRANCH  21  22
ENDBRANCH  19  20
ENDBRANCH  16  19
ENDBRANCH   1  15
TORSDOF 6
ENDMDL
