MODEL 1
REMARK VINA RESULT:      -8.5      0.000      0.000
REMARK  8 active torsions:
REMARK  status: ('A' for Active; 'I' for Inactive)
REMARK       I    between atoms: N1_2  and  C2_3 
REMARK    1  A    between atoms: C2_3  and  C3_5 
REMARK    2  A    between atoms: C3_5  and  C5_8 
REMARK    3  A    between atoms: C6_9  and  P1_10 
REMARK    4  A    between atoms: C7_11  and  C8_12 
REMARK    5  A    between atoms: C8_12  and  C9_13 
REMARK    6  A    between atoms: C9_13  and  C10_14 
REMARK    7  A    between atoms: C16_20  and  C17_21 
REMARK    8  A    between atoms: C17_21  and  C18_22 
ROOT
HETATM    1  C3  UNL     1      20.765   0.442  52.011  1.00  0.00     0.199 C 
HETATM    2  C4  UNL     1      20.862  -0.389  53.216  1.00  0.00     0.074 C 
HETATM    3  N2  UNL     1      20.925  -1.027  54.164  1.00  0.00    -0.196 NA
ENDROOT
BRANCH   1   4
HETATM    4  C2  UNL     1      20.359   1.833  52.346  1.00  0.00     0.260 C 
HETATM    5  N1  UNL     1      20.086   3.193  52.668  1.00  0.00    -0.236 NA
HETATM    6  C1  UNL     1      20.371   4.076  51.748  1.00  0.00     0.153 C 
HETATM    7  O1  UNL     1      19.290   1.173  52.250  1.00  0.00    -0.270 OA
ENDBRANCH   1   4
BRANCH   1   8
HETATM    8  C5  UNL     1      22.096   0.478  51.353  1.00  0.00     0.076 A 
HETATM    9  C6  UNL     1      22.201   1.354  50.187  1.00  0.00    -0.034 A 
HETATM   10  C7  UNL     1      23.219   2.152  50.862  1.00  0.00    -0.046 A 
HETATM   11  C16 UNL     1      23.126   1.361  51.919  1.00  0.00    -0.058 A 
BRANCH   9  12
HETATM   12  P1  UNL     1      21.435   1.377  48.712  1.00  0.00    -0.067 P 
HETATM   13  H5  UNL     1      21.701   0.380  47.689  1.00  0.00     0.067 HD
ENDBRANCH   9  12
BRANCH  10  14
HETATM   14  C8  UNL     1      23.989   3.353  50.442  1.00  0.00     0.044 C 
BRANCH  14  15
HETATM   15  C9  UNL     1      25.360   3.029  49.910  1.00  0.00     0.043 C 
BRANCH  15  16
HETATM   16  C10 UNL     1      25.889   4.305  49.326  1.00  0.00    -0.058 A 
HETATM   17  C11 UNL     1      27.234   4.382  49.016  1.00  0.00     0.007 A 
HETATM   18  C12 UNL     1      27.719   5.556  48.479  1.00  0.00     0.001 A 
HETATM   19  C13 UNL     1      26.947   6.666  48.229  1.00  0.00     0.000 A 
HETATM   20  C14 UNL     1      25.607   6.548  48.553  1.00  0.00     0.001 A 
HETATM   21  C15 UNL     1      25.076   5.391  49.094  1.00  0.00     0.007 A 
ENDBRANCH  15  16
ENDBRANCH  14  15
ENDBRANCH  10  14
BRANCH  11  22
HETATM   22  C17 UNL     1      23.804   1.330  53.244  1.00  0.00     0.073 C 
BRANCH  22  23
HETATM   23  C18 UNL     1      25.250   1.112  53.171  1.00  0.00    -0.054 A 
HETATM   24  C19 UNL     1      25.766  -0.101  52.765  1.00  0.00     0.007 A 
HETATM   25  C20 UNL     1      27.148  -0.287  52.702  1.00  0.00     0.001 A 
HETATM   26  C21 UNL     1      27.968   0.778  53.059  1.00  0.00     0.000 A 
HETATM   27  C22 UNL     1      27.462   2.012  53.473  1.00  0.00     0.001 A 
HETATM   28  C23 UNL     1      26.098   2.150  53.519  1.00  0.00     0.007 A 
ENDBRANCH  22  23
ENDBRANCH  11  22
ENDBRANCH   1   8
TORSDOF 8
ENDMDL
MODEL 2
REMARK VINA RESULT:      -7.9      1.216      2.403
REMARK  8 active torsions:
REMARK  status: ('A' for Active; 'I' for Inactive)
REMARK       I    between atoms: N1_2  and  C2_3 
REMARK    1  A    between atoms: C2_3  and  C3_5 
REMARK    2  A    between atoms: C3_5  and  C5_8 
REMARK    3  A    between atoms: C6_9  and  P1_10 
REMARK    4  A    between atoms: C7_11  and  C8_12 
REMARK    5  A    between atoms: C8_12  and  C9_13 
REMARK    6  A    between atoms: C9_13  and  C10_14 
REMARK    7  A    between atoms: C16_20  and  C17_21 
REMARK    8  A    between atoms: C17_21  and  C18_22 
ROOT
HETATM    1  C3  UNL     1      20.965   0.639  52.668  1.00  0.00     0.199 C 
HETATM    2  C4  UNL     1      19.826   0.249  51.830  1.00  0.00     0.074 C 
HETATM    3  N2  UNL     1      18.929  -0.062  51.192  1.00  0.00    -0.196 NA
ENDROOT
BRANCH   1   4
HETATM    4  C2  UNL     1      21.126  -0.282  53.825  1.00  0.00     0.260 C 
HETATM    5  N1  UNL     1      21.335  -1.239  54.857  1.00  0.00    -0.236 NA
HETATM    6  C1  UNL     1      22.573  -1.439  55.223  1.00  0.00     0.153 C 
HETATM    7  O1  UNL     1      20.512   0.725  54.266  1.00  0.00    -0.270 OA
ENDBRANCH   1   4
BRANCH   1   8
HETATM    8  C5  UNL     1      22.198   0.589  51.842  1.00  0.00     0.076 A 
HETATM    9  C6  UNL     1      22.216   1.474  50.678  1.00  0.00    -0.034 A 
HETATM   10  C7  UNL     1      23.368   2.185  51.220  1.00  0.00    -0.046 A 
HETATM   11  C16 UNL     1      23.355   1.386  52.275  1.00  0.00    -0.058 A 
BRANCH   9  12
HETATM   12  P1  UNL     1      21.269   1.576  49.315  1.00  0.00    -0.067 P 
HETATM   13  H5  UNL     1      19.898   1.097  49.290  1.00  0.00     0.067 HD
ENDBRANCH   9  12
BRANCH  10  14
HETATM   14  C8  UNL     1      24.163   3.335  50.711  1.00  0.00     0.044 C 
BRANCH  14  15
HETATM   15  C9  UNL     1      25.262   2.929  49.764  1.00  0.00     0.043 C 
BRANCH  15  16
HETATM   16  C10 UNL     1      25.867   4.207  49.262  1.00  0.00    -0.058 A 
HETATM   17  C11 UNL     1      25.036   5.287  49.036  1.00  0.00     0.007 A 
HETATM   18  C12 UNL     1      25.594   6.461  48.573  1.00  0.00     0.001 A 
HETATM   19  C13 UNL     1      26.935   6.629  48.322  1.00  0.00     0.000 A 
HETATM   20  C14 UNL     1      27.733   5.524  48.561  1.00  0.00     0.001 A 
HETATM   21  C15 UNL     1      27.218   4.327  49.024  1.00  0.00     0.007 A 
ENDBRANCH  15  16
ENDBRANCH  14  15
ENDBRANCH  10  14
BRANCH  11  22
HETATM   22  C17 UNL     1      24.195   1.285  53.500  1.00  0.00     0.073 C 
BRANCH  22  23
HETATM   23  C18 UNL     1      25.505   0.671  53.279  1.00  0.00    -0.054 A 
HETATM   24  C19 UNL     1      26.649   1.440  53.212  1.00  0.00     0.007 A 
HETATM   25  C20 UNL     1      27.888   0.833  53.001  1.00  0.00     0.001 A 
HETATM   26  C21 UNL     1      27.924  -0.550  52.862  1.00  0.00     0.000 A 
HETATM   27  C22 UNL     1      26.776  -1.343  52.926  1.00  0.00     0.001 A 
HETATM   28  C23 UNL     1      25.580  -0.704  53.136  1.00  0.00     0.007 A 
ENDBRANCH  22  23
ENDBRANCH  11  22
ENDBRANCH   1   8
TORSDOF 8
ENDMDL
MODEL 3
REMARK VINA RESULT:      -7.9      2.184      4.939
REMARK  8 active torsions:
REMARK  status: ('A' for Active; 'I' for Inactive)
REMARK       I    between atoms: N1_2  and  C2_3 
REMARK    1  A    between atoms: C2_3  and  C3_5 
REMARK    2  A    between atoms: C3_5  and  C5_8 
REMARK    3  A    between atoms: C6_9  and  P1_10 
REMARK    4  A    between atoms: C7_11  and  C8_12 
REMARK    5  A    between atoms: C8_12  and  C9_13 
REMARK    6  A    between atoms: C9_13  and  C10_14 
REMARK    7  A    between atoms: C16_20  and  C17_21 
REMARK    8  A    between atoms: C17_21  and  C18_22 
ROOT
HETATM    1  C3  UNL     1      21.282   3.187  51.019  1.00  0.00     0.199 C 
HETATM    2  C4  UNL     1      21.617   2.237  49.953  1.00  0.00     0.074 C 
HETATM    3  N2  UNL     1      21.865   1.504  49.111  1.00  0.00    -0.196 NA
ENDROOT
BRANCH   1   4
HETATM    4  C2  UNL     1      19.872   3.649  50.909  1.00  0.00     0.260 C 
HETATM    5  N1  UNL     1      18.496   3.981  50.766  1.00  0.00    -0.236 NA
HETATM    6  C1  UNL     1      17.670   3.402  51.597  1.00  0.00     0.153 C 
HETATM    7  O1  UNL     1      20.535   4.647  51.300  1.00  0.00    -0.270 OA
ENDBRANCH   1   4
BRANCH   1   8
HETATM    8  C5  UNL     1      21.463   2.512  52.329  1.00  0.00     0.076 A 
HETATM    9  C6  UNL     1      21.149   1.083  52.352  1.00  0.00    -0.034 A 
HETATM   10  C7  UNL     1      22.526   0.773  52.718  1.00  0.00    -0.046 A 
HETATM   11  C16 UNL     1      22.814   2.065  52.698  1.00  0.00    -0.058 A 
BRANCH   9  12
HETATM   12  P1  UNL     1      19.756   0.223  52.065  1.00  0.00    -0.067 P 
HETATM   13  H5  UNL     1      18.789  -0.053  53.113  1.00  0.00     0.067 HD
ENDBRANCH   9  12
BRANCH  10  14
HETATM   14  C8  UNL     1      23.225  -0.513  52.984  1.00  0.00     0.044 C 
BRANCH  14  15
HETATM   15  C9  UNL     1      23.937  -0.543  54.311  1.00  0.00     0.043 C 
BRANCH  15  16
HETATM   16  C10 UNL     1      25.401  -0.450  53.996  1.00  0.00    -0.058 A 
HETATM   17  C11 UNL     1      26.214   0.278  54.844  1.00  0.00     0.007 A 
HETATM   18  C12 UNL     1      27.560   0.363  54.552  1.00  0.00     0.001 A 
HETATM   19  C13 UNL     1      28.151  -0.235  53.464  1.00  0.00     0.000 A 
HETATM   20  C14 UNL     1      27.303  -0.954  52.641  1.00  0.00     0.001 A 
HETATM   21  C15 UNL     1      25.948  -1.066  52.893  1.00  0.00     0.007 A 
ENDBRANCH  15  16
ENDBRANCH  14  15
ENDBRANCH  10  14
BRANCH  11  22
HETATM   22  C17 UNL     1      24.055   2.847  52.952  1.00  0.00     0.073 C 
BRANCH  22  23
HETATM   23  C18 UNL     1      24.845   3.123  51.752  1.00  0.00    -0.054 A 
HETATM   24  C19 UNL     1      24.589   4.233  50.972  1.00  0.00     0.007 A 
HETATM   25  C20 UNL     1      25.355   4.478  49.831  1.00  0.00     0.001 A 
HETATM   26  C21 UNL     1      26.367   3.577  49.518  1.00  0.00     0.000 A 
HETATM   27  C22 UNL     1      26.639   2.449  50.295  1.00  0.00     0.001 A 
HETATM   28  C23 UNL     1      25.861   2.248  51.407  1.00  0.00     0.007 A 
ENDBRANCH  22  23
ENDBRANCH  11  22
ENDBRANCH   1   8
TORSDOF 8
ENDMDL
MODEL 4
REMARK VINA RESULT:      -7.6      2.496      4.754
REMARK  8 active torsions:
REMARK  status: ('A' for Active; 'I' for Inactive)
REMARK       I    between atoms: N1_2  and  C2_3 
REMARK    1  A    between atoms: C2_3  and  C3_5 
REMARK    2  A    between atoms: C3_5  and  C5_8 
REMARK    3  A    between atoms: C6_9  and  P1_10 
REMARK    4  A    between atoms: C7_11  and  C8_12 
REMARK    5  A    between atoms: C8_12  and  C9_13 
REMARK    6  A    between atoms: C9_13  and  C10_14 
REMARK    7  A    between atoms: C16_20  and  C17_21 
REMARK    8  A    between atoms: C17_21  and  C18_22 
ROOT
HETATM    1  C3  UNL     1      20.199   3.872  50.301  1.00  0.00     0.199 C 
HETATM    2  C4  UNL     1      19.117   3.610  51.257  1.00  0.00     0.074 C 
HETATM    3  N2  UNL     1      18.275   3.423  52.008  1.00  0.00    -0.196 NA
ENDROOT
BRANCH   1   4
HETATM    4  C2  UNL     1      21.029   5.029  50.727  1.00  0.00     0.260 C 
HETATM    5  N1  UNL     1      21.899   6.058  51.187  1.00  0.00    -0.236 NA
HETATM    6  C1  UNL     1      23.085   6.103  50.643  1.00  0.00     0.153 C 
HETATM    7  O1  UNL     1      20.050   5.516  50.103  1.00  0.00    -0.270 OA
ENDBRANCH   1   4
BRANCH   1   8
HETATM    8  C5  UNL     1      21.062   2.667  50.222  1.00  0.00     0.076 A 
HETATM    9  C6  UNL     1      22.129   2.718  49.223  1.00  0.00    -0.034 A 
HETATM   10  C7  UNL     1      23.135   2.591  50.271  1.00  0.00    -0.046 A 
HETATM   11  C16 UNL     1      22.172   2.544  51.178  1.00  0.00    -0.058 A 
BRANCH   9  12
HETATM   12  P1  UNL     1      22.127   2.864  47.567  1.00  0.00    -0.067 P 
HETATM   13  H5  UNL     1      21.417   1.931  46.710  1.00  0.00     0.067 HD
ENDBRANCH   9  12
BRANCH  10  14
HETATM   14  C8  UNL     1      24.621   2.543  50.231  1.00  0.00     0.044 C 
BRANCH  14  15
HETATM   15  C9  UNL     1      25.272   3.143  51.449  1.00  0.00     0.043 C 
BRANCH  15  16
HETATM   16  C10 UNL     1      25.800   1.988  52.247  1.00  0.00    -0.058 A 
HETATM   17  C11 UNL     1      25.897   2.123  53.619  1.00  0.00     0.007 A 
HETATM   18  C12 UNL     1      26.384   1.060  54.351  1.00  0.00     0.001 A 
HETATM   19  C13 UNL     1      26.780  -0.137  53.802  1.00  0.00     0.000 A 
HETATM   20  C14 UNL     1      26.667  -0.231  52.426  1.00  0.00     0.001 A 
HETATM   21  C15 UNL     1      26.186   0.809  51.651  1.00  0.00     0.007 A 
ENDBRANCH  15  16
ENDBRANCH  14  15
ENDBRANCH  10  14
BRANCH  11  22
HETATM   22  C17 UNL     1      22.160   2.414  52.661  1.00  0.00     0.073 C 
BRANCH  22  23
HETATM   23  C18 UNL     1      21.847   1.068  53.141  1.00  0.00    -0.054 A 
HETATM   24  C19 UNL     1      20.541   0.672  53.347  1.00  0.00     0.007 A 
HETATM   25  C20 UNL     1      20.265  -0.617  53.805  1.00  0.00     0.001 A 
HETATM   26  C21 UNL     1      21.337  -1.471  54.041  1.00  0.00     0.000 A 
HETATM   27  C22 UNL     1      22.665  -1.087  53.839  1.00  0.00     0.001 A 
HETATM   28  C23 UNL     1      22.889   0.189  53.388  1.00  0.00     0.007 A 
ENDBRANCH  22  23
ENDBRANCH  11  22
ENDBRANCH   1   8
TORSDOF 8
ENDMDL
MODEL 5
REMARK VINA RESULT:      -7.3      2.714      5.516
REMARK  8 active torsions:
REMARK  status: ('A' for Active; 'I' for Inactive)
REMARK       I    between atoms: N1_2  and  C2_3 
REMARK    1  A    between atoms: C2_3  and  C3_5 
REMARK    2  A    between atoms: C3_5  and  C5_8 
REMARK    3  A    between atoms: C6_9  and  P1_10 
REMARK    4  A    between atoms: C7_11  and  C8_12 
REMARK    5  A    between atoms: C8_12  and  C9_13 
REMARK    6  A    between atoms: C9_13  and  C10_14 
REMARK    7  A    between atoms: C16_20  and  C17_21 
REMARK    8  A    between atoms: C17_21  and  C18_22 
ROOT
HETATM    1  C3  UNL     1      22.769   5.686  49.904  1.00  0.00     0.199 C 
HETATM    2  C4  UNL     1      22.993   7.093  49.555  1.00  0.00     0.074 C 
HETATM    3  N2  UNL     1      23.150   8.194  49.288  1.00  0.00    -0.196 NA
ENDROOT
BRANCH   1   4
HETATM    4  C2  UNL     1      21.336   5.314  49.758  1.00  0.00     0.260 C 
HETATM    5  N1  UNL     1      19.984   4.951  49.500  1.00  0.00    -0.236 NA
HETATM    6  C1  UNL     1      19.782   3.740  49.055  1.00  0.00     0.153 C 
HETATM    7  O1  UNL     1      21.526   5.490  50.991  1.00  0.00    -0.270 OA
ENDBRANCH   1   4
BRANCH   1   8
HETATM    8  C5  UNL     1      23.578   4.838  48.993  1.00  0.00     0.076 A 
HETATM    9  C6  UNL     1      25.027   4.910  49.182  1.00  0.00    -0.034 A 
HETATM   10  C7  UNL     1      25.068   3.490  49.511  1.00  0.00    -0.046 A 
HETATM   11  C16 UNL     1      23.757   3.420  49.340  1.00  0.00    -0.058 A 
BRANCH   9  12
HETATM   12  P1  UNL     1      26.127   6.150  49.057  1.00  0.00    -0.067 P 
HETATM   13  H5  UNL     1      27.037   6.263  47.931  1.00  0.00     0.067 HD
ENDBRANCH   9  12
BRANCH  10  14
HETATM   14  C8  UNL     1      26.187   2.580  49.876  1.00  0.00     0.044 C 
BRANCH  14  15
HETATM   15  C9  UNL     1      26.848   2.939  51.181  1.00  0.00     0.043 C 
BRANCH  15  16
HETATM   16  C10 UNL     1      26.560   1.803  52.117  1.00  0.00    -0.058 A 
HETATM   17  C11 UNL     1      26.624   2.037  53.478  1.00  0.00     0.007 A 
HETATM   18  C12 UNL     1      26.360   0.991  54.338  1.00  0.00     0.001 A 
HETATM   19  C13 UNL     1      26.034  -0.280  53.927  1.00  0.00     0.000 A 
HETATM   20  C14 UNL     1      25.981  -0.473  52.557  1.00  0.00     0.001 A 
HETATM   21  C15 UNL     1      26.239   0.546  51.658  1.00  0.00     0.007 A 
ENDBRANCH  15  16
ENDBRANCH  14  15
ENDBRANCH  10  14
BRANCH  11  22
HETATM   22  C17 UNL     1      22.762   2.319  49.449  1.00  0.00     0.073 C 
BRANCH  22  23
HETATM   23  C18 UNL     1      22.645   1.748  50.792  1.00  0.00    -0.054 A 
HETATM   24  C19 UNL     1      22.144   0.476  50.983  1.00  0.00     0.007 A 
HETATM   25  C20 UNL     1      22.042  -0.048  52.272  1.00  0.00     0.001 A 
HETATM   26  C21 UNL     1      22.456   0.746  53.336  1.00  0.00     0.000 A 
HETATM   27  C22 UNL     1      22.965   2.034  53.161  1.00  0.00     0.001 A 
HETATM   28  C23 UNL     1      23.048   2.509  51.876  1.00  0.00     0.007 A 
ENDBRANCH  22  23
ENDBRANCH  11  22
ENDBRANCH   1   8
TORSDOF 8
ENDMDL
MODEL 6
REMARK VINA RESULT:      -7.2      2.718      5.179
REMARK  8 active torsions:
REMARK  status: ('A' for Active; 'I' for Inactive)
REMARK       I    between atoms: N1_2  and  C2_3 
REMARK    1  A    between atoms: C2_3  and  C3_5 
REMARK    2  A    between atoms: C3_5  and  C5_8 
REMARK    3  A    between atoms: C6_9  and  P1_10 
REMARK    4  A    between atoms: C7_11  and  C8_12 
REMARK    5  A    between atoms: C8_12  and  C9_13 
REMARK    6  A    between atoms: C9_13  and  C10_14 
REMARK    7  A    between atoms: C16_20  and  C17_21 
REMARK    8  A    between atoms: C17_21  and  C18_22 
ROOT
HETATM    1  C3  UNL     1      21.385   3.771  50.010  1.00  0.00     0.199 C 
HETATM    2  C4  UNL     1      21.534   4.287  51.376  1.00  0.00     0.074 C 
HETATM    3  N2  UNL     1      21.643   4.705  52.435  1.00  0.00    -0.196 NA
ENDROOT
BRANCH   1   4
HETATM    4  C2  UNL     1      21.348   4.877  49.016  1.00  0.00     0.260 C 
HETATM    5  N1  UNL     1      21.424   5.961  48.097  1.00  0.00    -0.236 NA
HETATM    6  C1  UNL     1      22.254   5.818  47.098  1.00  0.00     0.153 C 
HETATM    7  O1  UNL     1      20.219   4.320  48.959  1.00  0.00    -0.270 OA
ENDBRANCH   1   4
BRANCH   1   8
HETATM    8  C5  UNL     1      22.543   2.894  49.707  1.00  0.00     0.076 A 
HETATM    9  C6  UNL     1      23.834   3.348  50.224  1.00  0.00    -0.034 A 
HETATM   10  C7  UNL     1      23.945   2.143  51.040  1.00  0.00    -0.046 A 
HETATM   11  C16 UNL     1      22.777   1.729  50.574  1.00  0.00    -0.058 A 
BRANCH   9  12
HETATM   12  P1  UNL     1      24.752   4.706  49.951  1.00  0.00    -0.067 P 
HETATM   13  H5  UNL     1      24.170   6.036  49.914  1.00  0.00     0.067 HD
ENDBRANCH   9  12
BRANCH  10  14
HETATM   14  C8  UNL     1      24.992   1.668  51.983  1.00  0.00     0.044 C 
BRANCH  14  15
HETATM   15  C9  UNL     1      26.323   1.421  51.324  1.00  0.00     0.043 C 
BRANCH  15  16
HETATM   16  C10 UNL     1      27.285   1.120  52.435  1.00  0.00    -0.058 A 
HETATM   17  C11 UNL     1      27.968   2.170  53.019  1.00  0.00     0.007 A 
HETATM   18  C12 UNL     1      28.853   1.892  54.040  1.00  0.00     0.001 A 
HETATM   19  C13 UNL     1      29.102   0.628  54.521  1.00  0.00     0.000 A 
HETATM   20  C14 UNL     1      28.398  -0.395  53.910  1.00  0.00     0.001 A 
HETATM   21  C15 UNL     1      27.502  -0.163  52.882  1.00  0.00     0.007 A 
ENDBRANCH  15  16
ENDBRANCH  14  15
ENDBRANCH  10  14
BRANCH  11  22
HETATM   22  C17 UNL     1      21.946   0.518  50.810  1.00  0.00     0.073 C 
BRANCH  22  23
HETATM   23  C18 UNL     1      21.782   0.170  52.223  1.00  0.00    -0.054 A 
HETATM   24  C19 UNL     1      22.519  -0.847  52.794  1.00  0.00     0.007 A 
HETATM   25  C20 UNL     1      22.348  -1.162  54.143  1.00  0.00     0.001 A 
HETATM   26  C21 UNL     1      21.424  -0.424  54.874  1.00  0.00     0.000 A 
HETATM   27  C22 UNL     1      20.669   0.608  54.312  1.00  0.00     0.001 A 
HETATM   28  C23 UNL     1      20.871   0.883  52.983  1.00  0.00     0.007 A 
ENDBRANCH  22  23
ENDBRANCH  11  22
ENDBRANCH   1   8
TORSDOF 8
ENDMDL
MODEL 7
REMARK VINA RESULT:      -7.2      2.708      5.355
REMARK  8 active torsions:
REMARK  status: ('A' for Active; 'I' for Inactive)
REMARK       I    between atoms: N1_2  and  C2_3 
REMARK    1  A    between atoms: C2_3  and  C3_5 
REMARK    2  A    between atoms: C3_5  and  C5_8 
REMARK    3  A    between atoms: C6_9  and  P1_10 
REMARK    4  A    between atoms: C7_11  and  C8_12 
REMARK    5  A    between atoms: C8_12  and  C9_13 
REMARK    6  A    between atoms: C9_13  and  C10_14 
REMARK    7  A    between atoms: C16_20  and  C17_21 
REMARK    8  A    between atoms: C17_21  and  C18_22 
ROOT
HETATM    1  C3  UNL     1      22.255   3.884  48.970  1.00  0.00     0.199 C 
HETATM    2  C4  UNL     1      21.184   3.290  48.162  1.00  0.00     0.074 C 
HETATM    3  N2  UNL     1      20.337   2.836  47.540  1.00  0.00    -0.196 NA
ENDROOT
BRANCH   1   4
HETATM    4  C2  UNL     1      21.736   4.380  50.273  1.00  0.00     0.260 C 
HETATM    5  N1  UNL     1      21.272   4.749  51.567  1.00  0.00    -0.236 NA
HETATM    6  C1  UNL     1      22.182   4.891  52.492  1.00  0.00     0.153 C 
HETATM    7  O1  UNL     1      21.551   5.313  49.447  1.00  0.00    -0.270 OA
ENDBRANCH   1   4
BRANCH   1   8
HETATM    8  C5  UNL     1      23.284   2.846  49.228  1.00  0.00     0.076 A 
HETATM    9  C6  UNL     1      24.436   3.281  50.018  1.00  0.00    -0.034 A 
HETATM   10  C7  UNL     1      24.108   2.310  51.055  1.00  0.00    -0.046 A 
HETATM   11  C16 UNL     1      23.065   1.914  50.344  1.00  0.00    -0.058 A 
BRANCH   9  12
HETATM   12  P1  UNL     1      25.612   4.431  49.772  1.00  0.00    -0.067 P 
HETATM   13  H5  UNL     1      25.657   5.244  48.569  1.00  0.00     0.067 HD
ENDBRANCH   9  12
BRANCH  10  14
HETATM   14  C8  UNL     1      24.753   1.979  52.354  1.00  0.00     0.044 C 
BRANCH  14  15
HETATM   15  C9  UNL     1      26.243   2.197  52.355  1.00  0.00     0.043 C 
BRANCH  15  16
HETATM   16  C10 UNL     1      26.858   0.854  52.614  1.00  0.00    -0.058 A 
HETATM   17  C11 UNL     1      28.105   0.802  53.208  1.00  0.00     0.007 A 
HETATM   18  C12 UNL     1      28.670  -0.434  53.445  1.00  0.00     0.001 A 
HETATM   19  C13 UNL     1      28.068  -1.629  53.128  1.00  0.00     0.000 A 
HETATM   20  C14 UNL     1      26.821  -1.534  52.536  1.00  0.00     0.001 A 
HETATM   21  C15 UNL     1      26.217  -0.317  52.278  1.00  0.00     0.007 A 
ENDBRANCH  15  16
ENDBRANCH  14  15
ENDBRANCH  10  14
BRANCH  11  22
HETATM   22  C17 UNL     1      22.007   0.888  50.552  1.00  0.00     0.073 C 
BRANCH  22  23
HETATM   23  C18 UNL     1      21.785   0.534  51.955  1.00  0.00    -0.054 A 
HETATM   24  C19 UNL     1      20.922   1.266  52.745  1.00  0.00     0.007 A 
HETATM   25  C20 UNL     1      20.724   0.911  54.080  1.00  0.00     0.001 A 
HETATM   26  C21 UNL     1      21.418  -0.189  54.573  1.00  0.00     0.000 A 
HETATM   27  C22 UNL     1      22.294  -0.941  53.788  1.00  0.00     0.001 A 
HETATM   28  C23 UNL     1      22.457  -0.556  52.482  1.00  0.00     0.007 A 
ENDBRANCH  22  23
ENDBRANCH  11  22
ENDBRANCH   1   8
TORSDOF 8
ENDMDL
MODEL 8
REMARK VINA RESULT:      -7.0      1.495      2.028
REMARK  8 active torsions:
REMARK  status: ('A' for Active; 'I' for Inactive)
REMARK       I    between atoms: N1_2  and  C2_3 
REMARK    1  A    between atoms: C2_3  and  C3_5 
REMARK    2  A    between atoms: C3_5  and  C5_8 
REMARK    3  A    between atoms: C6_9  and  P1_10 
REMARK    4  A    between atoms: C7_11  and  C8_12 
REMARK    5  A    between atoms: C8_12  and  C9_13 
REMARK    6  A    between atoms: C9_13  and  C10_14 
REMARK    7  A    between atoms: C16_20  and  C17_21 
REMARK    8  A    between atoms: C17_21  and  C18_22 
ROOT
HETATM    1  C3  UNL     1      20.800   1.780  50.128  1.00  0.00     0.199 C 
HETATM    2  C4  UNL     1      20.602   0.950  51.321  1.00  0.00     0.074 C 
HETATM    3  N2  UNL     1      20.435   0.315  52.258  1.00  0.00    -0.196 NA
ENDROOT
BRANCH   1   4
HETATM    4  C2  UNL     1      20.475   3.206  50.401  1.00  0.00     0.260 C 
HETATM    5  N1  UNL     1      20.280   4.586  50.689  1.00  0.00    -0.236 NA
HETATM    6  C1  UNL     1      20.841   5.435  49.870  1.00  0.00     0.153 C 
HETATM    7  O1  UNL     1      19.390   2.660  50.068  1.00  0.00    -0.270 OA
ENDBRANCH   1   4
BRANCH   1   8
HETATM    8  C5  UNL     1      22.223   1.684  49.716  1.00  0.00     0.076 A 
HETATM    9  C6  UNL     1      22.612   2.525  48.585  1.00  0.00    -0.034 A 
HETATM   10  C7  UNL     1      23.563   3.241  49.427  1.00  0.00    -0.046 A 
HETATM   11  C16 UNL     1      23.214   2.482  50.453  1.00  0.00    -0.058 A 
BRANCH   9  12
HETATM   12  P1  UNL     1      22.124   2.588  46.997  1.00  0.00    -0.067 P 
HETATM   13  H5  UNL     1      21.757   3.836  46.350  1.00  0.00     0.067 HD
ENDBRANCH   9  12
BRANCH  10  14
HETATM   14  C8  UNL     1      24.502   4.361  49.146  1.00  0.00     0.044 C 
BRANCH  14  15
HETATM   15  C9  UNL     1      25.908   4.093  49.613  1.00  0.00     0.043 C 
BRANCH  15  16
HETATM   16  C10 UNL     1      26.738   5.234  49.101  1.00  0.00    -0.058 A 
HETATM   17  C11 UNL     1      27.968   4.954  48.537  1.00  0.00     0.007 A 
HETATM   18  C12 UNL     1      28.730   6.004  48.068  1.00  0.00     0.001 A 
HETATM   19  C13 UNL     1      28.342   7.322  48.123  1.00  0.00     0.000 A 
HETATM   20  C14 UNL     1      27.104   7.559  48.694  1.00  0.00     0.001 A 
HETATM   21  C15 UNL     1      26.307   6.539  49.179  1.00  0.00     0.007 A 
ENDBRANCH  15  16
ENDBRANCH  14  15
ENDBRANCH  10  14
BRANCH  11  22
HETATM   22  C17 UNL     1      23.642   2.417  51.877  1.00  0.00     0.073 C 
BRANCH  22  23
HETATM   23  C18 UNL     1      24.676   1.416  52.146  1.00  0.00    -0.054 A 
HETATM   24  C19 UNL     1      25.979   1.614  51.735  1.00  0.00     0.007 A 
HETATM   25  C20 UNL     1      26.950   0.647  52.003  1.00  0.00     0.001 A 
HETATM   26  C21 UNL     1      26.560  -0.501  52.685  1.00  0.00     0.000 A 
HETATM   27  C22 UNL     1      25.246  -0.716  53.107  1.00  0.00     0.001 A 
HETATM   28  C23 UNL     1      24.326   0.261  52.823  1.00  0.00     0.007 A 
ENDBRANCH  22  23
ENDBRANCH  11  22
ENDBRANCH   1   8
TORSDOF 8
ENDMDL
MODEL 9
REMARK VINA RESULT:      -7.0      1.819      2.467
REMARK  8 active torsions:
REMARK  status: ('A' for Active; 'I' for Inactive)
REMARK       I    between atoms: N1_2  and  C2_3 
REMARK    1  A    between atoms: C2_3  and  C3_5 
REMARK    2  A    between atoms: C3_5  and  C5_8 
REMARK    3  A    between atoms: C6_9  and  P1_10 
REMARK    4  A    between atoms: C7_11  and  C8_12 
REMARK    5  A    between atoms: C8_12  and  C9_13 
REMARK    6  A    between atoms: C9_13  and  C10_14 
REMARK    7  A    between atoms: C16_20  and  C17_21 
REMARK    8  A    between atoms: C17_21  and  C18_22 
ROOT
HETATM    1  C3  UNL     1      20.910   3.464  51.618  1.00  0.00     0.199 C 
HETATM    2  C4  UNL     1      21.242   4.748  50.989  1.00  0.00     0.074 C 
HETATM    3  N2  UNL     1      21.482   5.752  50.497  1.00  0.00    -0.196 NA
ENDROOT
BRANCH   1   4
HETATM    4  C2  UNL     1      19.570   2.982  51.189  1.00  0.00     0.260 C 
HETATM    5  N1  UNL     1      18.338   2.491  50.674  1.00  0.00    -0.236 NA
HETATM    6  C1  UNL     1      18.266   1.202  50.471  1.00  0.00     0.153 C 
HETATM    7  O1  UNL     1      19.422   3.427  52.358  1.00  0.00    -0.270 OA
ENDBRANCH   1   4
BRANCH   1   8
HETATM    8  C5  UNL     1      21.930   2.463  51.216  1.00  0.00     0.076 A 
HETATM    9  C6  UNL     1      22.312   2.481  49.804  1.00  0.00    -0.034 A 
HETATM   10  C7  UNL     1      23.688   2.800  50.167  1.00  0.00    -0.046 A 
HETATM   11  C16 UNL     1      23.347   2.786  51.446  1.00  0.00    -0.058 A 
BRANCH   9  12
HETATM   12  P1  UNL     1      21.465   2.229  48.396  1.00  0.00    -0.067 P 
HETATM   13  H5  UNL     1      21.315   0.908  47.812  1.00  0.00     0.067 HD
ENDBRANCH   9  12
BRANCH  10  14
HETATM   14  C8  UNL     1      24.910   3.030  49.350  1.00  0.00     0.044 C 
BRANCH  14  15
HETATM   15  C9  UNL     1      26.022   3.701  50.112  1.00  0.00     0.043 C 
BRANCH  15  16
HETATM   16  C10 UNL     1      26.415   4.900  49.301  1.00  0.00    -0.058 A 
HETATM   17  C11 UNL     1      27.709   4.976  48.820  1.00  0.00     0.007 A 
HETATM   18  C12 UNL     1      28.069   6.080  48.075  1.00  0.00     0.001 A 
HETATM   19  C13 UNL     1      27.218   7.118  47.776  1.00  0.00     0.000 A 
HETATM   20  C14 UNL     1      25.933   7.003  48.276  1.00  0.00     0.001 A 
HETATM   21  C15 UNL     1      25.528   5.916  49.028  1.00  0.00     0.007 A 
ENDBRANCH  15  16
ENDBRANCH  14  15
ENDBRANCH  10  14
BRANCH  11  22
HETATM   22  C17 UNL     1      24.094   3.009  52.713  1.00  0.00     0.073 C 
BRANCH  22  23
HETATM   23  C18 UNL     1      24.868   1.852  53.164  1.00  0.00    -0.054 A 
HETATM   24  C19 UNL     1      24.340   0.578  53.107  1.00  0.00     0.007 A 
HETATM   25  C20 UNL     1      25.096  -0.512  53.542  1.00  0.00     0.001 A 
HETATM   26  C21 UNL     1      26.377  -0.268  54.025  1.00  0.00     0.000 A 
HETATM   27  C22 UNL     1      26.926   1.014  54.090  1.00  0.00     0.001 A 
HETATM   28  C23 UNL     1      26.148   2.055  53.652  1.00  0.00     0.007 A 
ENDBRANCH  22  23
ENDBRANCH  11  22
ENDBRANCH   1   8
TORSDOF 8
ENDMDL
