MODEL 1
REMARK VINA RESULT:      -6.7      0.000      0.000
REMARK  8 active torsions:
REMARK  status: ('A' for Active; 'I' for Inactive)
REMARK    1  A    between atoms: C2_2  and  O1_3 
REMARK    2  A    between atoms: O1_3  and  C3_4 
REMARK    3  A    between atoms: C3_4  and  O2_5 
REMARK    4  A    between atoms: C3_4  and  N1_6 
REMARK    5  A    between atoms: N1_6  and  C4_7 
REMARK    6  A    between atoms: C7_11  and  O3_12 
REMARK    7  A    between atoms: O3_12  and  C8_13 
REMARK    8  A    between atoms: C8_13  and  C9_14 
ROOT
HETATM    1  C4  UNL     1      23.958   3.235  51.193  1.00  0.00     0.267 A 
HETATM    2  C5  UNL     1      22.670   3.672  50.806  1.00  0.00     0.204 A 
HETATM    3  N2  UNL     1      22.130   2.807  51.912  1.00  0.00    -0.285 NA
HETATM    4  C6  UNL     1      23.268   2.356  52.212  1.00  0.00     0.110 A 
HETATM    5  C7  UNL     1      24.425   1.646  52.698  1.00  0.00     0.117 A 
HETATM    6  C15 UNL     1      24.996   2.424  51.716  1.00  0.00     0.094 A 
HETATM    7 CL1  UNL     1      26.687   2.429  51.183  1.00  0.00    -0.083 Cl
ENDROOT
BRANCH   5   8
HETATM    8  O3  UNL     1      24.882   0.710  53.599  1.00  0.00    -0.343 OA
BRANCH   8   9
HETATM    9  C8  UNL     1      25.364  -0.567  53.183  1.00  0.00     0.214 C 
BRANCH   9  10
HETATM   10  C9  UNL     1      26.825  -0.616  53.405  1.00  0.00    -0.031 A 
HETATM   11  C10 UNL     1      27.643  -1.588  52.926  1.00  0.00     0.009 A 
HETATM   12  C11 UNL     1      28.992  -1.621  53.139  1.00  0.00     0.004 A 
HETATM   13  C12 UNL     1      29.570  -0.622  53.877  1.00  0.00     0.042 A 
HETATM   14  C13 UNL     1      28.791   0.409  54.401  1.00  0.00     0.117 A 
HETATM   15  F1  UNL     1      29.376   1.394  55.131  1.00  0.00    -0.206 F 
HETATM   16  C14 UNL     1      27.436   0.382  54.148  1.00  0.00     0.051 A 
ENDBRANCH   9  10
ENDBRANCH   8   9
ENDBRANCH   5   8
BRANCH   1  17
HETATM   17  N1  UNL     1      24.442   4.609  52.009  1.00  0.00     0.161 N 
HETATM   18  H8  UNL     1      23.739   4.651  52.739  1.00  0.00     0.324 HD
BRANCH  17  19
HETATM   19  C3  UNL     1      24.377   5.568  50.950  1.00  0.00     0.505 C 
BRANCH  19  20
HETATM   20  O1  UNL     1      24.138   6.871  51.455  1.00  0.00    -0.338 OA
BRANCH  20  21
HETATM   21  C2  UNL     1      24.364   7.737  50.363  1.00  0.00     0.168 C 
HETATM   22  C1  UNL     1      23.065   8.230  49.763  1.00  0.00     0.033 C 
ENDBRANCH  20  21
ENDBRANCH  19  20
BRANCH  19  23
HETATM   23  O2  UNL     1      25.696   5.644  50.430  1.00  0.00    -0.348 OA
HETATM   24  H7  UNL     1      25.684   6.006  49.529  1.00  0.00     0.214 HD
ENDBRANCH  19  23
ENDBRANCH  17  19
ENDBRANCH   1  17
TORSDOF 8
ENDMDL
MODEL 2
REMARK VINA RESULT:      -6.6      1.683      2.060
REMARK  8 active torsions:
REMARK  status: ('A' for Active; 'I' for Inactive)
REMARK    1  A    between atoms: C2_2  and  O1_3 
REMARK    2  A    between atoms: O1_3  and  C3_4 
REMARK    3  A    between atoms: C3_4  and  O2_5 
REMARK    4  A    between atoms: C3_4  and  N1_6 
REMARK    5  A    between atoms: N1_6  and  C4_7 
REMARK    6  A    between atoms: C7_11  and  O3_12 
REMARK    7  A    between atoms: O3_12  and  C8_13 
REMARK    8  A    between atoms: C8_13  and  C9_14 
ROOT
HETATM    1  C4  UNL     1      24.709   3.928  49.989  1.00  0.00     0.267 A 
HETATM    2  C5  UNL     1      23.770   4.673  49.239  1.00  0.00     0.204 A 
HETATM    3  N2  UNL     1      22.870   4.605  50.442  1.00  0.00    -0.285 NA
HETATM    4  C6  UNL     1      23.671   3.876  51.088  1.00  0.00     0.110 A 
HETATM    5  C7  UNL     1      24.366   2.996  51.995  1.00  0.00     0.117 A 
HETATM    6  C15 UNL     1      25.251   3.028  50.939  1.00  0.00     0.094 A 
HETATM    7 CL1  UNL     1      26.770   2.128  50.771  1.00  0.00    -0.083 Cl
ENDROOT
BRANCH   5   8
HETATM    8  O3  UNL     1      24.327   2.378  53.225  1.00  0.00    -0.343 OA
BRANCH   8   9
HETATM    9  C8  UNL     1      24.151   0.969  53.356  1.00  0.00     0.214 C 
BRANCH   9  10
HETATM   10  C9  UNL     1      25.482   0.327  53.395  1.00  0.00    -0.031 A 
HETATM   11  C10 UNL     1      25.835  -0.758  52.658  1.00  0.00     0.009 A 
HETATM   12  C11 UNL     1      27.069  -1.341  52.703  1.00  0.00     0.004 A 
HETATM   13  C12 UNL     1      28.021  -0.812  53.535  1.00  0.00     0.042 A 
HETATM   14  C13 UNL     1      27.729   0.302  54.322  1.00  0.00     0.117 A 
HETATM   15  F1  UNL     1      28.681   0.817  55.143  1.00  0.00    -0.206 F 
HETATM   16  C14 UNL     1      26.463   0.841  54.228  1.00  0.00     0.051 A 
ENDBRANCH   9  10
ENDBRANCH   8   9
ENDBRANCH   5   8
BRANCH   1  17
HETATM   17  N1  UNL     1      25.747   5.174  50.381  1.00  0.00     0.161 N 
HETATM   18  H8  UNL     1      25.084   5.893  50.649  1.00  0.00     0.324 HD
BRANCH  17  19
HETATM   19  C3  UNL     1      26.442   5.324  49.140  1.00  0.00     0.505 C 
BRANCH  19  20
HETATM   20  O1  UNL     1      26.544   6.690  48.773  1.00  0.00    -0.338 OA
BRANCH  20  21
HETATM   21  C2  UNL     1      26.156   7.411  49.924  1.00  0.00     0.168 C 
HETATM   22  C1  UNL     1      26.869   8.742  50.016  1.00  0.00     0.033 C 
ENDBRANCH  20  21
ENDBRANCH  19  20
BRANCH  19  23
HETATM   23  O2  UNL     1      27.784   4.947  49.413  1.00  0.00    -0.348 OA
HETATM   24  H7  UNL     1      28.370   5.240  48.696  1.00  0.00     0.214 HD
ENDBRANCH  19  23
ENDBRANCH  17  19
ENDBRANCH   1  17
TORSDOF 8
ENDMDL
MODEL 3
REMARK VINA RESULT:      -6.6      3.347      7.107
REMARK  8 active torsions:
REMARK  status: ('A' for Active; 'I' for Inactive)
REMARK    1  A    between atoms: C2_2  and  O1_3 
REMARK    2  A    between atoms: O1_3  and  C3_4 
REMARK    3  A    between atoms: C3_4  and  O2_5 
REMARK    4  A    between atoms: C3_4  and  N1_6 
REMARK    5  A    between atoms: N1_6  and  C4_7 
REMARK    6  A    between atoms: C7_11  and  O3_12 
REMARK    7  A    between atoms: O3_12  and  C8_13 
REMARK    8  A    between atoms: C8_13  and  C9_14 
ROOT
HETATM    1  C4  UNL     1      25.582   1.006  52.400  1.00  0.00     0.267 A 
HETATM    2  C5  UNL     1      26.852   0.974  51.778  1.00  0.00     0.204 A 
HETATM    3  N2  UNL     1      26.658   2.436  51.482  1.00  0.00    -0.285 NA
HETATM    4  C6  UNL     1      25.493   2.452  51.967  1.00  0.00     0.110 A 
HETATM    5  C7  UNL     1      24.140   2.717  52.387  1.00  0.00     0.117 A 
HETATM    6  C15 UNL     1      24.251   1.382  52.706  1.00  0.00     0.094 A 
HETATM    7 CL1  UNL     1      22.995   0.317  53.365  1.00  0.00    -0.083 Cl
ENDROOT
BRANCH   5   8
HETATM    8  O3  UNL     1      23.152   3.673  52.487  1.00  0.00    -0.343 OA
BRANCH   8   9
HETATM    9  C8  UNL     1      22.511   4.219  51.336  1.00  0.00     0.214 C 
BRANCH   9  10
HETATM   10  C9  UNL     1      22.067   3.107  50.470  1.00  0.00    -0.031 A 
HETATM   11  C10 UNL     1      21.110   2.204  50.807  1.00  0.00     0.009 A 
HETATM   12  C11 UNL     1      20.709   1.180  49.997  1.00  0.00     0.004 A 
HETATM   13  C12 UNL     1      21.296   1.041  48.767  1.00  0.00     0.042 A 
HETATM   14  C13 UNL     1      22.288   1.931  48.353  1.00  0.00     0.117 A 
HETATM   15  F1  UNL     1      22.862   1.783  47.132  1.00  0.00    -0.206 F 
HETATM   16  C14 UNL     1      22.645   2.942  49.221  1.00  0.00     0.051 A 
ENDBRANCH   9  10
ENDBRANCH   8   9
ENDBRANCH   5   8
BRANCH   1  17
HETATM   17  N1  UNL     1      26.092   1.022  53.989  1.00  0.00     0.161 N 
HETATM   18  H8  UNL     1      26.612   1.892  54.010  1.00  0.00     0.324 HD
BRANCH  17  19
HETATM   19  C3  UNL     1      26.825  -0.206  54.031  1.00  0.00     0.505 C 
BRANCH  19  20
HETATM   20  O1  UNL     1      27.751  -0.212  55.105  1.00  0.00    -0.338 OA
BRANCH  20  21
HETATM   21  C2  UNL     1      28.980   0.186  54.533  1.00  0.00     0.168 C 
HETATM   22  C1  UNL     1      29.578  -0.909  53.678  1.00  0.00     0.033 C 
ENDBRANCH  20  21
ENDBRANCH  19  20
BRANCH  19  23
HETATM   23  O2  UNL     1      25.876  -1.198  54.398  1.00  0.00    -0.348 OA
HETATM   24  H7  UNL     1      25.768  -1.220  55.364  1.00  0.00     0.214 HD
ENDBRANCH  19  23
ENDBRANCH  17  19
ENDBRANCH   1  17
TORSDOF 8
ENDMDL
MODEL 4
REMARK VINA RESULT:      -6.5      2.234      2.764
REMARK  8 active torsions:
REMARK  status: ('A' for Active; 'I' for Inactive)
REMARK    1  A    between atoms: C2_2  and  O1_3 
REMARK    2  A    between atoms: O1_3  and  C3_4 
REMARK    3  A    between atoms: C3_4  and  O2_5 
REMARK    4  A    between atoms: C3_4  and  N1_6 
REMARK    5  A    between atoms: N1_6  and  C4_7 
REMARK    6  A    between atoms: C7_11  and  O3_12 
REMARK    7  A    between atoms: O3_12  and  C8_13 
REMARK    8  A    between atoms: C8_13  and  C9_14 
ROOT
HETATM    1  C4  UNL     1      25.342   5.550  49.371  1.00  0.00     0.267 A 
HETATM    2  C5  UNL     1      24.028   6.068  49.431  1.00  0.00     0.204 A 
HETATM    3  N2  UNL     1      23.694   4.906  50.327  1.00  0.00    -0.285 NA
HETATM    4  C6  UNL     1      24.843   4.398  50.215  1.00  0.00     0.110 A 
HETATM    5  C7  UNL     1      26.036   3.588  50.195  1.00  0.00     0.117 A 
HETATM    6  C15 UNL     1      26.421   4.631  49.382  1.00  0.00     0.094 A 
HETATM    7 CL1  UNL     1      27.951   4.814  48.505  1.00  0.00    -0.083 Cl
ENDROOT
BRANCH   5   8
HETATM    8  O3  UNL     1      26.625   2.431  50.653  1.00  0.00    -0.343 OA
BRANCH   8   9
HETATM    9  C8  UNL     1      26.046   1.650  51.697  1.00  0.00     0.214 C 
BRANCH   9  10
HETATM   10  C9  UNL     1      27.133   1.093  52.529  1.00  0.00    -0.031 A 
HETATM   11  C10 UNL     1      27.407  -0.231  52.652  1.00  0.00     0.009 A 
HETATM   12  C11 UNL     1      28.415  -0.732  53.425  1.00  0.00     0.004 A 
HETATM   13  C12 UNL     1      29.207   0.139  54.126  1.00  0.00     0.042 A 
HETATM   14  C13 UNL     1      28.984   1.514  54.049  1.00  0.00     0.117 A 
HETATM   15  F1  UNL     1      29.775   2.367  54.748  1.00  0.00    -0.206 F 
HETATM   16  C14 UNL     1      27.949   1.952  53.249  1.00  0.00     0.051 A 
ENDBRANCH   9  10
ENDBRANCH   8   9
ENDBRANCH   5   8
BRANCH   1  17
HETATM   17  N1  UNL     1      26.071   6.621  50.422  1.00  0.00     0.161 N 
HETATM   18  H8  UNL     1      25.336   6.739  51.110  1.00  0.00     0.324 HD
BRANCH  17  19
HETATM   19  C3  UNL     1      26.342   7.706  49.529  1.00  0.00     0.505 C 
BRANCH  19  20
HETATM   20  O1  UNL     1      25.790   8.918  50.016  1.00  0.00    -0.338 OA
BRANCH  20  21
HETATM   21  C2  UNL     1      25.655   9.745  48.879  1.00  0.00     0.168 C 
HETATM   22  C1  UNL     1      24.307   9.567  48.215  1.00  0.00     0.033 C 
ENDBRANCH  20  21
ENDBRANCH  19  20
BRANCH  19  23
HETATM   23  O2  UNL     1      27.744   7.918  49.610  1.00  0.00    -0.348 OA
HETATM   24  H7  UNL     1      28.206   7.383  48.943  1.00  0.00     0.214 HD
ENDBRANCH  19  23
ENDBRANCH  17  19
ENDBRANCH   1  17
TORSDOF 8
ENDMDL
MODEL 5
REMARK VINA RESULT:      -6.5      4.246      7.454
REMARK  8 active torsions:
REMARK  status: ('A' for Active; 'I' for Inactive)
REMARK    1  A    between atoms: C2_2  and  O1_3 
REMARK    2  A    between atoms: O1_3  and  C3_4 
REMARK    3  A    between atoms: C3_4  and  O2_5 
REMARK    4  A    between atoms: C3_4  and  N1_6 
REMARK    5  A    between atoms: N1_6  and  C4_7 
REMARK    6  A    between atoms: C7_11  and  O3_12 
REMARK    7  A    between atoms: O3_12  and  C8_13 
REMARK    8  A    between atoms: C8_13  and  C9_14 
ROOT
HETATM    1  C4  UNL     1      25.625   0.901  52.540  1.00  0.00     0.267 A 
HETATM    2  C5  UNL     1      26.756   1.318  51.799  1.00  0.00     0.204 A 
HETATM    3  N2  UNL     1      25.932   2.493  51.351  1.00  0.00    -0.285 NA
HETATM    4  C6  UNL     1      24.897   2.086  51.947  1.00  0.00     0.110 A 
HETATM    5  C7  UNL     1      23.582   1.811  52.468  1.00  0.00     0.117 A 
HETATM    6  C15 UNL     1      24.277   0.716  52.934  1.00  0.00     0.094 A 
HETATM    7 CL1  UNL     1      23.639  -0.667  53.842  1.00  0.00    -0.083 Cl
ENDROOT
BRANCH   5   8
HETATM    8  O3  UNL     1      22.281   2.257  52.553  1.00  0.00    -0.343 OA
BRANCH   8   9
HETATM    9  C8  UNL     1      21.358   2.104  51.477  1.00  0.00     0.214 C 
BRANCH   9  10
HETATM   10  C9  UNL     1      20.348   1.096  51.861  1.00  0.00    -0.031 A 
HETATM   11  C10 UNL     1      20.321   0.450  53.055  1.00  0.00     0.009 A 
HETATM   12  C11 UNL     1      19.382  -0.481  53.397  1.00  0.00     0.004 A 
HETATM   13  C12 UNL     1      18.400  -0.792  52.494  1.00  0.00     0.042 A 
HETATM   14  C13 UNL     1      18.365  -0.169  51.246  1.00  0.00     0.117 A 
HETATM   15  F1  UNL     1      17.387  -0.487  50.360  1.00  0.00    -0.206 F 
HETATM   16  C14 UNL     1      19.344   0.761  50.966  1.00  0.00     0.051 A 
ENDBRANCH   9  10
ENDBRANCH   8   9
ENDBRANCH   5   8
BRANCH   1  17
HETATM   17  N1  UNL     1      26.141   1.376  54.054  1.00  0.00     0.161 N 
HETATM   18  H8  UNL     1      26.445   2.323  53.860  1.00  0.00     0.324 HD
BRANCH  17  19
HETATM   19  C3  UNL     1      27.139   0.382  54.305  1.00  0.00     0.505 C 
BRANCH  19  20
HETATM   20  O1  UNL     1      28.264   0.942  54.961  1.00  0.00    -0.338 OA
BRANCH  20  21
HETATM   21  C2  UNL     1      29.326   0.824  54.038  1.00  0.00     0.168 C 
HETATM   22  C1  UNL     1      29.659  -0.624  53.752  1.00  0.00     0.033 C 
ENDBRANCH  20  21
ENDBRANCH  19  20
BRANCH  19  23
HETATM   23  O2  UNL     1      26.573  -0.481  55.280  1.00  0.00    -0.348 OA
HETATM   24  H7  UNL     1      27.181  -1.214  55.476  1.00  0.00     0.214 HD
ENDBRANCH  19  23
ENDBRANCH  17  19
ENDBRANCH   1  17
TORSDOF 8
ENDMDL
MODEL 6
REMARK VINA RESULT:      -6.5      2.908      6.539
REMARK  8 active torsions:
REMARK  status: ('A' for Active; 'I' for Inactive)
REMARK    1  A    between atoms: C2_2  and  O1_3 
REMARK    2  A    between atoms: O1_3  and  C3_4 
REMARK    3  A    between atoms: C3_4  and  O2_5 
REMARK    4  A    between atoms: C3_4  and  N1_6 
REMARK    5  A    between atoms: N1_6  and  C4_7 
REMARK    6  A    between atoms: C7_11  and  O3_12 
REMARK    7  A    between atoms: O3_12  and  C8_13 
REMARK    8  A    between atoms: C8_13  and  C9_14 
ROOT
HETATM    1  C4  UNL     1      23.988   0.491  53.726  1.00  0.00     0.267 A 
HETATM    2  C5  UNL     1      23.746  -0.801  54.249  1.00  0.00     0.204 A 
HETATM    3  N2  UNL     1      22.815  -1.013  53.087  1.00  0.00    -0.285 NA
HETATM    4  C6  UNL     1      22.968   0.164  52.658  1.00  0.00     0.110 A 
HETATM    5  C7  UNL     1      22.915   1.452  52.014  1.00  0.00     0.117 A 
HETATM    6  C15 UNL     1      23.793   1.716  53.042  1.00  0.00     0.094 A 
HETATM    7 CL1  UNL     1      24.542   3.269  53.456  1.00  0.00    -0.083 Cl
ENDROOT
BRANCH   5   8
HETATM    8  O3  UNL     1      22.369   2.178  50.978  1.00  0.00    -0.343 OA
BRANCH   8   9
HETATM    9  C8  UNL     1      23.022   2.305  49.717  1.00  0.00     0.214 C 
BRANCH   9  10
HETATM   10  C9  UNL     1      23.913   3.484  49.763  1.00  0.00    -0.031 A 
HETATM   11  C10 UNL     1      23.540   4.712  50.205  1.00  0.00     0.009 A 
HETATM   12  C11 UNL     1      24.374   5.794  50.242  1.00  0.00     0.004 A 
HETATM   13  C12 UNL     1      25.666   5.648  49.811  1.00  0.00     0.042 A 
HETATM   14  C13 UNL     1      26.119   4.415  49.342  1.00  0.00     0.117 A 
HETATM   15  F1  UNL     1      27.402   4.283  48.918  1.00  0.00    -0.206 F 
HETATM   16  C14 UNL     1      25.225   3.364  49.333  1.00  0.00     0.051 A 
ENDBRANCH   9  10
ENDBRANCH   8   9
ENDBRANCH   5   8
BRANCH   1  17
HETATM   17  N1  UNL     1      25.486   0.200  53.050  1.00  0.00     0.161 N 
HETATM   18  H8  UNL     1      25.255  -0.538  52.393  1.00  0.00     0.324 HD
BRANCH  17  19
HETATM   19  C3  UNL     1      26.229  -0.147  54.222  1.00  0.00     0.505 C 
BRANCH  19  20
HETATM   20  O1  UNL     1      27.356  -0.943  53.895  1.00  0.00    -0.338 OA
BRANCH  20  21
HETATM   21  C2  UNL     1      28.477  -0.143  54.209  1.00  0.00     0.168 C 
HETATM   22  C1  UNL     1      29.751  -0.713  53.628  1.00  0.00     0.033 C 
ENDBRANCH  20  21
ENDBRANCH  19  20
BRANCH  19  23
HETATM   23  O2  UNL     1      26.798   1.071  54.680  1.00  0.00    -0.348 OA
HETATM   24  H7  UNL     1      27.645   1.238  54.234  1.00  0.00     0.214 HD
ENDBRANCH  19  23
ENDBRANCH  17  19
ENDBRANCH   1  17
TORSDOF 8
ENDMDL
MODEL 7
REMARK VINA RESULT:      -6.5      2.711      4.127
REMARK  8 active torsions:
REMARK  status: ('A' for Active; 'I' for Inactive)
REMARK    1  A    between atoms: C2_2  and  O1_3 
REMARK    2  A    between atoms: O1_3  and  C3_4 
REMARK    3  A    between atoms: C3_4  and  O2_5 
REMARK    4  A    between atoms: C3_4  and  N1_6 
REMARK    5  A    between atoms: N1_6  and  C4_7 
REMARK    6  A    between atoms: C7_11  and  O3_12 
REMARK    7  A    between atoms: O3_12  and  C8_13 
REMARK    8  A    between atoms: C8_13  and  C9_14 
ROOT
HETATM    1  C4  UNL     1      24.901   6.976  49.884  1.00  0.00     0.267 A 
HETATM    2  C5  UNL     1      24.207   8.200  49.743  1.00  0.00     0.204 A 
HETATM    3  N2  UNL     1      23.270   7.703  50.810  1.00  0.00    -0.285 NA
HETATM    4  C6  UNL     1      23.838   6.579  50.885  1.00  0.00     0.110 A 
HETATM    5  C7  UNL     1      24.256   5.218  51.111  1.00  0.00     0.117 A 
HETATM    6  C15 UNL     1      25.164   5.610  50.151  1.00  0.00     0.094 A 
HETATM    7 CL1  UNL     1      26.419   4.622  49.380  1.00  0.00    -0.083 Cl
ENDROOT
BRANCH   5   8
HETATM    8  O3  UNL     1      24.015   4.063  51.821  1.00  0.00    -0.343 OA
BRANCH   8   9
HETATM    9  C8  UNL     1      23.714   2.828  51.174  1.00  0.00     0.214 C 
BRANCH   9  10
HETATM   10  C9  UNL     1      24.557   1.767  51.765  1.00  0.00    -0.031 A 
HETATM   11  C10 UNL     1      25.872   1.582  51.480  1.00  0.00     0.009 A 
HETATM   12  C11 UNL     1      26.640   0.598  52.034  1.00  0.00     0.004 A 
HETATM   13  C12 UNL     1      26.066  -0.263  52.932  1.00  0.00     0.042 A 
HETATM   14  C13 UNL     1      24.720  -0.134  53.272  1.00  0.00     0.117 A 
HETATM   15  F1  UNL     1      24.163  -0.993  54.163  1.00  0.00    -0.206 F 
HETATM   16  C14 UNL     1      24.002   0.883  52.676  1.00  0.00     0.051 A 
ENDBRANCH   9  10
ENDBRANCH   8   9
ENDBRANCH   5   8
BRANCH   1  17
HETATM   17  N1  UNL     1      26.198   7.535  50.773  1.00  0.00     0.161 N 
HETATM   18  H8  UNL     1      25.717   7.988  51.543  1.00  0.00     0.324 HD
BRANCH  17  19
HETATM   19  C3  UNL     1      26.836   8.362  49.795  1.00  0.00     0.505 C 
BRANCH  19  20
HETATM   20  O1  UNL     1      27.316   9.563  50.376  1.00  0.00    -0.338 OA
BRANCH  20  21
HETATM   21  C2  UNL     1      27.770  10.343  49.289  1.00  0.00     0.168 C 
HETATM   22  C1  UNL     1      26.619  10.871  48.461  1.00  0.00     0.033 C 
ENDBRANCH  20  21
ENDBRANCH  19  20
BRANCH  19  23
HETATM   23  O2  UNL     1      28.020   7.667  49.430  1.00  0.00    -0.348 OA
HETATM   24  H7  UNL     1      28.102   7.624  48.463  1.00  0.00     0.214 HD
ENDBRANCH  19  23
ENDBRANCH  17  19
ENDBRANCH   1  17
TORSDOF 8
ENDMDL
MODEL 8
REMARK VINA RESULT:      -6.5      2.653      4.163
REMARK  8 active torsions:
REMARK  status: ('A' for Active; 'I' for Inactive)
REMARK    1  A    between atoms: C2_2  and  O1_3 
REMARK    2  A    between atoms: O1_3  and  C3_4 
REMARK    3  A    between atoms: C3_4  and  O2_5 
REMARK    4  A    between atoms: C3_4  and  N1_6 
REMARK    5  A    between atoms: N1_6  and  C4_7 
REMARK    6  A    between atoms: C7_11  and  O3_12 
REMARK    7  A    between atoms: O3_12  and  C8_13 
REMARK    8  A    between atoms: C8_13  and  C9_14 
ROOT
HETATM    1  C4  UNL     1      24.883   6.996  49.879  1.00  0.00     0.267 A 
HETATM    2  C5  UNL     1      24.188   8.222  49.753  1.00  0.00     0.204 A 
HETATM    3  N2  UNL     1      23.252   7.711  50.814  1.00  0.00    -0.285 NA
HETATM    4  C6  UNL     1      23.822   6.587  50.876  1.00  0.00     0.110 A 
HETATM    5  C7  UNL     1      24.241   5.224  51.085  1.00  0.00     0.117 A 
HETATM    6  C15 UNL     1      25.147   5.627  50.130  1.00  0.00     0.094 A 
HETATM    7 CL1  UNL     1      26.402   4.650  49.345  1.00  0.00    -0.083 Cl
ENDROOT
BRANCH   5   8
HETATM    8  O3  UNL     1      24.000   4.060  51.782  1.00  0.00    -0.343 OA
BRANCH   8   9
HETATM    9  C8  UNL     1      23.574   2.865  51.131  1.00  0.00     0.214 C 
BRANCH   9  10
HETATM   10  C9  UNL     1      24.105   1.705  51.877  1.00  0.00    -0.031 A 
HETATM   11  C10 UNL     1      23.375   0.937  52.727  1.00  0.00     0.009 A 
HETATM   12  C11 UNL     1      23.879  -0.133  53.410  1.00  0.00     0.004 A 
HETATM   13  C12 UNL     1      25.198  -0.465  53.240  1.00  0.00     0.042 A 
HETATM   14  C13 UNL     1      26.008   0.279  52.383  1.00  0.00     0.117 A 
HETATM   15  F1  UNL     1      27.313  -0.061  52.224  1.00  0.00    -0.206 F 
HETATM   16  C14 UNL     1      25.435   1.347  51.724  1.00  0.00     0.051 A 
ENDBRANCH   9  10
ENDBRANCH   8   9
ENDBRANCH   5   8
BRANCH   1  17
HETATM   17  N1  UNL     1      26.180   7.546  50.773  1.00  0.00     0.161 N 
HETATM   18  H8  UNL     1      25.700   8.004  51.540  1.00  0.00     0.324 HD
BRANCH  17  19
HETATM   19  C3  UNL     1      26.831   8.365  49.797  1.00  0.00     0.505 C 
BRANCH  19  20
HETATM   20  O1  UNL     1      27.313   9.566  50.378  1.00  0.00    -0.338 OA
BRANCH  20  21
HETATM   21  C2  UNL     1      27.746  10.354  49.288  1.00  0.00     0.168 C 
HETATM   22  C1  UNL     1      26.583  10.839  48.452  1.00  0.00     0.033 C 
ENDBRANCH  20  21
ENDBRANCH  19  20
BRANCH  19  23
HETATM   23  O2  UNL     1      28.013   7.662  49.445  1.00  0.00    -0.348 OA
HETATM   24  H7  UNL     1      28.780   8.035  49.911  1.00  0.00     0.214 HD
ENDBRANCH  19  23
ENDBRANCH  17  19
ENDBRANCH   1  17
TORSDOF 8
ENDMDL
MODEL 9
REMARK VINA RESULT:      -6.4      2.977      7.030
REMARK  8 active torsions:
REMARK  status: ('A' for Active; 'I' for Inactive)
REMARK    1  A    between atoms: C2_2  and  O1_3 
REMARK    2  A    between atoms: O1_3  and  C3_4 
REMARK    3  A    between atoms: C3_4  and  O2_5 
REMARK    4  A    between atoms: C3_4  and  N1_6 
REMARK    5  A    between atoms: N1_6  and  C4_7 
REMARK    6  A    between atoms: C7_11  and  O3_12 
REMARK    7  A    between atoms: O3_12  and  C8_13 
REMARK    8  A    between atoms: C8_13  and  C9_14 
ROOT
HETATM    1  C4  UNL     1      25.586   1.111  52.314  1.00  0.00     0.267 A 
HETATM    2  C5  UNL     1      26.823   0.704  51.763  1.00  0.00     0.204 A 
HETATM    3  N2  UNL     1      27.012   2.132  51.331  1.00  0.00    -0.285 NA
HETATM    4  C6  UNL     1      25.877   2.485  51.753  1.00  0.00     0.110 A 
HETATM    5  C7  UNL     1      24.623   3.118  52.079  1.00  0.00     0.117 A 
HETATM    6  C15 UNL     1      24.385   1.834  52.519  1.00  0.00     0.094 A 
HETATM    7 CL1  UNL     1      22.884   1.185  53.204  1.00  0.00    -0.083 Cl
ENDROOT
BRANCH   5   8
HETATM    8  O3  UNL     1      23.907   4.294  52.046  1.00  0.00    -0.343 OA
BRANCH   8   9
HETATM    9  C8  UNL     1      23.472   4.878  50.820  1.00  0.00     0.214 C 
BRANCH   9  10
HETATM   10  C9  UNL     1      24.618   5.572  50.195  1.00  0.00    -0.031 A 
HETATM   11  C10 UNL     1      25.390   5.046  49.209  1.00  0.00     0.009 A 
HETATM   12  C11 UNL     1      26.446   5.698  48.639  1.00  0.00     0.004 A 
HETATM   13  C12 UNL     1      26.759   6.959  49.076  1.00  0.00     0.042 A 
HETATM   14  C13 UNL     1      26.010   7.562  50.086  1.00  0.00     0.117 A 
HETATM   15  F1  UNL     1      26.330   8.811  50.510  1.00  0.00    -0.206 F 
HETATM   16  C14 UNL     1      24.956   6.847  50.617  1.00  0.00     0.051 A 
ENDBRANCH   9  10
ENDBRANCH   8   9
ENDBRANCH   5   8
BRANCH   1  17
HETATM   17  N1  UNL     1      26.040   1.153  53.920  1.00  0.00     0.161 N 
HETATM   18  H8  UNL     1      26.639   1.971  53.924  1.00  0.00     0.324 HD
BRANCH  17  19
HETATM   19  C3  UNL     1      26.652  -0.134  54.043  1.00  0.00     0.505 C 
BRANCH  19  20
HETATM   20  O1  UNL     1      27.514  -0.184  55.168  1.00  0.00    -0.338 OA
BRANCH  20  21
HETATM   21  C2  UNL     1      28.758   0.292  54.700  1.00  0.00     0.168 C 
HETATM   22  C1  UNL     1      29.473  -0.744  53.862  1.00  0.00     0.033 C 
ENDBRANCH  20  21
ENDBRANCH  19  20
BRANCH  19  23
HETATM   23  O2  UNL     1      25.596  -1.020  54.387  1.00  0.00    -0.348 OA
HETATM   24  H7  UNL     1      25.951  -1.895  54.617  1.00  0.00     0.214 HD
ENDBRANCH  19  23
ENDBRANCH  17  19
ENDBRANCH   1  17
TORSDOF 8
ENDMDL
