MODEL 1
REMARK VINA RESULT:      -8.8      0.000      0.000
REMARK  5 active torsions:
REMARK  status: ('A' for Active; 'I' for Inactive)
REMARK    1  A    between atoms: C4_5  and  N1_6 
REMARK    2  A    between atoms: N1_6  and  C5_7 
REMARK    3  A    between atoms: C9_13  and  O1_14 
REMARK    4  A    between atoms: O1_14  and  C10_15 
REMARK    5  A    between atoms: C10_15  and  C11_16 
ROOT
HETATM    1  C5  UNL     1      23.516  -0.133  53.464  1.00  0.00     0.142 A 
HETATM    2  N2  UNL     1      23.808  -0.781  54.603  1.00  0.00    -0.223 NA
HETATM    3  C6  UNL     1      22.896  -1.401  55.353  1.00  0.00     0.236 A 
HETATM    4  N3  UNL     1      21.624  -1.355  54.923  1.00  0.00    -0.241 NA
HETATM    5  C7  UNL     1      21.282  -0.722  53.797  1.00  0.00     0.075 A 
HETATM    6  C8  UNL     1      19.965  -0.736  53.449  1.00  0.00     0.072 A 
HETATM    7  C9  UNL     1      19.604  -0.085  52.288  1.00  0.00     0.105 A 
HETATM    8  C15 UNL     1      20.592   0.548  51.534  1.00  0.00     0.109 A 
HETATM    9  C16 UNL     1      21.929   0.575  51.864  1.00  0.00    -0.004 A 
HETATM   10  C17 UNL     1      22.230  -0.084  53.024  1.00  0.00     0.048 A 
HETATM   11  C18 UNL     1      22.659   1.334  50.827  1.00  0.00     0.069 A 
HETATM   12  C19 UNL     1      21.566   1.743  49.871  1.00  0.00     0.180 A 
HETATM   13  O3  UNL     1      20.377   1.224  50.372  1.00  0.00    -0.347 OA
ENDROOT
BRANCH   1  14
HETATM   14  N1  UNL     1      24.602   0.472  52.784  1.00  0.00    -0.340 N 
HETATM   15  H3  UNL     1      24.856   1.223  52.129  1.00  0.00     0.167 HD
BRANCH  14  16
HETATM   16  C4  UNL     1      25.936  -0.037  52.975  1.00  0.00     0.035 A 
HETATM   17  C3  UNL     1      26.464  -1.284  52.635  1.00  0.00     0.032 A 
HETATM   18  C2  UNL     1      27.756  -1.693  52.832  1.00  0.00     0.046 A 
HETATM   19  C1  UNL     1      28.628  -0.803  53.420  1.00  0.00     0.138 A 
HETATM   20  F1  UNL     1      29.896  -1.241  53.600  1.00  0.00    -0.204 F 
HETATM   21  C21 UNL     1      28.183   0.451  53.786  1.00  0.00     0.074 A 
HETATM   22  C20 UNL     1      26.871   0.809  53.563  1.00  0.00     0.056 A 
HETATM   23 CL1  UNL     1      29.413   1.457  54.519  1.00  0.00    -0.081 Cl
ENDBRANCH  14  16
ENDBRANCH   1  14
BRANCH   7  24
HETATM   24  O1  UNL     1      18.267  -0.093  51.922  1.00  0.00    -0.346 OA
BRANCH  24  25
HETATM   25  C10 UNL     1      17.353  -0.828  52.704  1.00  0.00     0.207 C 
BRANCH  25  26
HETATM   26  C11 UNL     1      16.048  -0.944  51.933  1.00  0.00     0.145 C 
HETATM   27  C12 UNL     1      15.896   0.324  51.119  1.00  0.00     0.036 C 
HETATM   28  C13 UNL     1      15.105   1.196  52.036  1.00  0.00     0.029 C 
HETATM   29  C14 UNL     1      14.539   0.261  53.052  1.00  0.00     0.168 C 
HETATM   30  O2  UNL     1      14.964  -1.013  52.768  1.00  0.00    -0.384 OA
ENDBRANCH  25  26
ENDBRANCH  24  25
ENDBRANCH   7  24
TORSDOF 5
ENDMDL
MODEL 2
REMARK VINA RESULT:      -8.8      2.291      3.682
REMARK  5 active torsions:
REMARK  status: ('A' for Active; 'I' for Inactive)
REMARK    1  A    between atoms: C4_5  and  N1_6 
REMARK    2  A    between atoms: N1_6  and  C5_7 
REMARK    3  A    between atoms: C9_13  and  O1_14 
REMARK    4  A    between atoms: O1_14  and  C10_15 
REMARK    5  A    between atoms: C10_15  and  C11_16 
ROOT
HETATM    1  C5  UNL     1      25.026   1.827  52.380  1.00  0.00     0.142 A 
HETATM    2  N2  UNL     1      25.808   2.682  51.702  1.00  0.00    -0.223 NA
HETATM    3  C6  UNL     1      25.448   3.259  50.555  1.00  0.00     0.236 A 
HETATM    4  N3  UNL     1      24.232   2.948  50.075  1.00  0.00    -0.241 NA
HETATM    5  C7  UNL     1      23.416   2.103  50.712  1.00  0.00     0.075 A 
HETATM    6  C8  UNL     1      22.204   1.857  50.142  1.00  0.00     0.072 A 
HETATM    7  C9  UNL     1      21.356   0.986  50.794  1.00  0.00     0.105 A 
HETATM    8  C15 UNL     1      21.775   0.406  51.992  1.00  0.00     0.109 A 
HETATM    9  C16 UNL     1      22.995   0.640  52.588  1.00  0.00    -0.004 A 
HETATM   10  C17 UNL     1      23.794   1.510  51.900  1.00  0.00     0.048 A 
HETATM   11  C18 UNL     1      23.071  -0.146  53.837  1.00  0.00     0.069 A 
HETATM   12  C19 UNL     1      21.744  -0.864  53.870  1.00  0.00     0.180 A 
HETATM   13  O3  UNL     1      21.043  -0.467  52.737  1.00  0.00    -0.347 OA
ENDROOT
BRANCH   1  14
HETATM   14  N1  UNL     1      25.558   1.303  53.584  1.00  0.00    -0.340 N 
HETATM   15  H3  UNL     1      25.343   1.111  54.571  1.00  0.00     0.167 HD
BRANCH  14  16
HETATM   16  C4  UNL     1      26.906   0.796  53.607  1.00  0.00     0.035 A 
HETATM   17  C3  UNL     1      28.097   1.462  53.903  1.00  0.00     0.032 A 
HETATM   18  C2  UNL     1      29.348   0.906  53.923  1.00  0.00     0.046 A 
HETATM   19  C1  UNL     1      29.459  -0.434  53.626  1.00  0.00     0.138 A 
HETATM   20  F1  UNL     1      30.710  -0.950  53.654  1.00  0.00    -0.204 F 
HETATM   21  C21 UNL     1      28.328  -1.164  53.322  1.00  0.00     0.074 A 
HETATM   22  C20 UNL     1      27.094  -0.552  53.317  1.00  0.00     0.056 A 
HETATM   23 CL1  UNL     1      28.641  -2.849  52.968  1.00  0.00    -0.081 Cl
ENDBRANCH  14  16
ENDBRANCH   1  14
BRANCH   7  24
HETATM   24  O1  UNL     1      20.119   0.727  50.225  1.00  0.00    -0.346 OA
BRANCH  24  25
HETATM   25  C10 UNL     1      19.177   1.772  50.144  1.00  0.00     0.207 C 
BRANCH  25  26
HETATM   26  C11 UNL     1      18.544   1.953  51.514  1.00  0.00     0.145 C 
HETATM   27  C12 UNL     1      17.089   1.553  51.389  1.00  0.00     0.036 C 
HETATM   28  C13 UNL     1      16.428   2.854  51.076  1.00  0.00     0.029 C 
HETATM   29  C14 UNL     1      17.435   3.889  51.452  1.00  0.00     0.168 C 
HETATM   30  O2  UNL     1      18.563   3.262  51.920  1.00  0.00    -0.384 OA
ENDBRANCH  25  26
ENDBRANCH  24  25
ENDBRANCH   7  24
TORSDOF 5
ENDMDL
MODEL 3
REMARK VINA RESULT:      -8.7      2.392      3.900
REMARK  5 active torsions:
REMARK  status: ('A' for Active; 'I' for Inactive)
REMARK    1  A    between atoms: C4_5  and  N1_6 
REMARK    2  A    between atoms: N1_6  and  C5_7 
REMARK    3  A    between atoms: C9_13  and  O1_14 
REMARK    4  A    between atoms: O1_14  and  C10_15 
REMARK    5  A    between atoms: C10_15  and  C11_16 
ROOT
HETATM    1  C5  UNL     1      25.280   2.371  51.976  1.00  0.00     0.142 A 
HETATM    2  N2  UNL     1      26.081   3.195  51.282  1.00  0.00    -0.223 NA
HETATM    3  C6  UNL     1      25.788   3.657  50.066  1.00  0.00     0.236 A 
HETATM    4  N3  UNL     1      24.623   3.256  49.529  1.00  0.00    -0.241 NA
HETATM    5  C7  UNL     1      23.792   2.435  50.178  1.00  0.00     0.075 A 
HETATM    6  C8  UNL     1      22.636   2.091  49.547  1.00  0.00     0.072 A 
HETATM    7  C9  UNL     1      21.772   1.245  50.211  1.00  0.00     0.105 A 
HETATM    8  C15 UNL     1      22.119   0.788  51.482  1.00  0.00     0.109 A 
HETATM    9  C16 UNL     1      23.282   1.123  52.142  1.00  0.00    -0.004 A 
HETATM   10  C17 UNL     1      24.100   1.963  51.438  1.00  0.00     0.048 A 
HETATM   11  C18 UNL     1      23.291   0.451  53.458  1.00  0.00     0.069 A 
HETATM   12  C19 UNL     1      21.992  -0.317  53.459  1.00  0.00     0.180 A 
HETATM   13  O3  UNL     1      21.364  -0.047  52.247  1.00  0.00    -0.347 OA
ENDROOT
BRANCH   1  14
HETATM   14  N1  UNL     1      25.738   1.974  53.257  1.00  0.00    -0.340 N 
HETATM   15  H3  UNL     1      25.519   2.001  54.261  1.00  0.00     0.167 HD
BRANCH  14  16
HETATM   16  C4  UNL     1      26.968   1.234  53.377  1.00  0.00     0.035 A 
HETATM   17  C3  UNL     1      28.229   1.673  53.785  1.00  0.00     0.032 A 
HETATM   18  C2  UNL     1      29.355   0.902  53.893  1.00  0.00     0.046 A 
HETATM   19  C1  UNL     1      29.251  -0.433  53.573  1.00  0.00     0.138 A 
HETATM   20  F1  UNL     1      30.384  -1.165  53.690  1.00  0.00    -0.204 F 
HETATM   21  C21 UNL     1      28.038  -0.947  53.160  1.00  0.00     0.074 A 
HETATM   22  C20 UNL     1      26.937  -0.123  53.070  1.00  0.00     0.056 A 
HETATM   23 CL1  UNL     1      28.076  -2.657  52.792  1.00  0.00    -0.081 Cl
ENDBRANCH  14  16
ENDBRANCH   1  14
BRANCH   7  24
HETATM   24  O1  UNL     1      20.591   0.887  49.579  1.00  0.00    -0.346 OA
BRANCH  24  25
HETATM   25  C10 UNL     1      19.558   1.841  49.481  1.00  0.00     0.207 C 
BRANCH  25  26
HETATM   26  C11 UNL     1      18.606   1.637  50.649  1.00  0.00     0.145 C 
HETATM   27  C12 UNL     1      18.239   0.168  50.674  1.00  0.00     0.036 C 
HETATM   28  C13 UNL     1      16.996   0.139  49.848  1.00  0.00     0.029 C 
HETATM   29  C14 UNL     1      16.549   1.561  49.787  1.00  0.00     0.168 C 
HETATM   30  O2  UNL     1      17.439   2.337  50.488  1.00  0.00    -0.384 OA
ENDBRANCH  25  26
ENDBRANCH  24  25
ENDBRANCH   7  24
TORSDOF 5
ENDMDL
MODEL 4
REMARK VINA RESULT:      -8.4      6.139      8.995
REMARK  5 active torsions:
REMARK  status: ('A' for Active; 'I' for Inactive)
REMARK    1  A    between atoms: C4_5  and  N1_6 
REMARK    2  A    between atoms: N1_6  and  C5_7 
REMARK    3  A    between atoms: C9_13  and  O1_14 
REMARK    4  A    between atoms: O1_14  and  C10_15 
REMARK    5  A    between atoms: C10_15  and  C11_16 
ROOT
HETATM    1  C5  UNL     1      24.334   3.345  51.220  1.00  0.00     0.142 A 
HETATM    2  N2  UNL     1      23.254   3.172  51.998  1.00  0.00    -0.223 NA
HETATM    3  C6  UNL     1      22.401   4.150  52.304  1.00  0.00     0.236 A 
HETATM    4  N3  UNL     1      22.662   5.365  51.793  1.00  0.00    -0.241 NA
HETATM    5  C7  UNL     1      23.724   5.589  51.014  1.00  0.00     0.075 A 
HETATM    6  C8  UNL     1      23.898   6.856  50.546  1.00  0.00     0.072 A 
HETATM    7  C9  UNL     1      24.991   7.096  49.740  1.00  0.00     0.105 A 
HETATM    8  C15 UNL     1      25.857   6.042  49.446  1.00  0.00     0.109 A 
HETATM    9  C16 UNL     1      25.702   4.753  49.906  1.00  0.00    -0.004 A 
HETATM   10  C17 UNL     1      24.603   4.573  50.699  1.00  0.00     0.048 A 
HETATM   11  C18 UNL     1      26.808   3.926  49.381  1.00  0.00     0.069 A 
HETATM   12  C19 UNL     1      27.618   4.911  48.574  1.00  0.00     0.180 A 
HETATM   13  O3  UNL     1      26.969   6.137  48.667  1.00  0.00    -0.347 OA
ENDROOT
BRANCH   1  14
HETATM   14  N1  UNL     1      25.139   2.202  50.990  1.00  0.00    -0.340 N 
HETATM   15  H3  UNL     1      25.484   1.563  50.263  1.00  0.00     0.167 HD
BRANCH  14  16
HETATM   16  C4  UNL     1      25.809   1.568  52.097  1.00  0.00     0.035 A 
HETATM   17  C3  UNL     1      25.449   0.424  52.811  1.00  0.00     0.032 A 
HETATM   18  C2  UNL     1      26.151  -0.134  53.846  1.00  0.00     0.046 A 
HETATM   19  C1  UNL     1      27.323   0.479  54.230  1.00  0.00     0.138 A 
HETATM   20  F1  UNL     1      27.990  -0.099  55.257  1.00  0.00    -0.204 F 
HETATM   21  C21 UNL     1      27.749   1.616  53.574  1.00  0.00     0.074 A 
HETATM   22  C20 UNL     1      27.001   2.134  52.538  1.00  0.00     0.056 A 
HETATM   23 CL1  UNL     1      29.253   2.270  54.184  1.00  0.00    -0.081 Cl
ENDBRANCH  14  16
ENDBRANCH   1  14
BRANCH   7  24
HETATM   24  O1  UNL     1      25.179   8.382  49.256  1.00  0.00    -0.346 OA
BRANCH  24  25
HETATM   25  C10 UNL     1      26.092   9.229  49.916  1.00  0.00     0.207 C 
BRANCH  25  26
HETATM   26  C11 UNL     1      26.584  10.269  48.922  1.00  0.00     0.145 C 
HETATM   27  C12 UNL     1      27.022   9.525  47.678  1.00  0.00     0.036 C 
HETATM   28  C13 UNL     1      28.475   9.302  47.938  1.00  0.00     0.029 C 
HETATM   29  C14 UNL     1      28.814  10.253  49.036  1.00  0.00     0.168 C 
HETATM   30  O2  UNL     1      27.681  10.945  49.388  1.00  0.00    -0.384 OA
ENDBRANCH  25  26
ENDBRANCH  24  25
ENDBRANCH   7  24
TORSDOF 5
ENDMDL
MODEL 5
REMARK VINA RESULT:      -8.4      4.897      9.209
REMARK  5 active torsions:
REMARK  status: ('A' for Active; 'I' for Inactive)
REMARK    1  A    between atoms: C4_5  and  N1_6 
REMARK    2  A    between atoms: N1_6  and  C5_7 
REMARK    3  A    between atoms: C9_13  and  O1_14 
REMARK    4  A    between atoms: O1_14  and  C10_15 
REMARK    5  A    between atoms: C10_15  and  C11_16 
ROOT
HETATM    1  C5  UNL     1      21.677   2.893  52.096  1.00  0.00     0.142 A 
HETATM    2  N2  UNL     1      21.995   3.894  51.260  1.00  0.00    -0.223 NA
HETATM    3  C6  UNL     1      23.189   4.020  50.681  1.00  0.00     0.236 A 
HETATM    4  N3  UNL     1      24.106   3.081  50.970  1.00  0.00    -0.241 NA
HETATM    5  C7  UNL     1      23.839   2.065  51.797  1.00  0.00     0.075 A 
HETATM    6  C8  UNL     1      24.836   1.166  52.022  1.00  0.00     0.072 A 
HETATM    7  C9  UNL     1      24.569   0.114  52.873  1.00  0.00     0.105 A 
HETATM    8  C15 UNL     1      23.304   0.022  53.455  1.00  0.00     0.109 A 
HETATM    9  C16 UNL     1      22.280   0.918  53.242  1.00  0.00    -0.004 A 
HETATM   10  C17 UNL     1      22.600   1.939  52.391  1.00  0.00     0.048 A 
HETATM   11  C18 UNL     1      21.102   0.486  54.023  1.00  0.00     0.069 A 
HETATM   12  C19 UNL     1      21.590  -0.762  54.716  1.00  0.00     0.180 A 
HETATM   13  O3  UNL     1      22.906  -0.960  54.310  1.00  0.00    -0.347 OA
ENDROOT
BRANCH   1  14
HETATM   14  N1  UNL     1      20.362   2.904  52.625  1.00  0.00    -0.340 N 
HETATM   15  H3  UNL     1      19.820   2.954  53.497  1.00  0.00     0.167 HD
BRANCH  14  16
HETATM   16  C4  UNL     1      19.234   2.826  51.734  1.00  0.00     0.035 A 
HETATM   17  C3  UNL     1      18.458   3.855  51.196  1.00  0.00     0.032 A 
HETATM   18  C2  UNL     1      17.405   3.704  50.334  1.00  0.00     0.046 A 
HETATM   19  C1  UNL     1      17.066   2.425  49.953  1.00  0.00     0.138 A 
HETATM   20  F1  UNL     1      16.020   2.313  49.102  1.00  0.00    -0.204 F 
HETATM   21  C21 UNL     1      17.784   1.352  50.440  1.00  0.00     0.074 A 
HETATM   22  C20 UNL     1      18.836   1.563  51.306  1.00  0.00     0.056 A 
HETATM   23 CL1  UNL     1      17.226  -0.202  49.860  1.00  0.00    -0.081 Cl
ENDBRANCH  14  16
ENDBRANCH   1  14
BRANCH   7  24
HETATM   24  O1  UNL     1      25.576  -0.809  53.111  1.00  0.00    -0.346 OA
BRANCH  24  25
HETATM   25  C10 UNL     1      26.904  -0.460  52.795  1.00  0.00     0.207 C 
BRANCH  25  26
HETATM   26  C11 UNL     1      27.733  -0.531  54.068  1.00  0.00     0.145 C 
HETATM   27  C12 UNL     1      28.385   0.824  54.251  1.00  0.00     0.036 C 
HETATM   28  C13 UNL     1      29.697   0.639  53.564  1.00  0.00     0.029 C 
HETATM   29  C14 UNL     1      29.850  -0.839  53.432  1.00  0.00     0.168 C 
HETATM   30  O2  UNL     1      28.745  -1.449  53.971  1.00  0.00    -0.384 OA
ENDBRANCH  25  26
ENDBRANCH  24  25
ENDBRANCH   7  24
TORSDOF 5
ENDMDL
MODEL 6
REMARK VINA RESULT:      -8.4      2.302      2.729
REMARK  5 active torsions:
REMARK  status: ('A' for Active; 'I' for Inactive)
REMARK    1  A    between atoms: C4_5  and  N1_6 
REMARK    2  A    between atoms: N1_6  and  C5_7 
REMARK    3  A    between atoms: C9_13  and  O1_14 
REMARK    4  A    between atoms: O1_14  and  C10_15 
REMARK    5  A    between atoms: C10_15  and  C11_16 
ROOT
HETATM    1  C5  UNL     1      23.860   0.025  53.029  1.00  0.00     0.142 A 
HETATM    2  N2  UNL     1      23.823  -0.885  54.015  1.00  0.00    -0.223 NA
HETATM    3  C6  UNL     1      22.773  -1.059  54.819  1.00  0.00     0.236 A 
HETATM    4  N3  UNL     1      21.709  -0.267  54.607  1.00  0.00    -0.241 NA
HETATM    5  C7  UNL     1      21.696   0.654  53.639  1.00  0.00     0.075 A 
HETATM    6  C8  UNL     1      20.567   1.405  53.507  1.00  0.00     0.072 A 
HETATM    7  C9  UNL     1      20.546   2.357  52.510  1.00  0.00     0.105 A 
HETATM    8  C15 UNL     1      21.667   2.504  51.692  1.00  0.00     0.109 A 
HETATM    9  C16 UNL     1      22.819   1.757  51.805  1.00  0.00    -0.004 A 
HETATM   10  C17 UNL     1      22.785   0.829  52.810  1.00  0.00     0.048 A 
HETATM   11  C18 UNL     1      23.774   2.198  50.768  1.00  0.00     0.069 A 
HETATM   12  C19 UNL     1      23.024   3.298  50.058  1.00  0.00     0.180 A 
HETATM   13  O3  UNL     1      21.781   3.400  50.674  1.00  0.00    -0.347 OA
ENDROOT
BRANCH   1  14
HETATM   14  N1  UNL     1      25.052   0.082  52.265  1.00  0.00    -0.340 N 
HETATM   15  H3  UNL     1      25.456  -0.123  51.342  1.00  0.00     0.167 HD
BRANCH  14  16
HETATM   16  C4  UNL     1      26.254   0.608  52.858  1.00  0.00     0.035 A 
HETATM   17  C3  UNL     1      26.500   1.878  53.382  1.00  0.00     0.032 A 
HETATM   18  C2  UNL     1      27.671   2.303  53.951  1.00  0.00     0.046 A 
HETATM   19  C1  UNL     1      28.713   1.405  54.020  1.00  0.00     0.138 A 
HETATM   20  F1  UNL     1      29.855   1.859  54.587  1.00  0.00    -0.204 F 
HETATM   21  C21 UNL     1      28.550   0.128  53.524  1.00  0.00     0.074 A 
HETATM   22  C20 UNL     1      27.349  -0.245  52.962  1.00  0.00     0.056 A 
HETATM   23 CL1  UNL     1      29.967  -0.886  53.688  1.00  0.00    -0.081 Cl
ENDBRANCH  14  16
ENDBRANCH   1  14
BRANCH   7  24
HETATM   24  O1  UNL     1      19.402   3.127  52.364  1.00  0.00    -0.346 OA
BRANCH  24  25
HETATM   25  C10 UNL     1      18.386   2.677  51.498  1.00  0.00     0.207 C 
BRANCH  25  26
HETATM   26  C11 UNL     1      17.188   3.602  51.643  1.00  0.00     0.145 C 
HETATM   27  C12 UNL     1      15.960   2.724  51.765  1.00  0.00     0.036 C 
HETATM   28  C13 UNL     1      15.512   2.609  50.345  1.00  0.00     0.029 C 
HETATM   29  C14 UNL     1      16.222   3.711  49.633  1.00  0.00     0.168 C 
HETATM   30  O2  UNL     1      17.009   4.386  50.534  1.00  0.00    -0.384 OA
ENDBRANCH  25  26
ENDBRANCH  24  25
ENDBRANCH   7  24
TORSDOF 5
ENDMDL
MODEL 7
REMARK VINA RESULT:      -8.3      3.554      5.546
REMARK  5 active torsions:
REMARK  status: ('A' for Active; 'I' for Inactive)
REMARK    1  A    between atoms: C4_5  and  N1_6 
REMARK    2  A    between atoms: N1_6  and  C5_7 
REMARK    3  A    between atoms: C9_13  and  O1_14 
REMARK    4  A    between atoms: O1_14  and  C10_15 
REMARK    5  A    between atoms: C10_15  and  C11_16 
ROOT
HETATM    1  C5  UNL     1      25.723   2.404  51.740  1.00  0.00     0.142 A 
HETATM    2  N2  UNL     1      26.796   2.912  51.113  1.00  0.00    -0.223 NA
HETATM    3  C6  UNL     1      26.747   3.478  49.906  1.00  0.00     0.236 A 
HETATM    4  N3  UNL     1      25.544   3.527  49.309  1.00  0.00    -0.241 NA
HETATM    5  C7  UNL     1      24.446   3.035  49.890  1.00  0.00     0.075 A 
HETATM    6  C8  UNL     1      23.277   3.136  49.200  1.00  0.00     0.072 A 
HETATM    7  C9  UNL     1      22.138   2.631  49.793  1.00  0.00     0.105 A 
HETATM    8  C15 UNL     1      22.238   2.049  51.057  1.00  0.00     0.109 A 
HETATM    9  C16 UNL     1      23.408   1.936  51.775  1.00  0.00    -0.004 A 
HETATM   10  C17 UNL     1      24.504   2.452  51.139  1.00  0.00     0.048 A 
HETATM   11  C18 UNL     1      23.114   1.270  53.060  1.00  0.00     0.069 A 
HETATM   12  C19 UNL     1      21.630   1.009  52.978  1.00  0.00     0.180 A 
HETATM   13  O3  UNL     1      21.200   1.514  51.756  1.00  0.00    -0.347 OA
ENDROOT
BRANCH   1  14
HETATM   14  N1  UNL     1      25.947   1.838  53.019  1.00  0.00    -0.340 N 
HETATM   15  H3  UNL     1      25.543   1.725  53.958  1.00  0.00     0.167 HD
BRANCH  14  16
HETATM   16  C4  UNL     1      27.157   1.099  53.271  1.00  0.00     0.035 A 
HETATM   17  C3  UNL     1      28.371   1.543  53.797  1.00  0.00     0.032 A 
HETATM   18  C2  UNL     1      29.480   0.773  54.027  1.00  0.00     0.046 A 
HETATM   19  C1  UNL     1      29.406  -0.566  53.715  1.00  0.00     0.138 A 
HETATM   20  F1  UNL     1      30.520  -1.297  53.955  1.00  0.00    -0.204 F 
HETATM   21  C21 UNL     1      28.239  -1.084  53.190  1.00  0.00     0.074 A 
HETATM   22  C20 UNL     1      27.154  -0.261  52.980  1.00  0.00     0.056 A 
HETATM   23 CL1  UNL     1      28.311  -2.799  52.849  1.00  0.00    -0.081 Cl
ENDBRANCH  14  16
ENDBRANCH   1  14
BRANCH   7  24
HETATM   24  O1  UNL     1      20.941   2.729  49.101  1.00  0.00    -0.346 OA
BRANCH  24  25
HETATM   25  C10 UNL     1      20.951   2.573  47.701  1.00  0.00     0.207 C 
BRANCH  25  26
HETATM   26  C11 UNL     1      20.187   3.734  47.084  1.00  0.00     0.145 C 
HETATM   27  C12 UNL     1      20.664   3.870  45.653  1.00  0.00     0.036 C 
HETATM   28  C13 UNL     1      21.772   4.862  45.782  1.00  0.00     0.029 C 
HETATM   29  C14 UNL     1      21.564   5.491  47.119  1.00  0.00     0.168 C 
HETATM   30  O2  UNL     1      20.464   4.920  47.710  1.00  0.00    -0.384 OA
ENDBRANCH  25  26
ENDBRANCH  24  25
ENDBRANCH   7  24
TORSDOF 5
ENDMDL
MODEL 8
REMARK VINA RESULT:      -8.3      3.235      4.794
REMARK  5 active torsions:
REMARK  status: ('A' for Active; 'I' for Inactive)
REMARK    1  A    between atoms: C4_5  and  N1_6 
REMARK    2  A    between atoms: N1_6  and  C5_7 
REMARK    3  A    between atoms: C9_13  and  O1_14 
REMARK    4  A    between atoms: O1_14  and  C10_15 
REMARK    5  A    between atoms: C10_15  and  C11_16 
ROOT
HETATM    1  C5  UNL     1      23.227   1.000  52.813  1.00  0.00     0.142 A 
HETATM    2  N2  UNL     1      22.527   0.160  53.592  1.00  0.00    -0.223 NA
HETATM    3  C6  UNL     1      21.378  -0.405  53.220  1.00  0.00     0.236 A 
HETATM    4  N3  UNL     1      20.918  -0.096  51.996  1.00  0.00    -0.241 NA
HETATM    5  C7  UNL     1      21.577   0.735  51.183  1.00  0.00     0.075 A 
HETATM    6  C8  UNL     1      21.026   0.980  49.963  1.00  0.00     0.072 A 
HETATM    7  C9  UNL     1      21.701   1.837  49.117  1.00  0.00     0.105 A 
HETATM    8  C15 UNL     1      22.901   2.404  49.548  1.00  0.00     0.109 A 
HETATM    9  C16 UNL     1      23.478   2.171  50.777  1.00  0.00    -0.004 A 
HETATM   10  C17 UNL     1      22.767   1.315  51.573  1.00  0.00     0.048 A 
HETATM   11  C18 UNL     1      24.736   2.940  50.864  1.00  0.00     0.069 A 
HETATM   12  C19 UNL     1      24.795   3.649  49.533  1.00  0.00     0.180 A 
HETATM   13  O3  UNL     1      23.666   3.262  48.820  1.00  0.00    -0.347 OA
ENDROOT
BRANCH   1  14
HETATM   14  N1  UNL     1      24.431   1.513  53.358  1.00  0.00    -0.340 N 
HETATM   15  H3  UNL     1      24.846   2.324  53.834  1.00  0.00     0.167 HD
BRANCH  14  16
HETATM   16  C4  UNL     1      25.630   0.717  53.313  1.00  0.00     0.035 A 
HETATM   17  C3  UNL     1      25.819  -0.571  52.808  1.00  0.00     0.032 A 
HETATM   18  C2  UNL     1      27.000  -1.262  52.782  1.00  0.00     0.046 A 
HETATM   19  C1  UNL     1      28.117  -0.643  53.299  1.00  0.00     0.138 A 
HETATM   20  F1  UNL     1      29.267  -1.355  53.258  1.00  0.00    -0.204 F 
HETATM   21  C21 UNL     1      28.014   0.632  53.818  1.00  0.00     0.074 A 
HETATM   22  C20 UNL     1      26.798   1.280  53.817  1.00  0.00     0.056 A 
HETATM   23 CL1  UNL     1      29.521   1.274  54.434  1.00  0.00    -0.081 Cl
ENDBRANCH  14  16
ENDBRANCH   1  14
BRANCH   7  24
HETATM   24  O1  UNL     1      21.151   2.095  47.871  1.00  0.00    -0.346 OA
BRANCH  24  25
HETATM   25  C10 UNL     1      20.214   3.140  47.745  1.00  0.00     0.207 C 
BRANCH  25  26
HETATM   26  C11 UNL     1      20.255   3.649  46.312  1.00  0.00     0.145 C 
HETATM   27  C12 UNL     1      21.712   3.735  45.911  1.00  0.00     0.036 C 
HETATM   28  C13 UNL     1      22.056   5.144  46.265  1.00  0.00     0.029 C 
HETATM   29  C14 UNL     1      20.738   5.825  46.424  1.00  0.00     0.168 C 
HETATM   30  O2  UNL     1      19.737   4.912  46.203  1.00  0.00    -0.384 OA
ENDBRANCH  25  26
ENDBRANCH  24  25
ENDBRANCH   7  24
TORSDOF 5
ENDMDL
MODEL 9
REMARK VINA RESULT:      -8.2      2.847      3.414
REMARK  5 active torsions:
REMARK  status: ('A' for Active; 'I' for Inactive)
REMARK    1  A    between atoms: C4_5  and  N1_6 
REMARK    2  A    between atoms: N1_6  and  C5_7 
REMARK    3  A    between atoms: C9_13  and  O1_14 
REMARK    4  A    between atoms: O1_14  and  C10_15 
REMARK    5  A    between atoms: C10_15  and  C11_16 
ROOT
HETATM    1  C5  UNL     1      24.445   0.925  53.032  1.00  0.00     0.142 A 
HETATM    2  N2  UNL     1      24.279   0.049  54.036  1.00  0.00    -0.223 NA
HETATM    3  C6  UNL     1      23.219  -0.751  54.149  1.00  0.00     0.236 A 
HETATM    4  N3  UNL     1      22.280  -0.653  53.193  1.00  0.00    -0.241 NA
HETATM    5  C7  UNL     1      22.398   0.203  52.173  1.00  0.00     0.075 A 
HETATM    6  C8  UNL     1      21.392   0.222  51.256  1.00  0.00     0.072 A 
HETATM    7  C9  UNL     1      21.506   1.103  50.200  1.00  0.00     0.105 A 
HETATM    8  C15 UNL     1      22.634   1.920  50.122  1.00  0.00     0.109 A 
HETATM    9  C16 UNL     1      23.665   1.918  51.036  1.00  0.00    -0.004 A 
HETATM   10  C17 UNL     1      23.499   1.027  52.061  1.00  0.00     0.048 A 
HETATM   11  C18 UNL     1      24.674   2.912  50.616  1.00  0.00     0.069 A 
HETATM   12  C19 UNL     1      24.082   3.487  49.353  1.00  0.00     0.180 A 
HETATM   13  O3  UNL     1      22.875   2.830  49.139  1.00  0.00    -0.347 OA
ENDROOT
BRANCH   1  14
HETATM   14  N1  UNL     1      25.630   1.701  53.059  1.00  0.00    -0.340 N 
HETATM   15  H3  UNL     1      25.995   2.659  52.984  1.00  0.00     0.167 HD
BRANCH  14  16
HETATM   16  C4  UNL     1      26.901   1.056  53.265  1.00  0.00     0.035 A 
HETATM   17  C3  UNL     1      28.102   1.595  53.731  1.00  0.00     0.032 A 
HETATM   18  C2  UNL     1      29.273   0.911  53.920  1.00  0.00     0.046 A 
HETATM   19  C1  UNL     1      29.284  -0.434  53.628  1.00  0.00     0.138 A 
HETATM   20  F1  UNL     1      30.458  -1.078  53.825  1.00  0.00    -0.204 F 
HETATM   21  C21 UNL     1      28.137  -1.044  53.162  1.00  0.00     0.074 A 
HETATM   22  C20 UNL     1      26.986  -0.305  52.991  1.00  0.00     0.056 A 
HETATM   23 CL1  UNL     1      28.319  -2.753  52.838  1.00  0.00    -0.081 Cl
ENDBRANCH  14  16
ENDBRANCH   1  14
BRANCH   7  24
HETATM   24  O1  UNL     1      20.489   1.132  49.259  1.00  0.00    -0.346 OA
BRANCH  24  25
HETATM   25  C10 UNL     1      19.288   1.796  49.578  1.00  0.00     0.207 C 
BRANCH  25  26
HETATM   26  C11 UNL     1      19.278   3.138  48.864  1.00  0.00     0.145 C 
HETATM   27  C12 UNL     1      19.483   4.205  49.919  1.00  0.00     0.036 C 
HETATM   28  C13 UNL     1      18.080   4.559  50.289  1.00  0.00     0.029 C 
HETATM   29  C14 UNL     1      17.247   4.011  49.178  1.00  0.00     0.168 C 
HETATM   30  O2  UNL     1      18.071   3.394  48.269  1.00  0.00    -0.384 OA
ENDBRANCH  25  26
ENDBRANCH  24  25
ENDBRANCH   7  24
TORSDOF 5
ENDMDL
