MODEL 1
REMARK VINA RESULT:      -8.8      0.000      0.000
REMARK  7 active torsions:
REMARK  status: ('A' for Active; 'I' for Inactive)
REMARK    1  A    between atoms: C2_2  and  N1_3 
REMARK    2  A    between atoms: N1_3  and  C3_4 
REMARK    3  A    between atoms: C3_4  and  C4_5 
REMARK    4  A    between atoms: C7_8  and  N2_9 
REMARK    5  A    between atoms: N2_9  and  C8_10 
REMARK    6  A    between atoms: C12_15  and  C13_16 
REMARK       I    between atoms: C13_16  and  N3_17 
REMARK    7  A    between atoms: C18_25  and  O2_26 
ROOT
HETATM    1  C4  UNL     1      22.220   1.232  52.479  1.00  0.00     0.004 A 
HETATM    2  C5  UNL     1      23.538   1.647  52.531  1.00  0.00     0.029 A 
HETATM    3  C6  UNL     1      24.239   2.270  51.536  1.00  0.00     0.039 A 
HETATM    4  C7  UNL     1      25.567   2.653  51.707  1.00  0.00     0.142 A 
HETATM    5  N4  UNL     1      26.202   3.283  50.671  1.00  0.00    -0.224 NA
HETATM    6  C15 UNL     1      25.468   3.484  49.541  1.00  0.00     0.236 A 
HETATM    7  N5  UNL     1      24.169   3.115  49.359  1.00  0.00    -0.241 NA
HETATM    8  C16 UNL     1      23.516   2.486  50.380  1.00  0.00     0.074 A 
HETATM    9  C17 UNL     1      22.200   2.100  50.252  1.00  0.00     0.070 A 
HETATM   10  C18 UNL     1      21.541   1.471  51.299  1.00  0.00     0.078 A 
ENDROOT
BRANCH   4  11
HETATM   11  N2  UNL     1      26.167   2.340  52.971  1.00  0.00    -0.340 N 
HETATM   12  H10 UNL     1      25.649   2.862  53.735  1.00  0.00     0.167 HD
BRANCH  11  13
HETATM   13  C8  UNL     1      27.265   1.478  53.238  1.00  0.00     0.034 A 
HETATM   14  C9  UNL     1      28.463   1.894  53.752  1.00  0.00     0.032 A 
HETATM   15  C10 UNL     1      29.471   0.969  53.951  1.00  0.00     0.045 A 
HETATM   16  C11 UNL     1      29.288  -0.383  53.636  1.00  0.00     0.132 A 
HETATM   17  F1  UNL     1      30.263  -1.302  53.824  1.00  0.00    -0.205 F 
HETATM   18  C12 UNL     1      28.070  -0.785  53.117  1.00  0.00     0.072 A 
HETATM   19  C14 UNL     1      27.045   0.139  52.913  1.00  0.00     0.049 A 
BRANCH  18  20
HETATM   20  C13 UNL     1      27.783  -2.162  52.748  1.00  0.00     0.252 C 
HETATM   21  N3  UNL     1      28.500  -3.296  53.167  1.00  0.00    -0.366 N 
HETATM   22  H13 UNL     1      28.485  -4.196  53.654  1.00  0.00     0.159 HD
HETATM   23  H14 UNL     1      29.534  -3.396  52.949  1.00  0.00     0.159 HD
HETATM   24  O1  UNL     1      26.868  -2.590  52.010  1.00  0.00    -0.268 OA
ENDBRANCH  18  20
ENDBRANCH  11  13
ENDBRANCH   4  11
BRANCH   1  25
HETATM   25  C3  UNL     1      21.677   0.605  53.711  1.00  0.00     0.310 C 
BRANCH  25  26
HETATM   26  N1  UNL     1      21.129  -0.696  53.351  1.00  0.00     0.087 N 
HETATM   27  H6  UNL     1      20.086  -0.651  53.270  1.00  0.00     0.316 HD
BRANCH  26  28
HETATM   28  C2  UNL     1      21.463  -1.712  54.319  1.00  0.00     0.265 C 
HETATM   29  C1  UNL     1      22.676  -1.292  55.088  1.00  0.00     0.037 C 
ENDBRANCH  26  28
ENDBRANCH  25  26
ENDBRANCH   1  25
BRANCH  10  30
HETATM   30  O2  UNL     1      20.215   1.051  51.255  1.00  0.00    -0.355 OA
HETATM   31  C19 UNL     1      19.457   1.066  50.076  1.00  0.00     0.210 C 
ENDBRANCH  10  30
TORSDOF 7
ENDMDL
MODEL 2
REMARK VINA RESULT:      -8.2      2.352      4.577
REMARK  7 active torsions:
REMARK  status: ('A' for Active; 'I' for Inactive)
REMARK    1  A    between atoms: C2_2  and  N1_3 
REMARK    2  A    between atoms: N1_3  and  C3_4 
REMARK    3  A    between atoms: C3_4  and  C4_5 
REMARK    4  A    between atoms: C7_8  and  N2_9 
REMARK    5  A    between atoms: N2_9  and  C8_10 
REMARK    6  A    between atoms: C12_15  and  C13_16 
REMARK       I    between atoms: C13_16  and  N3_17 
REMARK    7  A    between atoms: C18_25  and  O2_26 
ROOT
HETATM    1  C4  UNL     1      20.903   0.657  51.370  1.00  0.00     0.004 A 
HETATM    2  C5  UNL     1      22.121   0.402  51.972  1.00  0.00     0.029 A 
HETATM    3  C6  UNL     1      22.331  -0.262  53.148  1.00  0.00     0.039 A 
HETATM    4  C7  UNL     1      23.612  -0.469  53.653  1.00  0.00     0.142 A 
HETATM    5  N4  UNL     1      23.746  -1.153  54.831  1.00  0.00    -0.224 NA
HETATM    6  C15 UNL     1      22.594  -1.580  55.419  1.00  0.00     0.236 A 
HETATM    7  N5  UNL     1      21.334  -1.385  54.938  1.00  0.00    -0.241 NA
HETATM    8  C16 UNL     1      21.178  -0.706  53.764  1.00  0.00     0.074 A 
HETATM    9  C17 UNL     1      19.928  -0.490  53.228  1.00  0.00     0.070 A 
HETATM   10  C18 UNL     1      19.779   0.192  52.028  1.00  0.00     0.078 A 
ENDROOT
BRANCH   4  11
HETATM   11  N2  UNL     1      24.698   0.071  52.888  1.00  0.00    -0.340 N 
HETATM   12  H10 UNL     1      24.307   0.748  52.171  1.00  0.00     0.167 HD
BRANCH  11  13
HETATM   13  C8  UNL     1      26.088  -0.198  53.014  1.00  0.00     0.034 A 
HETATM   14  C9  UNL     1      26.659  -1.421  52.788  1.00  0.00     0.032 A 
HETATM   15  C10 UNL     1      28.022  -1.572  52.963  1.00  0.00     0.045 A 
HETATM   16  C11 UNL     1      28.826  -0.500  53.367  1.00  0.00     0.132 A 
HETATM   17  F1  UNL     1      30.161  -0.631  53.543  1.00  0.00    -0.205 F 
HETATM   18  C12 UNL     1      28.230   0.728  53.590  1.00  0.00     0.072 A 
HETATM   19  C14 UNL     1      26.856   0.894  53.416  1.00  0.00     0.049 A 
BRANCH  18  20
HETATM   20  C13 UNL     1      28.975   1.901  54.022  1.00  0.00     0.252 C 
HETATM   21  N3  UNL     1      29.328   2.999  53.217  1.00  0.00    -0.366 N 
HETATM   22  H13 UNL     1      29.262   4.007  53.056  1.00  0.00     0.159 HD
HETATM   23  H14 UNL     1      29.930   2.868  52.354  1.00  0.00     0.159 HD
HETATM   24  O1  UNL     1      29.429   2.152  55.160  1.00  0.00    -0.268 OA
ENDBRANCH  18  20
ENDBRANCH  11  13
ENDBRANCH   4  11
BRANCH   1  25
HETATM   25  C3  UNL     1      20.945   1.374  50.071  1.00  0.00     0.310 C 
BRANCH  25  26
HETATM   26  N1  UNL     1      22.161   2.175  50.037  1.00  0.00     0.087 N 
HETATM   27  H6  UNL     1      22.192   2.838  50.847  1.00  0.00     0.316 HD
BRANCH  26  28
HETATM   28  C2  UNL     1      22.270   2.944  48.821  1.00  0.00     0.265 C 
HETATM   29  C1  UNL     1      22.430   2.018  47.656  1.00  0.00     0.037 C 
ENDBRANCH  26  28
ENDBRANCH  25  26
ENDBRANCH   1  25
BRANCH  10  30
HETATM   30  O2  UNL     1      18.556   0.451  51.417  1.00  0.00    -0.355 OA
HETATM   31  C19 UNL     1      17.410  -0.316  51.665  1.00  0.00     0.210 C 
ENDBRANCH  10  30
TORSDOF 7
ENDMDL
MODEL 3
REMARK VINA RESULT:      -8.2      1.938      4.048
REMARK  7 active torsions:
REMARK  status: ('A' for Active; 'I' for Inactive)
REMARK    1  A    between atoms: C2_2  and  N1_3 
REMARK    2  A    between atoms: N1_3  and  C3_4 
REMARK    3  A    between atoms: C3_4  and  C4_5 
REMARK    4  A    between atoms: C7_8  and  N2_9 
REMARK    5  A    between atoms: N2_9  and  C8_10 
REMARK    6  A    between atoms: C12_15  and  C13_16 
REMARK       I    between atoms: C13_16  and  N3_17 
REMARK    7  A    between atoms: C18_25  and  O2_26 
ROOT
HETATM    1  C4  UNL     1      20.752   0.773  51.576  1.00  0.00     0.004 A 
HETATM    2  C5  UNL     1      22.030   0.539  52.051  1.00  0.00     0.029 A 
HETATM    3  C6  UNL     1      22.369  -0.136  53.190  1.00  0.00     0.039 A 
HETATM    4  C7  UNL     1      23.698  -0.319  53.564  1.00  0.00     0.142 A 
HETATM    5  N4  UNL     1      23.962  -1.015  54.712  1.00  0.00    -0.224 NA
HETATM    6  C15 UNL     1      22.882  -1.478  55.403  1.00  0.00     0.236 A 
HETATM    7  N5  UNL     1      21.577  -1.308  55.050  1.00  0.00    -0.241 NA
HETATM    8  C16 UNL     1      21.292  -0.616  53.908  1.00  0.00     0.074 A 
HETATM    9  C17 UNL     1      19.990  -0.422  53.500  1.00  0.00     0.070 A 
HETATM   10  C18 UNL     1      19.710   0.272  52.332  1.00  0.00     0.078 A 
ENDROOT
BRANCH   4  11
HETATM   11  N2  UNL     1      24.690   0.258  52.705  1.00  0.00    -0.340 N 
HETATM   12  H10 UNL     1      24.233   0.529  51.787  1.00  0.00     0.167 HD
BRANCH  11  13
HETATM   13  C8  UNL     1      26.070   0.473  52.970  1.00  0.00     0.034 A 
HETATM   14  C9  UNL     1      26.643   1.707  53.115  1.00  0.00     0.032 A 
HETATM   15  C10 UNL     1      28.003   1.798  53.348  1.00  0.00     0.045 A 
HETATM   16  C11 UNL     1      28.802   0.652  53.438  1.00  0.00     0.132 A 
HETATM   17  F1  UNL     1      30.134   0.722  53.666  1.00  0.00    -0.205 F 
HETATM   18  C12 UNL     1      28.204  -0.587  53.289  1.00  0.00     0.072 A 
HETATM   19  C14 UNL     1      26.833  -0.691  53.054  1.00  0.00     0.049 A 
BRANCH  18  20
HETATM   20  C13 UNL     1      28.947  -1.836  53.355  1.00  0.00     0.252 C 
HETATM   21  N3  UNL     1      28.437  -3.116  53.077  1.00  0.00    -0.366 N 
HETATM   22  H13 UNL     1      28.496  -3.963  52.505  1.00  0.00     0.159 HD
HETATM   23  H14 UNL     1      27.623  -3.509  53.632  1.00  0.00     0.159 HD
HETATM   24  O1  UNL     1      30.148  -2.006  53.661  1.00  0.00    -0.268 OA
ENDBRANCH  18  20
ENDBRANCH  11  13
ENDBRANCH   4  11
BRANCH   1  25
HETATM   25  C3  UNL     1      20.651   1.509  50.290  1.00  0.00     0.310 C 
BRANCH  25  26
HETATM   26  N1  UNL     1      21.572   0.894  49.344  1.00  0.00     0.087 N 
HETATM   27  H6  UNL     1      22.483   0.666  49.807  1.00  0.00     0.316 HD
BRANCH  26  28
HETATM   28  C2  UNL     1      21.842   1.750  48.215  1.00  0.00     0.265 C 
HETATM   29  C1  UNL     1      22.996   2.648  48.532  1.00  0.00     0.037 C 
ENDBRANCH  26  28
ENDBRANCH  25  26
ENDBRANCH   1  25
BRANCH  10  30
HETATM   30  O2  UNL     1      18.427   0.510  51.847  1.00  0.00    -0.355 OA
HETATM   31  C19 UNL     1      17.686  -0.461  51.161  1.00  0.00     0.210 C 
ENDBRANCH  10  30
TORSDOF 7
ENDMDL
MODEL 4
REMARK VINA RESULT:      -8.0      4.260      7.175
REMARK  7 active torsions:
REMARK  status: ('A' for Active; 'I' for Inactive)
REMARK    1  A    between atoms: C2_2  and  N1_3 
REMARK    2  A    between atoms: N1_3  and  C3_4 
REMARK    3  A    between atoms: C3_4  and  C4_5 
REMARK    4  A    between atoms: C7_8  and  N2_9 
REMARK    5  A    between atoms: N2_9  and  C8_10 
REMARK    6  A    between atoms: C12_15  and  C13_16 
REMARK       I    between atoms: C13_16  and  N3_17 
REMARK    7  A    between atoms: C18_25  and  O2_26 
ROOT
HETATM    1  C4  UNL     1      28.061   5.861  48.387  1.00  0.00     0.004 A 
HETATM    2  C5  UNL     1      27.216   4.926  48.957  1.00  0.00     0.029 A 
HETATM    3  C6  UNL     1      25.877   5.069  49.194  1.00  0.00     0.039 A 
HETATM    4  C7  UNL     1      25.123   4.048  49.768  1.00  0.00     0.142 A 
HETATM    5  N4  UNL     1      23.785   4.258  49.965  1.00  0.00    -0.224 NA
HETATM    6  C15 UNL     1      23.297   5.469  49.576  1.00  0.00     0.236 A 
HETATM    7  N5  UNL     1      24.022   6.477  49.014  1.00  0.00    -0.241 NA
HETATM    8  C16 UNL     1      25.358   6.288  48.808  1.00  0.00     0.074 A 
HETATM    9  C17 UNL     1      26.136   7.271  48.235  1.00  0.00     0.070 A 
HETATM   10  C18 UNL     1      27.491   7.066  48.020  1.00  0.00     0.078 A 
ENDROOT
BRANCH   4  11
HETATM   11  N2  UNL     1      25.828   2.850  50.118  1.00  0.00    -0.340 N 
HETATM   12  H10 UNL     1      26.329   2.483  49.258  1.00  0.00     0.167 HD
BRANCH  11  13
HETATM   13  C8  UNL     1      25.900   2.204  51.383  1.00  0.00     0.034 A 
HETATM   14  C9  UNL     1      24.829   1.637  52.019  1.00  0.00     0.032 A 
HETATM   15  C10 UNL     1      25.011   1.054  53.259  1.00  0.00     0.045 A 
HETATM   16  C11 UNL     1      26.269   1.035  53.874  1.00  0.00     0.132 A 
HETATM   17  F1  UNL     1      26.465   0.469  55.088  1.00  0.00    -0.205 F 
HETATM   18  C12 UNL     1      27.339   1.613  53.215  1.00  0.00     0.072 A 
HETATM   19  C14 UNL     1      27.167   2.203  51.963  1.00  0.00     0.049 A 
BRANCH  18  20
HETATM   20  C13 UNL     1      28.682   1.655  53.773  1.00  0.00     0.252 C 
HETATM   21  N3  UNL     1      29.720   0.749  53.495  1.00  0.00    -0.366 N 
HETATM   22  H13 UNL     1      30.667   0.605  53.134  1.00  0.00     0.159 HD
HETATM   23  H14 UNL     1      29.608  -0.286  53.702  1.00  0.00     0.159 HD
HETATM   24  O1  UNL     1      29.157   2.482  54.582  1.00  0.00    -0.268 OA
ENDBRANCH  18  20
ENDBRANCH  11  13
ENDBRANCH   4  11
BRANCH   1  25
HETATM   25  C3  UNL     1      29.476   5.450  48.208  1.00  0.00     0.310 C 
BRANCH  25  26
HETATM   26  N1  UNL     1      30.310   6.351  48.991  1.00  0.00     0.087 N 
HETATM   27  H6  UNL     1      30.354   7.298  48.547  1.00  0.00     0.316 HD
BRANCH  26  28
HETATM   28  C2  UNL     1      31.659   5.857  49.132  1.00  0.00     0.265 C 
HETATM   29  C1  UNL     1      32.129   5.307  47.822  1.00  0.00     0.037 C 
ENDBRANCH  26  28
ENDBRANCH  25  26
ENDBRANCH   1  25
BRANCH  10  30
HETATM   30  O2  UNL     1      28.347   8.002  47.446  1.00  0.00    -0.355 OA
HETATM   31  C19 UNL     1      28.262   9.373  47.725  1.00  0.00     0.210 C 
ENDBRANCH  10  30
TORSDOF 7
ENDMDL
MODEL 5
REMARK VINA RESULT:      -8.0      3.367      7.806
REMARK  7 active torsions:
REMARK  status: ('A' for Active; 'I' for Inactive)
REMARK    1  A    between atoms: C2_2  and  N1_3 
REMARK    2  A    between atoms: N1_3  and  C3_4 
REMARK    3  A    between atoms: C3_4  and  C4_5 
REMARK    4  A    between atoms: C7_8  and  N2_9 
REMARK    5  A    between atoms: N2_9  and  C8_10 
REMARK    6  A    between atoms: C12_15  and  C13_16 
REMARK       I    between atoms: C13_16  and  N3_17 
REMARK    7  A    between atoms: C18_25  and  O2_26 
ROOT
HETATM    1  C4  UNL     1      26.399   0.934  52.373  1.00  0.00     0.004 A 
HETATM    2  C5  UNL     1      25.082   0.524  52.468  1.00  0.00     0.029 A 
HETATM    3  C6  UNL     1      24.509  -0.159  53.504  1.00  0.00     0.039 A 
HETATM    4  C7  UNL     1      23.162  -0.511  53.493  1.00  0.00     0.142 A 
HETATM    5  N4  UNL     1      22.654  -1.184  54.571  1.00  0.00    -0.224 NA
HETATM    6  C15 UNL     1      23.528  -1.458  55.581  1.00  0.00     0.236 A 
HETATM    7  N5  UNL     1      24.848  -1.121  55.607  1.00  0.00    -0.241 NA
HETATM    8  C16 UNL     1      25.373  -0.448  54.541  1.00  0.00     0.074 A 
HETATM    9  C17 UNL     1      26.699  -0.075  54.520  1.00  0.00     0.070 A 
HETATM   10  C18 UNL     1      27.223   0.619  53.438  1.00  0.00     0.078 A 
ENDROOT
BRANCH   4  11
HETATM   11  N2  UNL     1      22.413  -0.140  52.328  1.00  0.00    -0.340 N 
HETATM   12  H10 UNL     1      22.712  -0.756  51.518  1.00  0.00     0.167 HD
BRANCH  11  13
HETATM   13  C8  UNL     1      21.415   0.865  52.202  1.00  0.00     0.034 A 
HETATM   14  C9  UNL     1      20.072   0.614  52.144  1.00  0.00     0.032 A 
HETATM   15  C10 UNL     1      19.192   1.670  51.998  1.00  0.00     0.045 A 
HETATM   16  C11 UNL     1      19.651   2.990  51.907  1.00  0.00     0.132 A 
HETATM   17  F1  UNL     1      18.805   4.035  51.764  1.00  0.00    -0.205 F 
HETATM   18  C12 UNL     1      21.013   3.224  51.967  1.00  0.00     0.072 A 
HETATM   19  C14 UNL     1      21.910   2.166  52.116  1.00  0.00     0.049 A 
BRANCH  18  20
HETATM   20  C13 UNL     1      21.591   4.555  51.872  1.00  0.00     0.252 C 
HETATM   21  N3  UNL     1      22.571   5.094  52.723  1.00  0.00    -0.366 N 
HETATM   22  H13 UNL     1      23.509   5.493  52.817  1.00  0.00     0.159 HD
HETATM   23  H14 UNL     1      22.393   5.188  53.765  1.00  0.00     0.159 HD
HETATM   24  O1  UNL     1      21.336   5.450  51.035  1.00  0.00    -0.268 OA
ENDBRANCH  18  20
ENDBRANCH  11  13
ENDBRANCH   4  11
BRANCH   1  25
HETATM   25  C3  UNL     1      26.768   1.693  51.152  1.00  0.00     0.310 C 
BRANCH  25  26
HETATM   26  N1  UNL     1      26.660   3.114  51.454  1.00  0.00     0.087 N 
HETATM   27  H6  UNL     1      26.187   3.263  52.376  1.00  0.00     0.316 HD
BRANCH  26  28
HETATM   28  C2  UNL     1      25.917   3.828  50.444  1.00  0.00     0.265 C 
HETATM   29  C1  UNL     1      26.792   4.070  49.255  1.00  0.00     0.037 C 
ENDBRANCH  26  28
ENDBRANCH  25  26
ENDBRANCH   1  25
BRANCH  10  30
HETATM   30  O2  UNL     1      28.547   1.034  53.336  1.00  0.00    -0.355 OA
HETATM   31  C19 UNL     1      29.626   0.210  53.684  1.00  0.00     0.210 C 
ENDBRANCH  10  30
TORSDOF 7
ENDMDL
MODEL 6
REMARK VINA RESULT:      -8.0      2.174      4.495
REMARK  7 active torsions:
REMARK  status: ('A' for Active; 'I' for Inactive)
REMARK    1  A    between atoms: C2_2  and  N1_3 
REMARK    2  A    between atoms: N1_3  and  C3_4 
REMARK    3  A    between atoms: C3_4  and  C4_5 
REMARK    4  A    between atoms: C7_8  and  N2_9 
REMARK    5  A    between atoms: N2_9  and  C8_10 
REMARK    6  A    between atoms: C12_15  and  C13_16 
REMARK       I    between atoms: C13_16  and  N3_17 
REMARK    7  A    between atoms: C18_25  and  O2_26 
ROOT
HETATM    1  C4  UNL     1      24.793   4.283  49.751  1.00  0.00     0.004 A 
HETATM    2  C5  UNL     1      25.092   3.559  50.890  1.00  0.00     0.029 A 
HETATM    3  C6  UNL     1      24.305   2.616  51.491  1.00  0.00     0.039 A 
HETATM    4  C7  UNL     1      24.718   1.941  52.637  1.00  0.00     0.142 A 
HETATM    5  N4  UNL     1      23.882   1.001  53.177  1.00  0.00    -0.224 NA
HETATM    6  C15 UNL     1      22.697   0.803  52.535  1.00  0.00     0.236 A 
HETATM    7  N5  UNL     1      22.278   1.455  51.414  1.00  0.00    -0.241 NA
HETATM    8  C16 UNL     1      23.097   2.396  50.859  1.00  0.00     0.074 A 
HETATM    9  C17 UNL     1      22.728   3.078  49.721  1.00  0.00     0.070 A 
HETATM   10  C18 UNL     1      23.572   4.025  49.157  1.00  0.00     0.078 A 
ENDROOT
BRANCH   4  11
HETATM   11  N2  UNL     1      26.000   2.303  53.167  1.00  0.00    -0.340 N 
HETATM   12  H10 UNL     1      25.974   3.323  53.458  1.00  0.00     0.167 HD
BRANCH  11  13
HETATM   13  C8  UNL     1      27.156   1.489  53.319  1.00  0.00     0.034 A 
HETATM   14  C9  UNL     1      28.378   1.955  53.721  1.00  0.00     0.032 A 
HETATM   15  C10 UNL     1      29.439   1.075  53.813  1.00  0.00     0.045 A 
HETATM   16  C11 UNL     1      29.287  -0.281  53.503  1.00  0.00     0.132 A 
HETATM   17  F1  UNL     1      30.315  -1.157  53.587  1.00  0.00    -0.205 F 
HETATM   18  C12 UNL     1      28.044  -0.734  53.098  1.00  0.00     0.072 A 
HETATM   19  C14 UNL     1      26.965   0.145  53.003  1.00  0.00     0.049 A 
BRANCH  18  20
HETATM   20  C13 UNL     1      27.784  -2.120  52.743  1.00  0.00     0.252 C 
HETATM   21  N3  UNL     1      28.490  -3.240  53.215  1.00  0.00    -0.366 N 
HETATM   22  H13 UNL     1      28.459  -4.131  53.718  1.00  0.00     0.159 HD
HETATM   23  H14 UNL     1      29.533  -3.336  53.045  1.00  0.00     0.159 HD
HETATM   24  O1  UNL     1      26.906  -2.569  51.973  1.00  0.00    -0.268 OA
ENDBRANCH  18  20
ENDBRANCH  11  13
ENDBRANCH   4  11
BRANCH   1  25
HETATM   25  C3  UNL     1      25.834   5.230  49.278  1.00  0.00     0.310 C 
BRANCH  25  26
HETATM   26  N1  UNL     1      26.097   6.181  50.349  1.00  0.00     0.087 N 
HETATM   27  H6  UNL     1      26.090   5.704  51.281  1.00  0.00     0.316 HD
BRANCH  26  28
HETATM   28  C2  UNL     1      25.124   7.246  50.381  1.00  0.00     0.265 C 
HETATM   29  C1  UNL     1      25.651   8.427  49.627  1.00  0.00     0.037 C 
ENDBRANCH  26  28
ENDBRANCH  25  26
ENDBRANCH   1  25
BRANCH  10  30
HETATM   30  O2  UNL     1      23.278   4.757  48.010  1.00  0.00    -0.355 OA
HETATM   31  C19 UNL     1      22.001   4.776  47.433  1.00  0.00     0.210 C 
ENDBRANCH  10  30
TORSDOF 7
ENDMDL
MODEL 7
REMARK VINA RESULT:      -7.9      3.582      6.601
REMARK  7 active torsions:
REMARK  status: ('A' for Active; 'I' for Inactive)
REMARK    1  A    between atoms: C2_2  and  N1_3 
REMARK    2  A    between atoms: N1_3  and  C3_4 
REMARK    3  A    between atoms: C3_4  and  C4_5 
REMARK    4  A    between atoms: C7_8  and  N2_9 
REMARK    5  A    between atoms: N2_9  and  C8_10 
REMARK    6  A    between atoms: C12_15  and  C13_16 
REMARK       I    between atoms: C13_16  and  N3_17 
REMARK    7  A    between atoms: C18_25  and  O2_26 
ROOT
HETATM    1  C4  UNL     1      25.690   0.553  52.828  1.00  0.00     0.004 A 
HETATM    2  C5  UNL     1      25.074   1.342  51.873  1.00  0.00     0.029 A 
HETATM    3  C6  UNL     1      23.732   1.432  51.627  1.00  0.00     0.039 A 
HETATM    4  C7  UNL     1      23.225   2.273  50.640  1.00  0.00     0.142 A 
HETATM    5  N4  UNL     1      21.869   2.321  50.458  1.00  0.00    -0.224 NA
HETATM    6  C15 UNL     1      21.119   1.526  51.272  1.00  0.00     0.236 A 
HETATM    7  N5  UNL     1      21.601   0.698  52.241  1.00  0.00    -0.241 NA
HETATM    8  C16 UNL     1      22.950   0.637  52.440  1.00  0.00     0.074 A 
HETATM    9  C17 UNL     1      23.490  -0.176  53.413  1.00  0.00     0.070 A 
HETATM   10  C18 UNL     1      24.862  -0.224  53.615  1.00  0.00     0.078 A 
ENDROOT
BRANCH   4  11
HETATM   11  N2  UNL     1      24.183   3.021  49.880  1.00  0.00    -0.340 N 
HETATM   12  H10 UNL     1      24.571   2.400  49.112  1.00  0.00     0.167 HD
BRANCH  11  13
HETATM   13  C8  UNL     1      24.593   4.371  50.057  1.00  0.00     0.034 A 
HETATM   14  C9  UNL     1      23.951   5.270  50.865  1.00  0.00     0.032 A 
HETATM   15  C10 UNL     1      24.427   6.566  50.944  1.00  0.00     0.045 A 
HETATM   16  C11 UNL     1      25.549   6.973  50.213  1.00  0.00     0.132 A 
HETATM   17  F1  UNL     1      26.028   8.237  50.279  1.00  0.00    -0.205 F 
HETATM   18  C12 UNL     1      26.184   6.049  49.403  1.00  0.00     0.072 A 
HETATM   19  C14 UNL     1      25.715   4.739  49.316  1.00  0.00     0.049 A 
BRANCH  18  20
HETATM   20  C13 UNL     1      27.350   6.375  48.597  1.00  0.00     0.252 C 
HETATM   21  N3  UNL     1      28.645   5.854  48.767  1.00  0.00    -0.366 N 
HETATM   22  H13 UNL     1      29.424   5.328  48.362  1.00  0.00     0.159 HD
HETATM   23  H14 UNL     1      29.170   5.991  49.679  1.00  0.00     0.159 HD
HETATM   24  O1  UNL     1      27.423   7.158  47.623  1.00  0.00    -0.268 OA
ENDBRANCH  18  20
ENDBRANCH  11  13
ENDBRANCH   4  11
BRANCH   1  25
HETATM   25  C3  UNL     1      27.168   0.659  52.917  1.00  0.00     0.310 C 
BRANCH  25  26
HETATM   26  N1  UNL     1      27.511   1.045  54.279  1.00  0.00     0.087 N 
HETATM   27  H6  UNL     1      27.658   2.080  54.346  1.00  0.00     0.316 HD
BRANCH  26  28
HETATM   28  C2  UNL     1      28.709   0.389  54.744  1.00  0.00     0.265 C 
HETATM   29  C1  UNL     1      29.064  -0.725  53.810  1.00  0.00     0.037 C 
ENDBRANCH  26  28
ENDBRANCH  25  26
ENDBRANCH   1  25
BRANCH  10  30
HETATM   30  O2  UNL     1      25.488  -1.015  54.575  1.00  0.00    -0.355 OA
HETATM   31  C19 UNL     1      25.036  -1.096  55.899  1.00  0.00     0.210 C 
ENDBRANCH  10  30
TORSDOF 7
ENDMDL
MODEL 8
REMARK VINA RESULT:      -7.8      3.020      7.277
REMARK  7 active torsions:
REMARK  status: ('A' for Active; 'I' for Inactive)
REMARK    1  A    between atoms: C2_2  and  N1_3 
REMARK    2  A    between atoms: N1_3  and  C3_4 
REMARK    3  A    between atoms: C3_4  and  C4_5 
REMARK    4  A    between atoms: C7_8  and  N2_9 
REMARK    5  A    between atoms: N2_9  and  C8_10 
REMARK    6  A    between atoms: C12_15  and  C13_16 
REMARK       I    between atoms: C13_16  and  N3_17 
REMARK    7  A    between atoms: C18_25  and  O2_26 
ROOT
HETATM    1  C4  UNL     1      25.476   0.804  53.329  1.00  0.00     0.004 A 
HETATM    2  C5  UNL     1      24.137   1.033  53.070  1.00  0.00     0.029 A 
HETATM    3  C6  UNL     1      23.077   0.307  53.537  1.00  0.00     0.039 A 
HETATM    4  C7  UNL     1      21.764   0.640  53.216  1.00  0.00     0.142 A 
HETATM    5  N4  UNL     1      20.752  -0.126  53.730  1.00  0.00    -0.224 NA
HETATM    6  C15 UNL     1      21.125  -1.168  54.526  1.00  0.00     0.236 A 
HETATM    7  N5  UNL     1      22.404  -1.506  54.849  1.00  0.00    -0.241 NA
HETATM    8  C16 UNL     1      23.428  -0.755  54.347  1.00  0.00     0.074 A 
HETATM    9  C17 UNL     1      24.740  -1.047  54.650  1.00  0.00     0.070 A 
HETATM   10  C18 UNL     1      25.773  -0.271  54.145  1.00  0.00     0.078 A 
ENDROOT
BRANCH   4  11
HETATM   11  N2  UNL     1      21.582   1.769  52.351  1.00  0.00    -0.340 N 
HETATM   12  H10 UNL     1      21.294   2.606  52.936  1.00  0.00     0.167 HD
BRANCH  11  13
HETATM   13  C8  UNL     1      21.749   1.838  50.941  1.00  0.00     0.034 A 
HETATM   14  C9  UNL     1      21.296   0.889  50.065  1.00  0.00     0.032 A 
HETATM   15  C10 UNL     1      21.535   1.050  48.713  1.00  0.00     0.045 A 
HETATM   16  C11 UNL     1      22.231   2.162  48.226  1.00  0.00     0.132 A 
HETATM   17  F1  UNL     1      22.474   2.334  46.906  1.00  0.00    -0.205 F 
HETATM   18  C12 UNL     1      22.682   3.110  49.127  1.00  0.00     0.072 A 
HETATM   19  C14 UNL     1      22.446   2.960  50.493  1.00  0.00     0.049 A 
BRANCH  18  20
HETATM   20  C13 UNL     1      23.423   4.294  48.724  1.00  0.00     0.252 C 
HETATM   21  N3  UNL     1      24.734   4.621  49.113  1.00  0.00    -0.366 N 
HETATM   22  H13 UNL     1      25.696   4.819  48.825  1.00  0.00     0.159 HD
HETATM   23  H14 UNL     1      24.980   4.750  50.137  1.00  0.00     0.159 HD
HETATM   24  O1  UNL     1      23.048   5.222  47.972  1.00  0.00    -0.268 OA
ENDBRANCH  18  20
ENDBRANCH  11  13
ENDBRANCH   4  11
BRANCH   1  25
HETATM   25  C3  UNL     1      26.438   1.761  52.725  1.00  0.00     0.310 C 
BRANCH  25  26
HETATM   26  N1  UNL     1      27.196   2.380  53.804  1.00  0.00     0.087 N 
HETATM   27  H6  UNL     1      26.806   3.322  54.039  1.00  0.00     0.316 HD
BRANCH  26  28
HETATM   28  C2  UNL     1      28.589   2.540  53.465  1.00  0.00     0.265 C 
HETATM   29  C1  UNL     1      29.439   2.032  54.588  1.00  0.00     0.037 C 
ENDBRANCH  26  28
ENDBRANCH  25  26
ENDBRANCH   1  25
BRANCH  10  30
HETATM   30  O2  UNL     1      27.123  -0.495  54.401  1.00  0.00    -0.355 OA
HETATM   31  C19 UNL     1      27.959  -1.179  53.507  1.00  0.00     0.210 C 
ENDBRANCH  10  30
TORSDOF 7
ENDMDL
MODEL 9
REMARK VINA RESULT:      -7.8      2.310      4.740
REMARK  7 active torsions:
REMARK  status: ('A' for Active; 'I' for Inactive)
REMARK    1  A    between atoms: C2_2  and  N1_3 
REMARK    2  A    between atoms: N1_3  and  C3_4 
REMARK    3  A    between atoms: C3_4  and  C4_5 
REMARK    4  A    between atoms: C7_8  and  N2_9 
REMARK    5  A    between atoms: N2_9  and  C8_10 
REMARK    6  A    between atoms: C12_15  and  C13_16 
REMARK       I    between atoms: C13_16  and  N3_17 
REMARK    7  A    between atoms: C18_25  and  O2_26 
ROOT
HETATM    1  C4  UNL     1      24.084   2.719  50.534  1.00  0.00     0.004 A 
HETATM    2  C5  UNL     1      24.018   1.903  51.648  1.00  0.00     0.029 A 
HETATM    3  C6  UNL     1      22.987   1.074  51.995  1.00  0.00     0.039 A 
HETATM    4  C7  UNL     1      23.037   0.286  53.142  1.00  0.00     0.142 A 
HETATM    5  N4  UNL     1      21.973  -0.528  53.420  1.00  0.00    -0.224 NA
HETATM    6  C15 UNL     1      20.938  -0.498  52.534  1.00  0.00     0.236 A 
HETATM    7  N5  UNL     1      20.874   0.267  51.408  1.00  0.00    -0.241 NA
HETATM    8  C16 UNL     1      21.926   1.086  51.112  1.00  0.00     0.074 A 
HETATM    9  C17 UNL     1      21.918   1.873  49.982  1.00  0.00     0.070 A 
HETATM   10  C18 UNL     1      22.996   2.695  49.683  1.00  0.00     0.078 A 
ENDROOT
BRANCH   4  11
HETATM   11  N2  UNL     1      24.213   0.408  53.953  1.00  0.00    -0.340 N 
HETATM   12  H10 UNL     1      23.946   0.844  54.882  1.00  0.00     0.167 HD
BRANCH  11  13
HETATM   13  C8  UNL     1      25.546   0.024  53.639  1.00  0.00     0.034 A 
HETATM   14  C9  UNL     1      25.884  -1.150  53.022  1.00  0.00     0.032 A 
HETATM   15  C10 UNL     1      27.217  -1.429  52.786  1.00  0.00     0.045 A 
HETATM   16  C11 UNL     1      28.224  -0.535  53.166  1.00  0.00     0.132 A 
HETATM   17  F1  UNL     1      29.534  -0.793  52.943  1.00  0.00    -0.205 F 
HETATM   18  C12 UNL     1      27.863   0.646  53.789  1.00  0.00     0.072 A 
HETATM   19  C14 UNL     1      26.521   0.940  54.032  1.00  0.00     0.049 A 
BRANCH  18  20
HETATM   20  C13 UNL     1      28.833   1.635  54.232  1.00  0.00     0.252 C 
HETATM   21  N3  UNL     1      29.364   2.679  53.455  1.00  0.00    -0.366 N 
HETATM   22  H13 UNL     1      29.488   3.688  53.333  1.00  0.00     0.159 HD
HETATM   23  H14 UNL     1      29.900   2.474  52.563  1.00  0.00     0.159 HD
HETATM   24  O1  UNL     1      29.365   1.744  55.359  1.00  0.00    -0.268 OA
ENDBRANCH  18  20
ENDBRANCH  11  13
ENDBRANCH   4  11
BRANCH   1  25
HETATM   25  C3  UNL     1      25.333   3.504  50.365  1.00  0.00     0.310 C 
BRANCH  25  26
HETATM   26  N1  UNL     1      25.028   4.902  50.640  1.00  0.00     0.087 N 
HETATM   27  H6  UNL     1      23.998   5.078  50.573  1.00  0.00     0.316 HD
BRANCH  26  28
HETATM   28  C2  UNL     1      25.699   5.794  49.725  1.00  0.00     0.265 C 
HETATM   29  C1  UNL     1      26.731   5.035  48.952  1.00  0.00     0.037 C 
ENDBRANCH  26  28
ENDBRANCH  25  26
ENDBRANCH   1  25
BRANCH  10  30
HETATM   30  O2  UNL     1      23.070   3.519  48.563  1.00  0.00    -0.355 OA
HETATM   31  C19 UNL     1      22.379   3.243  47.375  1.00  0.00     0.210 C 
ENDBRANCH  10  30
TORSDOF 7
ENDMDL
