MODEL 1
REMARK VINA RESULT:      -8.2      0.000      0.000
REMARK  0 active torsions:
REMARK  status: ('A' for Active; 'I' for Inactive)
ROOT
HETATM    1  C1  UNL     1      28.588  -0.873  53.466  1.00  0.00     0.041 C 
HETATM    2  C2  UNL     1      27.406  -0.013  53.557  1.00  0.00     0.164 A 
HETATM    3  N1  UNL     1      26.014   0.628  53.430  1.00  0.00    -0.227 NA
HETATM    4  C3  UNL     1      26.682   1.304  52.357  1.00  0.00     0.121 C 
HETATM    5  C4  UNL     1      25.666   2.074  51.460  1.00  0.00     0.058 C 
HETATM    6  C5  UNL     1      26.726   2.995  50.730  1.00  0.00     0.091 C 
HETATM    7  N2  UNL     1      26.275   3.744  49.854  1.00  0.00    -0.302 NA
HETATM    8  C6  UNL     1      26.987   4.681  49.052  1.00  0.00     0.175 C 
HETATM    9  C7  UNL     1      26.029   5.760  48.642  1.00  0.00    -0.005 C 
HETATM   10  C8  UNL     1      24.723   6.012  48.897  1.00  0.00    -0.003 C 
HETATM   11  C9  UNL     1      23.718   5.300  49.735  1.00  0.00    -0.003 C 
HETATM   12  C10 UNL     1      22.477   5.073  50.262  1.00  0.00    -0.007 C 
HETATM   13  C11 UNL     1      22.291   3.944  51.215  1.00  0.00     0.149 C 
HETATM   14  N3  UNL     1      23.531   3.411  51.726  1.00  0.00    -0.389 N 
HETATM   15  C12 UNL     1      22.997   2.036  51.921  1.00  0.00     0.089 C 
HETATM   16  C13 UNL     1      22.431   0.807  52.031  1.00  0.00     0.085 C 
HETATM   17  C14 UNL     1      23.424   0.183  53.020  1.00  0.00     0.020 C 
HETATM   18  C15 UNL     1      24.247  -0.360  53.867  1.00  0.00    -0.152 C 
HETATM   19  C16 UNL     1      25.240  -1.014  54.881  1.00  0.00     0.172 C 
HETATM   20  N4  UNL     1      26.295  -0.307  54.546  1.00  0.00    -0.211 NA
HETATM   21  C17 UNL     1      24.726   2.855  52.224  1.00  0.00     0.133 C 
ENDROOT
TORSDOF 0
ENDMDL
MODEL 2
REMARK VINA RESULT:      -8.2      1.775      6.571
REMARK  0 active torsions:
REMARK  status: ('A' for Active; 'I' for Inactive)
ROOT
HETATM    1  C1  UNL     1      22.884   4.895  48.042  1.00  0.00     0.041 C 
HETATM    2  C2  UNL     1      23.516   4.417  49.273  1.00  0.00     0.164 A 
HETATM    3  N1  UNL     1      24.338   3.666  50.335  1.00  0.00    -0.227 NA
HETATM    4  C3  UNL     1      23.104   2.944  50.440  1.00  0.00     0.121 C 
HETATM    5  C4  UNL     1      23.278   1.653  51.296  1.00  0.00     0.058 C 
HETATM    6  C5  UNL     1      21.739   1.395  51.556  1.00  0.00     0.091 C 
HETATM    7  N2  UNL     1      21.467   0.367  52.189  1.00  0.00    -0.302 NA
HETATM    8  C6  UNL     1      20.181  -0.107  52.577  1.00  0.00     0.175 C 
HETATM    9  C7  UNL     1      20.350  -0.954  53.803  1.00  0.00    -0.005 C 
HETATM   10  C8  UNL     1      21.409  -1.300  54.574  1.00  0.00    -0.003 C 
HETATM   11  C9  UNL     1      22.851  -0.934  54.506  1.00  0.00    -0.003 C 
HETATM   12  C10 UNL     1      24.164  -0.977  54.887  1.00  0.00    -0.007 C 
HETATM   13  C11 UNL     1      25.155  -0.130  54.167  1.00  0.00     0.149 C 
HETATM   14  N3  UNL     1      24.552   0.895  53.350  1.00  0.00    -0.389 N 
HETATM   15  C12 UNL     1      25.661   0.924  52.359  1.00  0.00     0.089 C 
HETATM   16  C13 UNL     1      26.703   0.855  51.491  1.00  0.00     0.085 C 
HETATM   17  C14 UNL     1      26.515   2.211  50.798  1.00  0.00     0.020 C 
HETATM   18  C15 UNL     1      26.382   3.360  50.206  1.00  0.00    -0.152 C 
HETATM   19  C16 UNL     1      26.218   4.740  49.490  1.00  0.00     0.172 C 
HETATM   20  N4  UNL     1      24.919   4.849  49.655  1.00  0.00    -0.211 NA
HETATM   21  C17 UNL     1      23.990   1.891  52.526  1.00  0.00     0.133 C 
ENDROOT
TORSDOF 0
ENDMDL
MODEL 3
REMARK VINA RESULT:      -8.0      3.101      6.316
REMARK  0 active torsions:
REMARK  status: ('A' for Active; 'I' for Inactive)
ROOT
HETATM    1  C1  UNL     1      18.040  -2.348  53.690  1.00  0.00     0.041 C 
HETATM    2  C2  UNL     1      18.755  -1.140  53.273  1.00  0.00     0.164 A 
HETATM    3  N1  UNL     1      19.572  -0.073  52.526  1.00  0.00    -0.227 NA
HETATM    4  C3  UNL     1      20.624  -0.688  53.280  1.00  0.00     0.121 C 
HETATM    5  C4  UNL     1      22.024  -0.213  52.784  1.00  0.00     0.058 C 
HETATM    6  C5  UNL     1      22.842  -0.697  54.049  1.00  0.00     0.091 C 
HETATM    7  N2  UNL     1      24.067  -0.534  53.992  1.00  0.00    -0.302 NA
HETATM    8  C6  UNL     1      25.041  -0.859  54.979  1.00  0.00     0.175 C 
HETATM    9  C7  UNL     1      26.216   0.054  54.788  1.00  0.00    -0.005 C 
HETATM   10  C8  UNL     1      26.493   1.074  53.941  1.00  0.00    -0.003 C 
HETATM   11  C9  UNL     1      25.693   1.714  52.859  1.00  0.00    -0.003 C 
HETATM   12  C10 UNL     1      25.470   2.582  51.826  1.00  0.00    -0.007 C 
HETATM   13  C11 UNL     1      24.134   2.595  51.167  1.00  0.00     0.149 C 
HETATM   14  N3  UNL     1      23.114   1.903  51.919  1.00  0.00    -0.389 N 
HETATM   15  C12 UNL     1      22.326   1.513  50.718  1.00  0.00     0.089 C 
HETATM   16  C13 UNL     1      21.696   1.175  49.565  1.00  0.00     0.085 C 
HETATM   17  C14 UNL     1      20.312   0.853  50.145  1.00  0.00     0.020 C 
HETATM   18  C15 UNL     1      19.130   0.587  50.613  1.00  0.00    -0.152 C 
HETATM   19  C16 UNL     1      17.709   0.262  51.178  1.00  0.00     0.172 C 
HETATM   20  N4  UNL     1      18.097  -0.108  52.377  1.00  0.00    -0.211 NA
HETATM   21  C17 UNL     1      22.103   1.217  52.620  1.00  0.00     0.133 C 
ENDROOT
TORSDOF 0
ENDMDL
MODEL 4
REMARK VINA RESULT:      -7.9      1.761      6.791
REMARK  0 active torsions:
REMARK  status: ('A' for Active; 'I' for Inactive)
ROOT
HETATM    1  C1  UNL     1      21.626   7.573  50.371  1.00  0.00     0.041 C 
HETATM    2  C2  UNL     1      22.786   6.797  50.814  1.00  0.00     0.164 A 
HETATM    3  N1  UNL     1      24.005   5.865  50.923  1.00  0.00    -0.227 NA
HETATM    4  C3  UNL     1      22.976   4.955  51.332  1.00  0.00     0.121 C 
HETATM    5  C4  UNL     1      23.510   3.491  51.390  1.00  0.00     0.058 C 
HETATM    6  C5  UNL     1      22.326   2.897  52.256  1.00  0.00     0.091 C 
HETATM    7  N2  UNL     1      22.376   1.679  52.469  1.00  0.00    -0.302 NA
HETATM    8  C6  UNL     1      21.464   0.884  53.221  1.00  0.00     0.175 C 
HETATM    9  C7  UNL     1      22.210  -0.307  53.744  1.00  0.00    -0.005 C 
HETATM   10  C8  UNL     1      23.497  -0.723  53.672  1.00  0.00    -0.003 C 
HETATM   11  C9  UNL     1      24.705  -0.116  53.045  1.00  0.00    -0.003 C 
HETATM   12  C10 UNL     1      26.018  -0.070  52.667  1.00  0.00    -0.007 C 
HETATM   13  C11 UNL     1      26.524   1.137  51.956  1.00  0.00     0.149 C 
HETATM   14  N3  UNL     1      25.633   2.269  52.035  1.00  0.00    -0.389 N 
HETATM   15  C12 UNL     1      26.057   2.845  50.731  1.00  0.00     0.089 C 
HETATM   16  C13 UNL     1      26.483   3.275  49.515  1.00  0.00     0.085 C 
HETATM   17  C14 UNL     1      26.027   4.736  49.614  1.00  0.00     0.020 C 
HETATM   18  C15 UNL     1      25.659   5.981  49.682  1.00  0.00    -0.152 C 
HETATM   19  C16 UNL     1      25.212   7.476  49.762  1.00  0.00     0.172 C 
HETATM   20  N4  UNL     1      24.200   7.295  50.581  1.00  0.00    -0.211 NA
HETATM   21  C17 UNL     1      24.772   3.384  52.077  1.00  0.00     0.133 C 
ENDROOT
TORSDOF 0
ENDMDL
MODEL 5
REMARK VINA RESULT:      -7.7      1.711      6.032
REMARK  0 active torsions:
REMARK  status: ('A' for Active; 'I' for Inactive)
ROOT
HETATM    1  C1  UNL     1      26.828   4.306  49.283  1.00  0.00     0.041 C 
HETATM    2  C2  UNL     1      25.545   3.655  49.552  1.00  0.00     0.164 A 
HETATM    3  N1  UNL     1      24.140   3.272  50.049  1.00  0.00    -0.227 NA
HETATM    4  C3  UNL     1      24.930   2.593  51.034  1.00  0.00     0.121 C 
HETATM    5  C4  UNL     1      24.046   2.090  52.215  1.00  0.00     0.058 C 
HETATM    6  C5  UNL     1      25.100   1.074  52.814  1.00  0.00     0.091 C 
HETATM    7  N2  UNL     1      24.757   0.494  53.852  1.00  0.00    -0.302 NA
HETATM    8  C6  UNL     1      25.490  -0.474  54.598  1.00  0.00     0.175 C 
HETATM    9  C7  UNL     1      24.506  -1.334  55.333  1.00  0.00    -0.005 C 
HETATM   10  C8  UNL     1      23.153  -1.383  55.394  1.00  0.00    -0.003 C 
HETATM   11  C9  UNL     1      22.097  -0.590  54.704  1.00  0.00    -0.003 C 
HETATM   12  C10 UNL     1      20.815  -0.206  54.426  1.00  0.00    -0.007 C 
HETATM   13  C11 UNL     1      20.581   0.847  53.400  1.00  0.00     0.149 C 
HETATM   14  N3  UNL     1      21.736   1.115  52.576  1.00  0.00    -0.389 N 
HETATM   15  C12 UNL     1      21.376   2.537  52.327  1.00  0.00     0.089 C 
HETATM   16  C13 UNL     1      20.984   3.829  52.185  1.00  0.00     0.085 C 
HETATM   17  C14 UNL     1      21.805   4.183  50.938  1.00  0.00     0.020 C 
HETATM   18  C15 UNL     1      22.482   4.501  49.875  1.00  0.00    -0.152 C 
HETATM   19  C16 UNL     1      23.301   4.884  48.600  1.00  0.00     0.172 C 
HETATM   20  N4  UNL     1      24.292   4.041  48.790  1.00  0.00    -0.211 NA
HETATM   21  C17 UNL     1      22.854   1.413  51.770  1.00  0.00     0.133 C 
ENDROOT
TORSDOF 0
ENDMDL
MODEL 6
REMARK VINA RESULT:      -7.6      1.340      5.898
REMARK  0 active torsions:
REMARK  status: ('A' for Active; 'I' for Inactive)
ROOT
HETATM    1  C1  UNL     1      27.919   6.020  48.412  1.00  0.00     0.041 C 
HETATM    2  C2  UNL     1      26.661   5.361  48.767  1.00  0.00     0.164 A 
HETATM    3  N1  UNL     1      25.353   4.901  49.433  1.00  0.00    -0.227 NA
HETATM    4  C3  UNL     1      26.256   3.950  50.010  1.00  0.00     0.121 C 
HETATM    5  C4  UNL     1      25.580   3.166  51.175  1.00  0.00     0.058 C 
HETATM    6  C5  UNL     1      26.636   1.990  51.243  1.00  0.00     0.091 C 
HETATM    7  N2  UNL     1      26.453   1.155  52.139  1.00  0.00    -0.302 NA
HETATM    8  C6  UNL     1      27.228  -0.005  52.426  1.00  0.00     0.175 C 
HETATM    9  C7  UNL     1      26.334  -1.003  53.100  1.00  0.00    -0.005 C 
HETATM   10  C8  UNL     1      25.021  -1.024  53.433  1.00  0.00    -0.003 C 
HETATM   11  C9  UNL     1      23.926  -0.037  53.221  1.00  0.00    -0.003 C 
HETATM   12  C10 UNL     1      22.653   0.452  53.336  1.00  0.00    -0.007 C 
HETATM   13  C11 UNL     1      22.319   1.756  52.700  1.00  0.00     0.149 C 
HETATM   14  N3  UNL     1      23.308   2.205  51.750  1.00  0.00    -0.389 N 
HETATM   15  C12 UNL     1      23.036   3.651  51.970  1.00  0.00     0.089 C 
HETATM   16  C13 UNL     1      22.742   4.944  52.264  1.00  0.00     0.085 C 
HETATM   17  C14 UNL     1      23.329   5.604  51.010  1.00  0.00     0.020 C 
HETATM   18  C15 UNL     1      23.810   6.183  49.950  1.00  0.00    -0.152 C 
HETATM   19  C16 UNL     1      24.394   6.879  48.678  1.00  0.00     0.172 C 
HETATM   20  N4  UNL     1      25.322   5.985  48.422  1.00  0.00    -0.211 NA
HETATM   21  C17 UNL     1      24.267   2.679  50.833  1.00  0.00     0.133 C 
ENDROOT
TORSDOF 0
ENDMDL
MODEL 7
REMARK VINA RESULT:      -7.6      2.893      5.777
REMARK  0 active torsions:
REMARK  status: ('A' for Active; 'I' for Inactive)
ROOT
HETATM    1  C1  UNL     1      17.712   2.031  50.646  1.00  0.00     0.041 C 
HETATM    2  C2  UNL     1      18.783   1.116  51.045  1.00  0.00     0.164 A 
HETATM    3  N1  UNL     1      19.852   0.309  51.801  1.00  0.00    -0.227 NA
HETATM    4  C3  UNL     1      20.666   1.388  51.323  1.00  0.00     0.121 C 
HETATM    5  C4  UNL     1      22.068   1.379  52.004  1.00  0.00     0.058 C 
HETATM    6  C5  UNL     1      22.782   2.341  50.970  1.00  0.00     0.091 C 
HETATM    7  N2  UNL     1      23.957   2.630  51.228  1.00  0.00    -0.302 NA
HETATM    8  C6  UNL     1      24.841   3.455  50.475  1.00  0.00     0.175 C 
HETATM    9  C7  UNL     1      26.245   3.017  50.769  1.00  0.00    -0.005 C 
HETATM   10  C8  UNL     1      26.791   2.039  51.531  1.00  0.00    -0.003 C 
HETATM   11  C9  UNL     1      26.177   0.973  52.371  1.00  0.00    -0.003 C 
HETATM   12  C10 UNL     1      26.184  -0.081  53.242  1.00  0.00    -0.007 C 
HETATM   13  C11 UNL     1      24.889  -0.696  53.644  1.00  0.00     0.149 C 
HETATM   14  N3  UNL     1      23.780  -0.307  52.805  1.00  0.00    -0.389 N 
HETATM   15  C12 UNL     1      22.762  -0.447  53.881  1.00  0.00     0.089 C 
HETATM   16  C13 UNL     1      21.913  -0.569  54.934  1.00  0.00     0.085 C 
HETATM   17  C14 UNL     1      20.596  -0.681  54.155  1.00  0.00     0.020 C 
HETATM   18  C15 UNL     1      19.470  -0.789  53.515  1.00  0.00    -0.152 C 
HETATM   19  C16 UNL     1      18.116  -0.913  52.745  1.00  0.00     0.172 C 
HETATM   20  N4  UNL     1      18.474  -0.224  51.685  1.00  0.00    -0.211 NA
HETATM   21  C17 UNL     1      22.676   0.073  52.016  1.00  0.00     0.133 C 
ENDROOT
TORSDOF 0
ENDMDL
MODEL 8
REMARK VINA RESULT:      -7.4      7.149     10.405
REMARK  0 active torsions:
REMARK  status: ('A' for Active; 'I' for Inactive)
ROOT
HETATM    1  C1  UNL     1      26.235   7.142  47.982  1.00  0.00     0.041 C 
HETATM    2  C2  UNL     1      27.559   7.472  48.512  1.00  0.00     0.164 A 
HETATM    3  N1  UNL     1      28.984   8.002  48.744  1.00  0.00    -0.227 NA
HETATM    4  C3  UNL     1      29.298   6.722  48.180  1.00  0.00     0.121 C 
HETATM    5  C4  UNL     1      30.812   6.621  47.821  1.00  0.00     0.058 C 
HETATM    6  C5  UNL     1      30.863   5.047  47.677  1.00  0.00     0.091 C 
HETATM    7  N2  UNL     1      31.951   4.575  47.324  1.00  0.00    -0.302 NA
HETATM    8  C6  UNL     1      32.289   3.205  47.128  1.00  0.00     0.175 C 
HETATM    9  C7  UNL     1      33.766   3.057  47.345  1.00  0.00    -0.005 C 
HETATM   10  C8  UNL     1      34.760   3.908  47.698  1.00  0.00    -0.003 C 
HETATM   11  C9  UNL     1      34.753   5.357  48.043  1.00  0.00    -0.003 C 
HETATM   12  C10 UNL     1      35.316   6.557  48.378  1.00  0.00    -0.007 C 
HETATM   13  C11 UNL     1      34.432   7.734  48.600  1.00  0.00     0.149 C 
HETATM   14  N3  UNL     1      33.039   7.389  48.753  1.00  0.00    -0.389 N 
HETATM   15  C12 UNL     1      32.536   8.676  48.202  1.00  0.00     0.089 C 
HETATM   16  C13 UNL     1      32.174   9.865  47.654  1.00  0.00     0.085 C 
HETATM   17  C14 UNL     1      30.730   9.924  48.169  1.00  0.00     0.020 C 
HETATM   18  C15 UNL     1      29.508  10.001  48.604  1.00  0.00    -0.152 C 
HETATM   19  C16 UNL     1      28.036  10.089  49.123  1.00  0.00     0.172 C 
HETATM   20  N4  UNL     1      27.820   8.796  49.205  1.00  0.00    -0.211 NA
HETATM   21  C17 UNL     1      31.669   7.083  48.884  1.00  0.00     0.133 C 
ENDROOT
TORSDOF 0
ENDMDL
MODEL 9
REMARK VINA RESULT:      -7.2      2.344      6.958
REMARK  0 active torsions:
REMARK  status: ('A' for Active; 'I' for Inactive)
ROOT
HETATM    1  C1  UNL     1      23.041   7.295  46.266  1.00  0.00     0.041 C 
HETATM    2  C2  UNL     1      23.512   6.716  47.525  1.00  0.00     0.164 A 
HETATM    3  N1  UNL     1      24.220   5.900  48.620  1.00  0.00    -0.227 NA
HETATM    4  C3  UNL     1      23.052   5.089  48.442  1.00  0.00     0.121 C 
HETATM    5  C4  UNL     1      23.202   3.719  49.171  1.00  0.00     0.058 C 
HETATM    6  C5  UNL     1      21.669   3.328  49.145  1.00  0.00     0.091 C 
HETATM    7  N2  UNL     1      21.391   2.215  49.609  1.00  0.00    -0.302 NA
HETATM    8  C6  UNL     1      20.106   1.611  49.727  1.00  0.00     0.175 C 
HETATM    9  C7  UNL     1      20.155   0.637  50.866  1.00  0.00    -0.005 C 
HETATM   10  C8  UNL     1      21.107   0.272  51.758  1.00  0.00    -0.003 C 
HETATM   11  C9  UNL     1      22.505   0.741  51.968  1.00  0.00    -0.003 C 
HETATM   12  C10 UNL     1      23.741   0.740  52.552  1.00  0.00    -0.007 C 
HETATM   13  C11 UNL     1      24.755   1.733  52.102  1.00  0.00     0.149 C 
HETATM   14  N3  UNL     1      24.200   2.806  51.312  1.00  0.00    -0.389 N 
HETATM   15  C12 UNL     1      25.444   3.030  50.526  1.00  0.00     0.089 C 
HETATM   16  C13 UNL     1      26.610   3.136  49.839  1.00  0.00     0.085 C 
HETATM   17  C14 UNL     1      26.417   4.550  49.275  1.00  0.00     0.020 C 
HETATM   18  C15 UNL     1      26.278   5.750  48.797  1.00  0.00    -0.152 C 
HETATM   19  C16 UNL     1      26.109   7.192  48.218  1.00  0.00     0.172 C 
HETATM   20  N4  UNL     1      24.796   7.193  48.177  1.00  0.00    -0.211 NA
HETATM   21  C17 UNL     1      23.690   3.854  50.520  1.00  0.00     0.133 C 
ENDROOT
TORSDOF 0
ENDMDL
