MODEL 1
REMARK VINA RESULT:      -8.1      0.000      0.000
REMARK  6 active torsions:
REMARK  status: ('A' for Active; 'I' for Inactive)
REMARK    1  A    between atoms: C2_2  and  C3_3 
REMARK    2  A    between atoms: C3_3  and  N4_20 
REMARK    3  A    between atoms: C4_4  and  C5_5 
REMARK    4  A    between atoms: C6_6  and  N1_7 
REMARK    5  A    between atoms: N3_12  and  C10_13 
REMARK       I    between atoms: N4_20  and  C16_21 
REMARK    6  A    between atoms: C16_21  and  C17_23 
ROOT
HETATM    1  C5  UNL     1      23.224   5.636  50.848  1.00  0.00     0.057 A 
HETATM    2  C6  UNL     1      22.847   7.078  50.802  1.00  0.00     0.069 A 
HETATM    3  C8  UNL     1      21.673   7.542  50.464  1.00  0.00     0.149 A 
HETATM    4  N2  UNL     1      20.684   6.615  50.116  1.00  0.00    -0.253 NA
HETATM    5  C9  UNL     1      20.848   5.343  50.106  1.00  0.00     0.214 A 
HETATM    6  N3  UNL     1      22.126   4.769  50.470  1.00  0.00    -0.307 N 
ENDROOT
BRANCH   1   7
HETATM    7  C4  UNL     1      24.187   4.751  51.103  1.00  0.00     0.105 C 
HETATM    8  C3  UNL     1      25.378   4.141  50.607  1.00  0.00     0.033 C 
BRANCH   8   9
HETATM    9  C2  UNL     1      26.246   4.132  49.556  1.00  0.00    -0.011 C 
HETATM   10  C1  UNL     1      27.298   4.580  48.855  1.00  0.00     0.026 C 
ENDBRANCH   8   9
BRANCH   8  11
HETATM   11  N4  UNL     1      25.978   3.169  51.439  1.00  0.00    -0.327 N 
HETATM   12  C16 UNL     1      25.792   1.880  51.969  1.00  0.00     0.244 C 
HETATM   13  O1  UNL     1      24.739   1.288  51.648  1.00  0.00    -0.271 OA
HETATM   14  H14 UNL     1      26.917   3.274  51.931  1.00  0.00     0.168 HD
BRANCH  12  15
HETATM   15  C17 UNL     1      26.475   0.920  52.842  1.00  0.00     0.177 C 
HETATM   16  C18 UNL     1      26.689  -0.433  52.257  1.00  0.00     0.044 C 
HETATM   17  C19 UNL     1      27.869  -0.960  53.058  1.00  0.00     0.105 C 
HETATM   18  C20 UNL     1      28.674   0.265  53.292  1.00  0.00     0.218 C 
HETATM   19  O2  UNL     1      29.878   0.123  53.670  1.00  0.00    -0.274 OA
HETATM   20  N5  UNL     1      27.857   1.398  53.020  1.00  0.00    -0.348 N 
HETATM   21  H20 UNL     1      28.382   2.313  53.002  1.00  0.00     0.163 HD
ENDBRANCH  12  15
ENDBRANCH   8  11
ENDBRANCH   1   7
BRANCH   2  22
HETATM   22  N1  UNL     1      24.001   7.820  51.192  1.00  0.00    -0.392 N 
HETATM   23  C7  UNL     1      24.944   8.285  50.190  1.00  0.00     0.146 C 
HETATM   24  H4  UNL     1      24.152   8.020  52.206  1.00  0.00     0.159 HD
ENDBRANCH   2  22
BRANCH   6  25
HETATM   25  C10 UNL     1      21.897   3.377  50.332  1.00  0.00     0.041 A 
HETATM   26  C11 UNL     1      22.156   2.852  49.072  1.00  0.00     0.030 A 
HETATM   27  C12 UNL     1      21.911   1.479  48.957  1.00  0.00     0.004 A 
HETATM   28  C13 UNL     1      21.446   0.749  50.050  1.00  0.00     0.019 A 
HETATM   29  C14 UNL     1      21.212   1.359  51.286  1.00  0.00     0.013 A 
HETATM   30 BR1  UNL     1      20.579   0.325  52.749  1.00  0.00    -0.051 Br
HETATM   31  C15 UNL     1      21.441   2.728  51.452  1.00  0.00     0.049 A 
ENDBRANCH   6  25
TORSDOF 6
ENDMDL
MODEL 2
REMARK VINA RESULT:      -8.1      3.474      7.224
REMARK  6 active torsions:
REMARK  status: ('A' for Active; 'I' for Inactive)
REMARK    1  A    between atoms: C2_2  and  C3_3 
REMARK    2  A    between atoms: C3_3  and  N4_20 
REMARK    3  A    between atoms: C4_4  and  C5_5 
REMARK    4  A    between atoms: C6_6  and  N1_7 
REMARK    5  A    between atoms: N3_12  and  C10_13 
REMARK       I    between atoms: N4_20  and  C16_21 
REMARK    6  A    between atoms: C16_21  and  C17_23 
ROOT
HETATM    1  C5  UNL     1      23.311   0.345  53.237  1.00  0.00     0.057 A 
HETATM    2  C6  UNL     1      22.187  -0.410  53.862  1.00  0.00     0.069 A 
HETATM    3  C8  UNL     1      22.297  -1.225  54.878  1.00  0.00     0.149 A 
HETATM    4  N2  UNL     1      23.571  -1.408  55.428  1.00  0.00    -0.253 NA
HETATM    5  C9  UNL     1      24.637  -0.834  55.006  1.00  0.00     0.214 A 
HETATM    6  N3  UNL     1      24.579   0.079  53.884  1.00  0.00    -0.307 N 
ENDROOT
BRANCH   1   7
HETATM    7  C4  UNL     1      23.672   1.208  52.287  1.00  0.00     0.105 C 
HETATM    8  C3  UNL     1      23.343   1.746  51.007  1.00  0.00     0.033 C 
BRANCH   8   9
HETATM    9  C2  UNL     1      22.424   1.692  50.002  1.00  0.00    -0.011 C 
HETATM   10  C1  UNL     1      21.483   1.094  49.257  1.00  0.00     0.026 C 
ENDBRANCH   8   9
BRANCH   8  11
HETATM   11  N4  UNL     1      24.226   2.721  50.491  1.00  0.00    -0.327 N 
HETATM   12  C16 UNL     1      24.510   4.098  50.512  1.00  0.00     0.244 C 
HETATM   13  O1  UNL     1      23.765   4.813  51.216  1.00  0.00    -0.271 OA
HETATM   14  H14 UNL     1      25.038   2.528  49.830  1.00  0.00     0.168 HD
BRANCH  12  15
HETATM   15  C17 UNL     1      25.464   5.052  49.938  1.00  0.00     0.177 C 
HETATM   16  C18 UNL     1      25.066   5.644  48.630  1.00  0.00     0.044 C 
HETATM   17  C19 UNL     1      25.853   6.944  48.598  1.00  0.00     0.105 C 
HETATM   18  C20 UNL     1      25.855   7.356  50.024  1.00  0.00     0.218 C 
HETATM   19  O2  UNL     1      26.168   8.556  50.297  1.00  0.00    -0.274 OA
HETATM   20  N5  UNL     1      25.479   6.235  50.816  1.00  0.00    -0.348 N 
HETATM   21  H20 UNL     1      25.295   6.467  51.829  1.00  0.00     0.163 HD
ENDBRANCH  12  15
ENDBRANCH   8  11
ENDBRANCH   1   7
BRANCH   2  22
HETATM   22  N1  UNL     1      21.006  -0.065  53.142  1.00  0.00    -0.392 N 
HETATM   23  C7  UNL     1      19.731  -0.664  53.500  1.00  0.00     0.146 C 
HETATM   24  H4  UNL     1      21.075   0.623  52.360  1.00  0.00     0.159 HD
ENDBRANCH   2  22
BRANCH   6  25
HETATM   25  C10 UNL     1      25.930   0.485  53.738  1.00  0.00     0.041 A 
HETATM   26  C11 UNL     1      26.138   1.857  53.685  1.00  0.00     0.030 A 
HETATM   27  C12 UNL     1      27.477   2.232  53.529  1.00  0.00     0.004 A 
HETATM   28  C13 UNL     1      28.477   1.265  53.438  1.00  0.00     0.019 A 
HETATM   29  C14 UNL     1      28.178  -0.099  53.501  1.00  0.00     0.013 A 
HETATM   30 BR1  UNL     1      29.573  -1.383  53.374  1.00  0.00    -0.051 Br
HETATM   31  C15 UNL     1      26.856  -0.526  53.657  1.00  0.00     0.049 A 
ENDBRANCH   6  25
TORSDOF 6
ENDMDL
MODEL 3
REMARK VINA RESULT:      -8.1      3.077      5.947
REMARK  6 active torsions:
REMARK  status: ('A' for Active; 'I' for Inactive)
REMARK    1  A    between atoms: C2_2  and  C3_3 
REMARK    2  A    between atoms: C3_3  and  N4_20 
REMARK    3  A    between atoms: C4_4  and  C5_5 
REMARK    4  A    between atoms: C6_6  and  N1_7 
REMARK    5  A    between atoms: N3_12  and  C10_13 
REMARK       I    between atoms: N4_20  and  C16_21 
REMARK    6  A    between atoms: C16_21  and  C17_23 
ROOT
HETATM    1  C5  UNL     1      24.366   0.696  52.829  1.00  0.00     0.057 A 
HETATM    2  C6  UNL     1      24.270  -0.407  53.828  1.00  0.00     0.069 A 
HETATM    3  C8  UNL     1      23.157  -0.896  54.310  1.00  0.00     0.149 A 
HETATM    4  N2  UNL     1      21.955  -0.342  53.855  1.00  0.00    -0.253 NA
HETATM    5  C9  UNL     1      21.867   0.608  53.000  1.00  0.00     0.214 A 
HETATM    6  N3  UNL     1      23.064   1.191  52.431  1.00  0.00    -0.307 N 
ENDROOT
BRANCH   1   7
HETATM    7  C4  UNL     1      25.177   1.465  52.104  1.00  0.00     0.105 C 
HETATM    8  C3  UNL     1      26.486   2.025  52.010  1.00  0.00     0.033 C 
BRANCH   8   9
HETATM    9  C2  UNL     1      27.701   2.076  52.627  1.00  0.00    -0.011 C 
HETATM   10  C1  UNL     1      28.550   2.461  53.590  1.00  0.00     0.026 C 
ENDBRANCH   8   9
BRANCH   8  11
HETATM   11  N4  UNL     1      26.737   2.847  50.888  1.00  0.00    -0.327 N 
HETATM   12  C16 UNL     1      26.228   3.939  50.164  1.00  0.00     0.244 C 
HETATM   13  O1  UNL     1      25.163   4.441  50.583  1.00  0.00    -0.271 OA
HETATM   14  H14 UNL     1      27.573   2.758  50.234  1.00  0.00     0.168 HD
BRANCH  12  15
HETATM   15  C17 UNL     1      26.553   4.751  48.988  1.00  0.00     0.177 C 
HETATM   16  C18 UNL     1      25.923   6.101  48.951  1.00  0.00     0.044 C 
HETATM   17  C19 UNL     1      26.857   6.880  48.038  1.00  0.00     0.105 C 
HETATM   18  C20 UNL     1      28.186   6.308  48.370  1.00  0.00     0.218 C 
HETATM   19  O2  UNL     1      29.219   6.949  48.003  1.00  0.00    -0.274 OA
HETATM   20  N5  UNL     1      27.986   5.085  49.070  1.00  0.00    -0.348 N 
HETATM   21  H20 UNL     1      28.866   4.681  49.490  1.00  0.00     0.163 HD
ENDBRANCH  12  15
ENDBRANCH   8  11
ENDBRANCH   1   7
BRANCH   2  22
HETATM   22  N1  UNL     1      25.604  -0.804  54.136  1.00  0.00    -0.392 N 
HETATM   23  C7  UNL     1      26.344  -0.128  55.188  1.00  0.00     0.146 C 
HETATM   24  H4  UNL     1      26.035  -1.585  53.594  1.00  0.00     0.159 HD
ENDBRANCH   2  22
BRANCH   6  25
HETATM   25  C10 UNL     1      22.548   2.182  51.557  1.00  0.00     0.041 A 
HETATM   26  C11 UNL     1      22.030   3.312  52.177  1.00  0.00     0.030 A 
HETATM   27  C12 UNL     1      21.517   4.270  51.295  1.00  0.00     0.004 A 
HETATM   28  C13 UNL     1      21.547   4.054  49.919  1.00  0.00     0.019 A 
HETATM   29  C14 UNL     1      22.088   2.883  49.378  1.00  0.00     0.013 A 
HETATM   30 BR1  UNL     1      22.110   2.629  47.495  1.00  0.00    -0.051 Br
HETATM   31  C15 UNL     1      22.614   1.896  50.216  1.00  0.00     0.049 A 
ENDBRANCH   6  25
TORSDOF 6
ENDMDL
MODEL 4
REMARK VINA RESULT:      -7.8      3.011      5.248
REMARK  6 active torsions:
REMARK  status: ('A' for Active; 'I' for Inactive)
REMARK    1  A    between atoms: C2_2  and  C3_3 
REMARK    2  A    between atoms: C3_3  and  N4_20 
REMARK    3  A    between atoms: C4_4  and  C5_5 
REMARK    4  A    between atoms: C6_6  and  N1_7 
REMARK    5  A    between atoms: N3_12  and  C10_13 
REMARK       I    between atoms: N4_20  and  C16_21 
REMARK    6  A    between atoms: C16_21  and  C17_23 
ROOT
HETATM    1  C5  UNL     1      22.071   1.297  51.094  1.00  0.00     0.057 A 
HETATM    2  C6  UNL     1      20.672   1.132  50.608  1.00  0.00     0.069 A 
HETATM    3  C8  UNL     1      20.160   1.723  49.560  1.00  0.00     0.149 A 
HETATM    4  N2  UNL     1      20.990   2.583  48.831  1.00  0.00    -0.253 NA
HETATM    5  C9  UNL     1      22.214   2.832  49.119  1.00  0.00     0.214 A 
HETATM    6  N3  UNL     1      22.836   2.208  50.267  1.00  0.00    -0.307 N 
ENDROOT
BRANCH   1   7
HETATM    7  C4  UNL     1      22.972   0.949  52.013  1.00  0.00     0.105 C 
HETATM    8  C3  UNL     1      23.193   0.226  53.223  1.00  0.00     0.033 C 
BRANCH   8   9
HETATM    9  C2  UNL     1      22.582  -0.563  54.151  1.00  0.00    -0.011 C 
HETATM   10  C1  UNL     1      21.882  -1.634  54.552  1.00  0.00     0.026 C 
ENDBRANCH   8   9
BRANCH   8  11
HETATM   11  N4  UNL     1      24.505   0.263  53.745  1.00  0.00    -0.327 N 
HETATM   12  C16 UNL     1      25.781  -0.310  53.607  1.00  0.00     0.244 C 
HETATM   13  O1  UNL     1      25.910  -1.187  52.726  1.00  0.00    -0.271 OA
HETATM   14  H14 UNL     1      24.836   0.897  54.535  1.00  0.00     0.168 HD
BRANCH  12  15
HETATM   15  C17 UNL     1      27.120  -0.217  54.198  1.00  0.00     0.177 C 
HETATM   16  C18 UNL     1      28.246  -0.553  53.282  1.00  0.00     0.044 C 
HETATM   17  C19 UNL     1      29.418   0.182  53.911  1.00  0.00     0.105 C 
HETATM   18  C20 UNL     1      28.780   1.411  54.448  1.00  0.00     0.218 C 
HETATM   19  O2  UNL     1      29.533   2.382  54.768  1.00  0.00    -0.274 OA
HETATM   20  N5  UNL     1      27.372   1.206  54.484  1.00  0.00    -0.348 N 
HETATM   21  H20 UNL     1      26.817   2.077  54.699  1.00  0.00     0.163 HD
ENDBRANCH  12  15
ENDBRANCH   8  11
ENDBRANCH   1   7
BRANCH   2  22
HETATM   22  N1  UNL     1      20.029   0.220  51.497  1.00  0.00    -0.392 N 
HETATM   23  C7  UNL     1      18.579   0.145  51.544  1.00  0.00     0.146 C 
HETATM   24  H4  UNL     1      20.619  -0.388  52.107  1.00  0.00     0.159 HD
ENDBRANCH   2  22
BRANCH   6  25
HETATM   25  C10 UNL     1      24.154   2.732  50.237  1.00  0.00     0.041 A 
HETATM   26  C11 UNL     1      25.127   1.933  50.823  1.00  0.00     0.030 A 
HETATM   27  C12 UNL     1      26.416   2.477  50.790  1.00  0.00     0.004 A 
HETATM   28  C13 UNL     1      26.645   3.722  50.206  1.00  0.00     0.019 A 
HETATM   29  C14 UNL     1      25.604   4.461  49.637  1.00  0.00     0.013 A 
HETATM   30 BR1  UNL     1      25.961   6.153  48.850  1.00  0.00    -0.051 Br
HETATM   31  C15 UNL     1      24.298   3.962  49.643  1.00  0.00     0.049 A 
ENDBRANCH   6  25
TORSDOF 6
ENDMDL
MODEL 5
REMARK VINA RESULT:      -7.8      2.723      6.876
REMARK  6 active torsions:
REMARK  status: ('A' for Active; 'I' for Inactive)
REMARK    1  A    between atoms: C2_2  and  C3_3 
REMARK    2  A    between atoms: C3_3  and  N4_20 
REMARK    3  A    between atoms: C4_4  and  C5_5 
REMARK    4  A    between atoms: C6_6  and  N1_7 
REMARK    5  A    between atoms: N3_12  and  C10_13 
REMARK       I    between atoms: N4_20  and  C16_21 
REMARK    6  A    between atoms: C16_21  and  C17_23 
ROOT
HETATM    1  C5  UNL     1      25.250   1.838  53.401  1.00  0.00     0.057 A 
HETATM    2  C6  UNL     1      26.470   1.357  54.110  1.00  0.00     0.069 A 
HETATM    3  C8  UNL     1      26.641   0.152  54.588  1.00  0.00     0.149 A 
HETATM    4  N2  UNL     1      25.597  -0.765  54.424  1.00  0.00    -0.253 NA
HETATM    5  C9  UNL     1      24.486  -0.508  53.838  1.00  0.00     0.214 A 
HETATM    6  N3  UNL     1      24.238   0.808  53.289  1.00  0.00    -0.307 N 
ENDROOT
BRANCH   1   7
HETATM    7  C4  UNL     1      24.656   2.864  52.791  1.00  0.00     0.105 C 
HETATM    8  C3  UNL     1      24.675   3.717  51.649  1.00  0.00     0.033 C 
BRANCH   8   9
HETATM    9  C2  UNL     1      25.329   3.964  50.479  1.00  0.00    -0.011 C 
HETATM   10  C1  UNL     1      26.273   3.739  49.552  1.00  0.00     0.026 C 
ENDBRANCH   8   9
BRANCH   8  11
HETATM   11  N4  UNL     1      23.678   4.718  51.596  1.00  0.00    -0.327 N 
HETATM   12  C16 UNL     1      22.476   5.068  50.958  1.00  0.00     0.244 C 
HETATM   13  O1  UNL     1      22.041   4.266  50.103  1.00  0.00    -0.271 OA
HETATM   14  H14 UNL     1      23.664   5.605  52.186  1.00  0.00     0.168 HD
BRANCH  12  15
HETATM   15  C17 UNL     1      21.480   6.145  50.959  1.00  0.00     0.177 C 
HETATM   16  C18 UNL     1      21.994   7.488  50.569  1.00  0.00     0.044 C 
HETATM   17  C19 UNL     1      20.739   8.196  50.083  1.00  0.00     0.105 C 
HETATM   18  C20 UNL     1      19.973   7.096  49.446  1.00  0.00     0.218 C 
HETATM   19  O2  UNL     1      19.015   7.408  48.672  1.00  0.00    -0.274 OA
HETATM   20  N5  UNL     1      20.524   5.856  49.876  1.00  0.00    -0.348 N 
HETATM   21  H20 UNL     1      20.153   5.017  49.355  1.00  0.00     0.163 HD
ENDBRANCH  12  15
ENDBRANCH   8  11
ENDBRANCH   1   7
BRANCH   2  22
HETATM   22  N1  UNL     1      27.382   2.453  54.154  1.00  0.00    -0.392 N 
HETATM   23  C7  UNL     1      28.650   2.376  53.449  1.00  0.00     0.146 C 
HETATM   24  H4  UNL     1      27.121   3.304  54.699  1.00  0.00     0.159 HD
ENDBRANCH   2  22
BRANCH   6  25
HETATM   25  C10 UNL     1      22.933   0.682  52.746  1.00  0.00     0.041 A 
HETATM   26  C11 UNL     1      21.937   0.355  53.657  1.00  0.00     0.030 A 
HETATM   27  C12 UNL     1      20.662   0.225  53.096  1.00  0.00     0.004 A 
HETATM   28  C13 UNL     1      20.467   0.418  51.729  1.00  0.00     0.019 A 
HETATM   29  C14 UNL     1      21.530   0.747  50.882  1.00  0.00     0.013 A 
HETATM   30 BR1  UNL     1      21.218   1.002  49.025  1.00  0.00    -0.051 Br
HETATM   31  C15 UNL     1      22.823   0.888  51.393  1.00  0.00     0.049 A 
ENDBRANCH   6  25
TORSDOF 6
ENDMDL
MODEL 6
REMARK VINA RESULT:      -7.7      2.773      4.595
REMARK  6 active torsions:
REMARK  status: ('A' for Active; 'I' for Inactive)
REMARK    1  A    between atoms: C2_2  and  C3_3 
REMARK    2  A    between atoms: C3_3  and  N4_20 
REMARK    3  A    between atoms: C4_4  and  C5_5 
REMARK    4  A    between atoms: C6_6  and  N1_7 
REMARK    5  A    between atoms: N3_12  and  C10_13 
REMARK       I    between atoms: N4_20  and  C16_21 
REMARK    6  A    between atoms: C16_21  and  C17_23 
ROOT
HETATM    1  C5  UNL     1      22.606   3.623  51.323  1.00  0.00     0.057 A 
HETATM    2  C6  UNL     1      21.210   4.123  51.478  1.00  0.00     0.069 A 
HETATM    3  C8  UNL     1      20.711   5.171  50.876  1.00  0.00     0.149 A 
HETATM    4  N2  UNL     1      21.552   5.887  50.016  1.00  0.00    -0.253 NA
HETATM    5  C9  UNL     1      22.775   5.587  49.776  1.00  0.00     0.214 A 
HETATM    6  N3  UNL     1      23.383   4.438  50.412  1.00  0.00    -0.307 N 
ENDROOT
BRANCH   1   7
HETATM    7  C4  UNL     1      23.497   2.698  51.680  1.00  0.00     0.105 C 
HETATM    8  C3  UNL     1      23.707   1.502  52.429  1.00  0.00     0.033 C 
BRANCH   8   9
HETATM    9  C2  UNL     1      23.083   0.583  53.220  1.00  0.00    -0.011 C 
HETATM   10  C1  UNL     1      22.046   0.095  53.916  1.00  0.00     0.026 C 
ENDBRANCH   8   9
BRANCH   8  11
HETATM   11  N4  UNL     1      25.016   0.971  52.408  1.00  0.00    -0.327 N 
HETATM   12  C16 UNL     1      26.305   1.149  52.939  1.00  0.00     0.244 C 
HETATM   13  O1  UNL     1      26.457   2.102  53.734  1.00  0.00    -0.271 OA
HETATM   14  H14 UNL     1      25.329   0.125  51.841  1.00  0.00     0.168 HD
BRANCH  12  15
HETATM   15  C17 UNL     1      27.639   0.544  52.868  1.00  0.00     0.177 C 
HETATM   16  C18 UNL     1      28.470   0.686  54.096  1.00  0.00     0.044 C 
HETATM   17  C19 UNL     1      29.444  -0.475  53.977  1.00  0.00     0.105 C 
HETATM   18  C20 UNL     1      28.615  -1.528  53.340  1.00  0.00     0.218 C 
HETATM   19  O2  UNL     1      29.039  -2.725  53.377  1.00  0.00    -0.274 OA
HETATM   20  N5  UNL     1      27.452  -0.916  52.794  1.00  0.00    -0.348 N 
HETATM   21  H20 UNL     1      26.722  -1.600  52.460  1.00  0.00     0.163 HD
ENDBRANCH  12  15
ENDBRANCH   8  11
ENDBRANCH   1   7
BRANCH   2  22
HETATM   22  N1  UNL     1      20.554   3.244  52.389  1.00  0.00    -0.392 N 
HETATM   23  C7  UNL     1      19.694   2.184  51.891  1.00  0.00     0.146 C 
HETATM   24  H4  UNL     1      20.704   3.376  53.413  1.00  0.00     0.159 HD
ENDBRANCH   2  22
BRANCH   6  25
HETATM   25  C10 UNL     1      24.705   4.456  49.898  1.00  0.00     0.041 A 
HETATM   26  C11 UNL     1      25.349   3.225  49.866  1.00  0.00     0.030 A 
HETATM   27  C12 UNL     1      26.655   3.271  49.366  1.00  0.00     0.004 A 
HETATM   28  C13 UNL     1      27.212   4.478  48.948  1.00  0.00     0.019 A 
HETATM   29  C14 UNL     1      26.490   5.674  49.015  1.00  0.00     0.013 A 
HETATM   30 BR1  UNL     1      27.289   7.297  48.435  1.00  0.00    -0.051 Br
HETATM   31  C15 UNL     1      25.182   5.683  49.507  1.00  0.00     0.049 A 
ENDBRANCH   6  25
TORSDOF 6
ENDMDL
MODEL 7
REMARK VINA RESULT:      -7.6      3.444      5.352
REMARK  6 active torsions:
REMARK  status: ('A' for Active; 'I' for Inactive)
REMARK    1  A    between atoms: C2_2  and  C3_3 
REMARK    2  A    between atoms: C3_3  and  N4_20 
REMARK    3  A    between atoms: C4_4  and  C5_5 
REMARK    4  A    between atoms: C6_6  and  N1_7 
REMARK    5  A    between atoms: N3_12  and  C10_13 
REMARK       I    between atoms: N4_20  and  C16_21 
REMARK    6  A    between atoms: C16_21  and  C17_23 
ROOT
HETATM    1  C5  UNL     1      19.919   0.207  51.835  1.00  0.00     0.057 A 
HETATM    2  C6  UNL     1      18.613  -0.354  52.283  1.00  0.00     0.069 A 
HETATM    3  C8  UNL     1      17.470  -0.192  51.669  1.00  0.00     0.149 A 
HETATM    4  N2  UNL     1      17.467   0.569  50.494  1.00  0.00    -0.253 NA
HETATM    5  C9  UNL     1      18.505   1.118  49.979  1.00  0.00     0.214 A 
HETATM    6  N3  UNL     1      19.798   0.975  50.613  1.00  0.00    -0.307 N 
ENDROOT
BRANCH   1   7
HETATM    7  C4  UNL     1      21.224   0.312  52.088  1.00  0.00     0.105 C 
HETATM    8  C3  UNL     1      22.290   1.211  52.386  1.00  0.00     0.033 C 
BRANCH   8   9
HETATM    9  C2  UNL     1      22.584   2.524  52.608  1.00  0.00    -0.011 C 
HETATM   10  C1  UNL     1      23.302   3.645  52.443  1.00  0.00     0.026 C 
ENDBRANCH   8   9
BRANCH   8  11
HETATM   11  N4  UNL     1      23.571   0.635  52.544  1.00  0.00    -0.327 N 
HETATM   12  C16 UNL     1      24.309  -0.251  53.348  1.00  0.00     0.244 C 
HETATM   13  O1  UNL     1      23.701  -0.778  54.305  1.00  0.00    -0.271 OA
HETATM   14  H14 UNL     1      24.412   0.821  51.916  1.00  0.00     0.168 HD
BRANCH  12  15
HETATM   15  C17 UNL     1      25.661  -0.810  53.449  1.00  0.00     0.177 C 
HETATM   16  C18 UNL     1      26.585  -0.445  52.339  1.00  0.00     0.044 C 
HETATM   17  C19 UNL     1      27.955  -0.614  52.976  1.00  0.00     0.105 C 
HETATM   18  C20 UNL     1      27.715  -0.188  54.378  1.00  0.00     0.218 C 
HETATM   19  O2  UNL     1      28.724   0.079  55.101  1.00  0.00    -0.274 OA
HETATM   20  N5  UNL     1      26.310  -0.175  54.609  1.00  0.00    -0.348 N 
HETATM   21  H20 UNL     1      26.029   0.268  55.524  1.00  0.00     0.163 HD
ENDBRANCH  12  15
ENDBRANCH   8  11
ENDBRANCH   1   7
BRANCH   2  22
HETATM   22  N1  UNL     1      18.864  -1.082  53.483  1.00  0.00    -0.392 N 
HETATM   23  C7  UNL     1      18.144  -2.315  53.754  1.00  0.00     0.146 C 
HETATM   24  H4  UNL     1      19.571  -0.714  54.157  1.00  0.00     0.159 HD
ENDBRANCH   2  22
BRANCH   6  25
HETATM   25  C10 UNL     1      20.653   1.711  49.755  1.00  0.00     0.041 A 
HETATM   26  C11 UNL     1      21.429   0.949  48.890  1.00  0.00     0.030 A 
HETATM   27  C12 UNL     1      22.273   1.697  48.062  1.00  0.00     0.004 A 
HETATM   28  C13 UNL     1      22.293   3.089  48.142  1.00  0.00     0.019 A 
HETATM   29  C14 UNL     1      21.476   3.777  49.044  1.00  0.00     0.013 A 
HETATM   30 BR1  UNL     1      21.535   5.675  49.119  1.00  0.00    -0.051 Br
HETATM   31  C15 UNL     1      20.615   3.077  49.893  1.00  0.00     0.049 A 
ENDBRANCH   6  25
TORSDOF 6
ENDMDL
MODEL 8
REMARK VINA RESULT:      -7.6      3.421      7.615
REMARK  6 active torsions:
REMARK  status: ('A' for Active; 'I' for Inactive)
REMARK    1  A    between atoms: C2_2  and  C3_3 
REMARK    2  A    between atoms: C3_3  and  N4_20 
REMARK    3  A    between atoms: C4_4  and  C5_5 
REMARK    4  A    between atoms: C6_6  and  N1_7 
REMARK    5  A    between atoms: N3_12  and  C10_13 
REMARK       I    between atoms: N4_20  and  C16_21 
REMARK    6  A    between atoms: C16_21  and  C17_23 
ROOT
HETATM    1  C5  UNL     1      25.405   0.519  52.621  1.00  0.00     0.057 A 
HETATM    2  C6  UNL     1      26.774   0.017  52.929  1.00  0.00     0.069 A 
HETATM    3  C8  UNL     1      27.875   0.717  52.836  1.00  0.00     0.149 A 
HETATM    4  N2  UNL     1      27.763   2.047  52.413  1.00  0.00    -0.253 NA
HETATM    5  C9  UNL     1      26.661   2.626  52.110  1.00  0.00     0.214 A 
HETATM    6  N3  UNL     1      25.410   1.903  52.193  1.00  0.00    -0.307 N 
ENDROOT
BRANCH   1   7
HETATM    7  C4  UNL     1      24.105   0.227  52.566  1.00  0.00     0.105 C 
HETATM    8  C3  UNL     1      23.010  -0.376  53.254  1.00  0.00     0.033 C 
BRANCH   8   9
HETATM    9  C2  UNL     1      22.659  -1.004  54.411  1.00  0.00    -0.011 C 
HETATM   10  C1  UNL     1      22.905  -1.557  55.608  1.00  0.00     0.026 C 
ENDBRANCH   8   9
BRANCH   8  11
HETATM   11  N4  UNL     1      21.767  -0.368  52.582  1.00  0.00    -0.327 N 
HETATM   12  C16 UNL     1      20.748   0.485  52.123  1.00  0.00     0.244 C 
HETATM   13  O1  UNL     1      20.901   1.707  52.336  1.00  0.00    -0.271 OA
HETATM   14  H14 UNL     1      21.261  -1.229  52.213  1.00  0.00     0.168 HD
BRANCH  12  15
HETATM   15  C17 UNL     1      19.463   0.416  51.419  1.00  0.00     0.177 C 
HETATM   16  C18 UNL     1      18.426  -0.434  52.069  1.00  0.00     0.044 C 
HETATM   17  C19 UNL     1      17.131   0.142  51.519  1.00  0.00     0.105 C 
HETATM   18  C20 UNL     1      17.441   1.590  51.411  1.00  0.00     0.218 C 
HETATM   19  O2  UNL     1      16.471   2.398  51.271  1.00  0.00    -0.274 OA
HETATM   20  N5  UNL     1      18.853   1.754  51.494  1.00  0.00    -0.348 N 
HETATM   21  H20 UNL     1      19.163   2.758  51.588  1.00  0.00     0.163 HD
ENDBRANCH  12  15
ENDBRANCH   8  11
ENDBRANCH   1   7
BRANCH   2  22
HETATM   22  N1  UNL     1      26.636  -1.343  53.335  1.00  0.00    -0.392 N 
HETATM   23  C7  UNL     1      27.290  -2.400  52.583  1.00  0.00     0.146 C 
HETATM   24  H4  UNL     1      26.059  -1.561  54.177  1.00  0.00     0.159 HD
ENDBRANCH   2  22
BRANCH   6  25
HETATM   25  C10 UNL     1      24.458   2.872  51.786  1.00  0.00     0.041 A 
HETATM   26  C11 UNL     1      23.958   3.680  52.800  1.00  0.00     0.030 A 
HETATM   27  C12 UNL     1      23.012   4.620  52.375  1.00  0.00     0.004 A 
HETATM   28  C13 UNL     1      22.640   4.693  51.033  1.00  0.00     0.019 A 
HETATM   29  C14 UNL     1      23.195   3.839  50.076  1.00  0.00     0.013 A 
HETATM   30 BR1  UNL     1      22.659   3.974  48.259  1.00  0.00    -0.051 Br
HETATM   31  C15 UNL     1      24.144   2.882  50.449  1.00  0.00     0.049 A 
ENDBRANCH   6  25
TORSDOF 6
ENDMDL
MODEL 9
REMARK VINA RESULT:      -7.5      3.346      7.493
REMARK  6 active torsions:
REMARK  status: ('A' for Active; 'I' for Inactive)
REMARK    1  A    between atoms: C2_2  and  C3_3 
REMARK    2  A    between atoms: C3_3  and  N4_20 
REMARK    3  A    between atoms: C4_4  and  C5_5 
REMARK    4  A    between atoms: C6_6  and  N1_7 
REMARK    5  A    between atoms: N3_12  and  C10_13 
REMARK       I    between atoms: N4_20  and  C16_21 
REMARK    6  A    between atoms: C16_21  and  C17_23 
ROOT
HETATM    1  C5  UNL     1      25.392   0.528  53.542  1.00  0.00     0.057 A 
HETATM    2  C6  UNL     1      26.306  -0.050  54.567  1.00  0.00     0.069 A 
HETATM    3  C8  UNL     1      27.514   0.378  54.830  1.00  0.00     0.149 A 
HETATM    4  N2  UNL     1      27.992   1.466  54.091  1.00  0.00    -0.253 NA
HETATM    5  C9  UNL     1      27.330   2.073  53.177  1.00  0.00     0.214 A 
HETATM    6  N3  UNL     1      25.989   1.646  52.840  1.00  0.00    -0.307 N 
ENDROOT
BRANCH   1   7
HETATM    7  C4  UNL     1      24.194   0.457  52.960  1.00  0.00     0.105 C 
HETATM    8  C3  UNL     1      22.918  -0.179  52.982  1.00  0.00     0.033 C 
BRANCH   8   9
HETATM    9  C2  UNL     1      22.165  -1.099  53.650  1.00  0.00    -0.011 C 
HETATM   10  C1  UNL     1      21.082  -1.513  54.323  1.00  0.00     0.026 C 
ENDBRANCH   8   9
BRANCH   8  11
HETATM   11  N4  UNL     1      21.999   0.225  51.987  1.00  0.00    -0.327 N 
HETATM   12  C16 UNL     1      21.079   1.235  51.657  1.00  0.00     0.244 C 
HETATM   13  O1  UNL     1      20.950   2.167  52.480  1.00  0.00    -0.271 OA
HETATM   14  H14 UNL     1      21.796  -0.303  51.084  1.00  0.00     0.168 HD
BRANCH  12  15
HETATM   15  C17 UNL     1      20.145   1.592  50.584  1.00  0.00     0.177 C 
HETATM   16  C18 UNL     1      19.530   2.944  50.697  1.00  0.00     0.044 C 
HETATM   17  C19 UNL     1      19.149   3.258  49.259  1.00  0.00     0.105 C 
HETATM   18  C20 UNL     1      20.245   2.621  48.487  1.00  0.00     0.218 C 
HETATM   19  O2  UNL     1      20.391   2.957  47.271  1.00  0.00    -0.274 OA
HETATM   20  N5  UNL     1      20.931   1.715  49.344  1.00  0.00    -0.348 N 
HETATM   21  H20 UNL     1      21.825   1.331  48.937  1.00  0.00     0.163 HD
ENDBRANCH  12  15
ENDBRANCH   8  11
ENDBRANCH   1   7
BRANCH   2  22
HETATM   22  N1  UNL     1      25.609  -1.131  55.182  1.00  0.00    -0.392 N 
HETATM   23  C7  UNL     1      24.829  -0.906  56.387  1.00  0.00     0.146 C 
HETATM   24  H4  UNL     1      25.669  -2.079  54.751  1.00  0.00     0.159 HD
ENDBRANCH   2  22
BRANCH   6  25
HETATM   25  C10 UNL     1      25.619   2.549  51.810  1.00  0.00     0.041 A 
HETATM   26  C11 UNL     1      26.480   2.595  50.720  1.00  0.00     0.030 A 
HETATM   27  C12 UNL     1      26.100   3.500  49.724  1.00  0.00     0.004 A 
HETATM   28  C13 UNL     1      24.945   4.268  49.867  1.00  0.00     0.019 A 
HETATM   29  C14 UNL     1      24.135   4.158  51.000  1.00  0.00     0.013 A 
HETATM   30 BR1  UNL     1      22.569   5.224  51.153  1.00  0.00    -0.051 Br
HETATM   31  C15 UNL     1      24.469   3.268  52.025  1.00  0.00     0.049 A 
ENDBRANCH   6  25
TORSDOF 6
ENDMDL
