MODEL 1
REMARK VINA RESULT:      -7.4      0.000      0.000
REMARK  4 active torsions:
REMARK  status: ('A' for Active; 'I' for Inactive)
REMARK    1  A    between atoms: O1_2  and  C2_3 
REMARK    2  A    between atoms: C6_9  and  N3_10 
REMARK    3  A    between atoms: N3_10  and  C7_11 
REMARK    4  A    between atoms: C14_19  and  O2_20 
ROOT
HETATM    1  C2  UNL     1      27.143  -0.236  53.621  1.00  0.00     0.054 C 
HETATM    2  C3  UNL     1      25.999  -0.511  54.213  1.00  0.00     0.065 C 
HETATM    3  C4  UNL     1      24.672  -0.052  53.781  1.00  0.00     0.074 A 
HETATM    4  N1  UNL     1      23.652  -0.826  54.196  1.00  0.00    -0.241 NA
HETATM    5  C5  UNL     1      22.389  -0.454  53.833  1.00  0.00     0.236 A 
HETATM    6  N2  UNL     1      22.145   0.657  53.076  1.00  0.00    -0.224 NA
HETATM    7  C6  UNL     1      23.163   1.453  52.645  1.00  0.00     0.142 A 
HETATM    8  C12 UNL     1      24.420   1.078  53.010  1.00  0.00     0.041 A 
HETATM    9  C13 UNL     1      25.388   2.046  52.450  1.00  0.00     0.050 C 
HETATM   10  C14 UNL     1      26.678   1.763  52.226  1.00  0.00     0.050 C 
HETATM   11  C15 UNL     1      27.516   0.553  52.420  1.00  0.00     0.128 C 
ENDROOT
BRANCH   7  12
HETATM   12  N3  UNL     1      22.872   2.606  51.860  1.00  0.00    -0.340 N 
HETATM   13  H6  UNL     1      22.979   3.599  52.175  1.00  0.00     0.167 HD
BRANCH  12  14
HETATM   14  C7  UNL     1      22.388   2.345  50.525  1.00  0.00     0.031 A 
HETATM   15  C8  UNL     1      21.330   1.780  49.925  1.00  0.00     0.022 A 
HETATM   16  C9  UNL     1      21.468   1.849  48.446  1.00  0.00     0.105 A 
HETATM   17 BR1  UNL     1      20.074   2.933  47.705  1.00  0.00    -0.083 Br
HETATM   18  C10 UNL     1      22.763   2.539  48.250  1.00  0.00    -0.005 A 
HETATM   19  C11 UNL     1      23.257   2.805  49.444  1.00  0.00     0.026 A 
ENDBRANCH  12  14
ENDBRANCH   7  12
BRANCH  10  20
HETATM   20  O2  UNL     1      27.353   2.871  51.691  1.00  0.00    -0.365 OA
HETATM   21  H12 UNL     1      26.911   3.313  50.907  1.00  0.00     0.217 HD
ENDBRANCH  10  20
BRANCH   1  22
HETATM   22  O1  UNL     1      28.238  -0.792  54.234  1.00  0.00    -0.360 OA
HETATM   23  C1  UNL     1      29.570  -0.711  53.856  1.00  0.00     0.209 C 
ENDBRANCH   1  22
TORSDOF 4
ENDMDL
MODEL 2
REMARK VINA RESULT:      -7.3      4.328      6.690
REMARK  4 active torsions:
REMARK  status: ('A' for Active; 'I' for Inactive)
REMARK    1  A    between atoms: O1_2  and  C2_3 
REMARK    2  A    between atoms: C6_9  and  N3_10 
REMARK    3  A    between atoms: N3_10  and  C7_11 
REMARK    4  A    between atoms: C14_19  and  O2_20 
ROOT
HETATM    1  C2  UNL     1      19.068  -0.851  53.099  1.00  0.00     0.054 C 
HETATM    2  C3  UNL     1      19.921  -1.510  53.855  1.00  0.00     0.065 C 
HETATM    3  C4  UNL     1      21.344  -1.191  54.031  1.00  0.00     0.074 A 
HETATM    4  N1  UNL     1      21.881  -1.646  55.178  1.00  0.00    -0.241 NA
HETATM    5  C5  UNL     1      23.203  -1.387  55.404  1.00  0.00     0.236 A 
HETATM    6  N2  UNL     1      23.972  -0.693  54.513  1.00  0.00    -0.224 NA
HETATM    7  C6  UNL     1      23.449  -0.223  53.347  1.00  0.00     0.142 A 
HETATM    8  C12 UNL     1      22.131  -0.484  53.126  1.00  0.00     0.041 A 
HETATM    9  C13 UNL     1      21.738   0.104  51.827  1.00  0.00     0.050 C 
HETATM   10  C14 UNL     1      20.478   0.429  51.508  1.00  0.00     0.050 C 
HETATM   11  C15 UNL     1      19.180   0.341  52.221  1.00  0.00     0.128 C 
ENDROOT
BRANCH   7  12
HETATM   12  N3  UNL     1      24.282   0.493  52.439  1.00  0.00    -0.340 N 
HETATM   13  H6  UNL     1      23.946   1.075  51.636  1.00  0.00     0.167 HD
BRANCH  12  14
HETATM   14  C7  UNL     1      25.702   0.380  52.676  1.00  0.00     0.031 A 
HETATM   15  C8  UNL     1      26.727   1.154  53.064  1.00  0.00     0.022 A 
HETATM   16  C9  UNL     1      27.990   0.370  53.101  1.00  0.00     0.105 A 
HETATM   17 BR1  UNL     1      28.654   0.279  54.895  1.00  0.00    -0.083 Br
HETATM   18  C10 UNL     1      27.569  -0.985  52.680  1.00  0.00    -0.005 A 
HETATM   19  C11 UNL     1      26.271  -0.945  52.447  1.00  0.00     0.026 A 
ENDBRANCH  12  14
ENDBRANCH   7  12
BRANCH  10  20
HETATM   20  O2  UNL     1      20.408   0.966  50.213  1.00  0.00    -0.365 OA
HETATM   21  H12 UNL     1      19.600   1.526  50.018  1.00  0.00     0.217 HD
ENDBRANCH  10  20
BRANCH   1  22
HETATM   22  O1  UNL     1      17.795  -1.363  53.114  1.00  0.00    -0.360 OA
HETATM   23  C1  UNL     1      17.380  -2.630  53.499  1.00  0.00     0.209 C 
ENDBRANCH   1  22
TORSDOF 4
ENDMDL
MODEL 3
REMARK VINA RESULT:      -7.2      1.800      2.990
REMARK  4 active torsions:
REMARK  status: ('A' for Active; 'I' for Inactive)
REMARK    1  A    between atoms: O1_2  and  C2_3 
REMARK    2  A    between atoms: C6_9  and  N3_10 
REMARK    3  A    between atoms: N3_10  and  C7_11 
REMARK    4  A    between atoms: C14_19  and  O2_20 
ROOT
HETATM    1  C2  UNL     1      26.870  -0.348  53.493  1.00  0.00     0.054 C 
HETATM    2  C3  UNL     1      27.156   0.394  52.445  1.00  0.00     0.065 C 
HETATM    3  C4  UNL     1      26.303   1.442  51.870  1.00  0.00     0.074 A 
HETATM    4  N1  UNL     1      26.965   2.377  51.164  1.00  0.00    -0.241 NA
HETATM    5  C5  UNL     1      26.230   3.380  50.598  1.00  0.00     0.236 A 
HETATM    6  N2  UNL     1      24.872   3.453  50.731  1.00  0.00    -0.224 NA
HETATM    7  C6  UNL     1      24.183   2.519  51.443  1.00  0.00     0.142 A 
HETATM    8  C12 UNL     1      24.919   1.522  52.004  1.00  0.00     0.041 A 
HETATM    9  C13 UNL     1      24.012   0.613  52.739  1.00  0.00     0.050 C 
HETATM   10  C14 UNL     1      24.407  -0.180  53.744  1.00  0.00     0.050 C 
HETATM   11  C15 UNL     1      25.708  -0.422  54.415  1.00  0.00     0.128 C 
ENDROOT
BRANCH   7  12
HETATM   12  N3  UNL     1      22.766   2.625  51.558  1.00  0.00    -0.340 N 
HETATM   13  H6  UNL     1      22.233   2.697  52.456  1.00  0.00     0.167 HD
BRANCH  12  14
HETATM   14  C7  UNL     1      22.039   2.626  50.310  1.00  0.00     0.031 A 
HETATM   15  C8  UNL     1      21.366   3.488  49.533  1.00  0.00     0.022 A 
HETATM   16  C9  UNL     1      20.838   2.800  48.325  1.00  0.00     0.105 A 
HETATM   17 BR1  UNL     1      21.647   3.526  46.748  1.00  0.00    -0.083 Br
HETATM   18  C10 UNL     1      21.296   1.402  48.494  1.00  0.00    -0.005 A 
HETATM   19  C11 UNL     1      21.971   1.338  49.626  1.00  0.00     0.026 A 
ENDBRANCH  12  14
ENDBRANCH   7  12
BRANCH  10  20
HETATM   20  O2  UNL     1      23.332  -0.929  54.249  1.00  0.00    -0.365 OA
HETATM   21  H12 UNL     1      23.401  -1.922  54.134  1.00  0.00     0.217 HD
ENDBRANCH  10  20
BRANCH   1  22
HETATM   22  O1  UNL     1      27.846  -1.257  53.820  1.00  0.00    -0.360 OA
HETATM   23  C1  UNL     1      29.189  -1.241  53.472  1.00  0.00     0.209 C 
ENDBRANCH   1  22
TORSDOF 4
ENDMDL
MODEL 4
REMARK VINA RESULT:      -6.9      1.936      3.240
REMARK  4 active torsions:
REMARK  status: ('A' for Active; 'I' for Inactive)
REMARK    1  A    between atoms: O1_2  and  C2_3 
REMARK    2  A    between atoms: C6_9  and  N3_10 
REMARK    3  A    between atoms: N3_10  and  C7_11 
REMARK    4  A    between atoms: C14_19  and  O2_20 
ROOT
HETATM    1  C2  UNL     1      27.533   0.137  53.896  1.00  0.00     0.054 C 
HETATM    2  C3  UNL     1      27.161   0.633  52.734  1.00  0.00     0.065 C 
HETATM    3  C4  UNL     1      25.810   1.091  52.384  1.00  0.00     0.074 A 
HETATM    4  N1  UNL     1      25.767   1.989  51.382  1.00  0.00    -0.241 NA
HETATM    5  C5  UNL     1      24.540   2.454  51.003  1.00  0.00     0.236 A 
HETATM    6  N2  UNL     1      23.385   2.039  51.604  1.00  0.00    -0.224 NA
HETATM    7  C6  UNL     1      23.406   1.133  52.620  1.00  0.00     0.142 A 
HETATM    8  C12 UNL     1      24.631   0.672  52.994  1.00  0.00     0.041 A 
HETATM    9  C13 UNL     1      24.461  -0.289  54.106  1.00  0.00     0.050 C 
HETATM   10  C14 UNL     1      25.425  -0.583  54.989  1.00  0.00     0.050 C 
HETATM   11  C15 UNL     1      26.826  -0.130  55.174  1.00  0.00     0.128 C 
ENDROOT
BRANCH   7  12
HETATM   12  N3  UNL     1      22.182   0.719  53.221  1.00  0.00    -0.340 N 
HETATM   13  H6  UNL     1      22.097   0.130  54.083  1.00  0.00     0.167 HD
BRANCH  12  14
HETATM   14  C7  UNL     1      20.980   1.166  52.557  1.00  0.00     0.031 A 
HETATM   15  C8  UNL     1      20.166   2.233  52.549  1.00  0.00     0.022 A 
HETATM   16  C9  UNL     1      19.055   2.036  51.581  1.00  0.00     0.105 A 
HETATM   17 BR1  UNL     1      19.166   3.335  50.179  1.00  0.00    -0.083 Br
HETATM   18  C10 UNL     1      19.325   0.696  51.011  1.00  0.00    -0.005 A 
HETATM   19  C11 UNL     1      20.420   0.232  51.584  1.00  0.00     0.026 A 
ENDBRANCH  12  14
ENDBRANCH   7  12
BRANCH  10  20
HETATM   20  O2  UNL     1      24.978  -1.524  55.930  1.00  0.00    -0.365 OA
HETATM   21  H12 UNL     1      24.252  -1.212  56.547  1.00  0.00     0.217 HD
ENDBRANCH  10  20
BRANCH   1  22
HETATM   22  O1  UNL     1      28.858  -0.214  53.956  1.00  0.00    -0.360 OA
HETATM   23  C1  UNL     1      29.471  -1.355  53.457  1.00  0.00     0.209 C 
ENDBRANCH   1  22
TORSDOF 4
ENDMDL
MODEL 5
REMARK VINA RESULT:      -6.9      3.561      4.868
REMARK  4 active torsions:
REMARK  status: ('A' for Active; 'I' for Inactive)
REMARK    1  A    between atoms: O1_2  and  C2_3 
REMARK    2  A    between atoms: C6_9  and  N3_10 
REMARK    3  A    between atoms: N3_10  and  C7_11 
REMARK    4  A    between atoms: C14_19  and  O2_20 
ROOT
HETATM    1  C2  UNL     1      23.284   0.581  53.046  1.00  0.00     0.054 C 
HETATM    2  C3  UNL     1      22.184   1.254  52.786  1.00  0.00     0.065 C 
HETATM    3  C4  UNL     1      22.113   2.643  52.313  1.00  0.00     0.074 A 
HETATM    4  N1  UNL     1      20.982   2.951  51.652  1.00  0.00    -0.241 NA
HETATM    5  C5  UNL     1      20.849   4.229  51.188  1.00  0.00     0.236 A 
HETATM    6  N2  UNL     1      21.816   5.177  51.375  1.00  0.00    -0.224 NA
HETATM    7  C6  UNL     1      22.968   4.886  52.039  1.00  0.00     0.142 A 
HETATM    8  C12 UNL     1      23.095   3.611  52.500  1.00  0.00     0.041 A 
HETATM    9  C13 UNL     1      24.401   3.478  53.183  1.00  0.00     0.050 C 
HETATM   10  C14 UNL     1      25.037   2.311  53.351  1.00  0.00     0.050 C 
HETATM   11  C15 UNL     1      24.731   0.908  52.977  1.00  0.00     0.128 C 
ENDROOT
BRANCH   7  12
HETATM   12  N3  UNL     1      23.953   5.900  52.220  1.00  0.00    -0.340 N 
HETATM   13  H6  UNL     1      24.283   6.269  53.142  1.00  0.00     0.167 HD
BRANCH  12  14
HETATM   14  C7  UNL     1      24.519   6.440  51.006  1.00  0.00     0.031 A 
HETATM   15  C8  UNL     1      24.648   7.625  50.390  1.00  0.00     0.022 A 
HETATM   16  C9  UNL     1      25.376   7.469  49.102  1.00  0.00     0.105 A 
HETATM   17 BR1  UNL     1      27.034   8.424  49.164  1.00  0.00    -0.083 Br
HETATM   18  C10 UNL     1      25.664   6.018  49.040  1.00  0.00    -0.005 A 
HETATM   19  C11 UNL     1      25.166   5.466  50.131  1.00  0.00     0.026 A 
ENDBRANCH  12  14
ENDBRANCH   7  12
BRANCH  10  20
HETATM   20  O2  UNL     1      26.252   2.491  54.031  1.00  0.00    -0.365 OA
HETATM   21  H12 UNL     1      27.080   2.285  53.504  1.00  0.00     0.217 HD
ENDBRANCH  10  20
BRANCH   1  22
HETATM   22  O1  UNL     1      23.066  -0.704  53.476  1.00  0.00    -0.360 OA
HETATM   23  C1  UNL     1      22.320  -1.134  54.564  1.00  0.00     0.209 C 
ENDBRANCH   1  22
TORSDOF 4
ENDMDL
MODEL 6
REMARK VINA RESULT:      -6.8      3.766      6.735
REMARK  4 active torsions:
REMARK  status: ('A' for Active; 'I' for Inactive)
REMARK    1  A    between atoms: O1_2  and  C2_3 
REMARK    2  A    between atoms: C6_9  and  N3_10 
REMARK    3  A    between atoms: N3_10  and  C7_11 
REMARK    4  A    between atoms: C14_19  and  O2_20 
ROOT
HETATM    1  C2  UNL     1      21.201   1.157  50.367  1.00  0.00     0.054 C 
HETATM    2  C3  UNL     1      21.913   2.102  49.791  1.00  0.00     0.065 C 
HETATM    3  C4  UNL     1      23.260   2.532  50.190  1.00  0.00     0.074 A 
HETATM    4  N1  UNL     1      23.973   3.115  49.209  1.00  0.00    -0.241 NA
HETATM    5  C5  UNL     1      25.234   3.543  49.513  1.00  0.00     0.236 A 
HETATM    6  N2  UNL     1      25.774   3.394  50.760  1.00  0.00    -0.224 NA
HETATM    7  C6  UNL     1      25.070   2.806  51.766  1.00  0.00     0.142 A 
HETATM    8  C12 UNL     1      23.814   2.382  51.458  1.00  0.00     0.041 A 
HETATM    9  C13 UNL     1      23.209   1.767  52.660  1.00  0.00     0.050 C 
HETATM   10  C14 UNL     1      22.211   0.874  52.616  1.00  0.00     0.050 C 
HETATM   11  C15 UNL     1      21.438   0.246  51.517  1.00  0.00     0.128 C 
ENDROOT
BRANCH   7  12
HETATM   12  N3  UNL     1      25.662   2.671  53.055  1.00  0.00    -0.340 N 
HETATM   13  H6  UNL     1      25.563   3.352  53.844  1.00  0.00     0.167 HD
BRANCH  12  14
HETATM   14  C7  UNL     1      26.462   1.484  53.251  1.00  0.00     0.031 A 
HETATM   15  C8  UNL     1      27.283   0.691  52.548  1.00  0.00     0.022 A 
HETATM   16  C9  UNL     1      27.799  -0.415  53.399  1.00  0.00     0.105 A 
HETATM   17 BR1  UNL     1      29.698  -0.266  53.591  1.00  0.00    -0.083 Br
HETATM   18  C10 UNL     1      27.166  -0.163  54.714  1.00  0.00    -0.005 A 
HETATM   19  C11 UNL     1      26.417   0.917  54.596  1.00  0.00     0.026 A 
ENDBRANCH  12  14
ENDBRANCH   7  12
BRANCH  10  20
HETATM   20  O2  UNL     1      21.843   0.465  53.908  1.00  0.00    -0.365 OA
HETATM   21  H12 UNL     1      21.130  -0.238  53.955  1.00  0.00     0.217 HD
ENDBRANCH  10  20
BRANCH   1  22
HETATM   22  O1  UNL     1      19.970   0.955  49.794  1.00  0.00    -0.360 OA
HETATM   23  C1  UNL     1      18.753   0.735  50.422  1.00  0.00     0.209 C 
ENDBRANCH   1  22
TORSDOF 4
ENDMDL
MODEL 7
REMARK VINA RESULT:      -6.7      3.539      4.945
REMARK  4 active torsions:
REMARK  status: ('A' for Active; 'I' for Inactive)
REMARK    1  A    between atoms: O1_2  and  C2_3 
REMARK    2  A    between atoms: C6_9  and  N3_10 
REMARK    3  A    between atoms: N3_10  and  C7_11 
REMARK    4  A    between atoms: C14_19  and  O2_20 
ROOT
HETATM    1  C2  UNL     1      23.199   0.113  53.621  1.00  0.00     0.054 C 
HETATM    2  C3  UNL     1      24.513   0.130  53.542  1.00  0.00     0.065 C 
HETATM    3  C4  UNL     1      25.318   1.051  52.729  1.00  0.00     0.074 A 
HETATM    4  N1  UNL     1      26.578   1.227  53.167  1.00  0.00    -0.241 NA
HETATM    5  C5  UNL     1      27.384   2.069  52.454  1.00  0.00     0.236 A 
HETATM    6  N2  UNL     1      26.948   2.720  51.334  1.00  0.00    -0.224 NA
HETATM    7  C6  UNL     1      25.677   2.557  50.874  1.00  0.00     0.142 A 
HETATM    8  C12 UNL     1      24.878   1.717  51.588  1.00  0.00     0.041 A 
HETATM    9  C13 UNL     1      23.543   1.670  50.952  1.00  0.00     0.050 C 
HETATM   10  C14 UNL     1      22.422   1.326  51.600  1.00  0.00     0.050 C 
HETATM   11  C15 UNL     1      22.121   0.922  52.995  1.00  0.00     0.128 C 
ENDROOT
BRANCH   7  12
HETATM   12  N3  UNL     1      25.257   3.248  49.701  1.00  0.00    -0.340 N 
HETATM   13  H6  UNL     1      24.773   2.815  48.880  1.00  0.00     0.167 HD
BRANCH  12  14
HETATM   14  C7  UNL     1      25.541   4.664  49.678  1.00  0.00     0.031 A 
HETATM   15  C8  UNL     1      26.401   5.513  49.095  1.00  0.00     0.022 A 
HETATM   16  C9  UNL     1      26.131   6.911  49.527  1.00  0.00     0.105 A 
HETATM   17 BR1  UNL     1      25.588   7.969  48.027  1.00  0.00    -0.083 Br
HETATM   18  C10 UNL     1      24.982   6.771  50.451  1.00  0.00    -0.005 A 
HETATM   19  C11 UNL     1      24.674   5.489  50.514  1.00  0.00     0.026 A 
ENDBRANCH  12  14
ENDBRANCH   7  12
BRANCH  10  20
HETATM   20  O2  UNL     1      21.311   1.371  50.743  1.00  0.00    -0.365 OA
HETATM   21  H12 UNL     1      20.449   1.033  51.130  1.00  0.00     0.217 HD
ENDBRANCH  10  20
BRANCH   1  22
HETATM   22  O1  UNL     1      22.700  -0.853  54.457  1.00  0.00    -0.360 OA
HETATM   23  C1  UNL     1      21.421  -1.391  54.486  1.00  0.00     0.209 C 
ENDBRANCH   1  22
TORSDOF 4
ENDMDL
MODEL 8
REMARK VINA RESULT:      -6.7      3.936      6.729
REMARK  4 active torsions:
REMARK  status: ('A' for Active; 'I' for Inactive)
REMARK    1  A    between atoms: O1_2  and  C2_3 
REMARK    2  A    between atoms: C6_9  and  N3_10 
REMARK    3  A    between atoms: N3_10  and  C7_11 
REMARK    4  A    between atoms: C14_19  and  O2_20 
ROOT
HETATM    1  C2  UNL     1      23.508   6.074  50.543  1.00  0.00     0.054 C 
HETATM    2  C3  UNL     1      22.843   5.007  50.934  1.00  0.00     0.065 C 
HETATM    3  C4  UNL     1      23.432   3.744  51.398  1.00  0.00     0.074 A 
HETATM    4  N1  UNL     1      22.630   3.013  52.194  1.00  0.00    -0.241 NA
HETATM    5  C5  UNL     1      23.115   1.823  52.658  1.00  0.00     0.236 A 
HETATM    6  N2  UNL     1      24.365   1.371  52.340  1.00  0.00    -0.224 NA
HETATM    7  C6  UNL     1      25.193   2.095  51.537  1.00  0.00     0.142 A 
HETATM    8  C12 UNL     1      24.705   3.280  51.077  1.00  0.00     0.041 A 
HETATM    9  C13 UNL     1      25.735   3.927  50.235  1.00  0.00     0.050 C 
HETATM   10  C14 UNL     1      25.784   5.245  50.000  1.00  0.00     0.050 C 
HETATM   11  C15 UNL     1      24.953   6.398  50.425  1.00  0.00     0.128 C 
ENDROOT
BRANCH   7  12
HETATM   12  N3  UNL     1      26.488   1.592  51.222  1.00  0.00    -0.340 N 
HETATM   13  H6  UNL     1      26.940   1.624  50.278  1.00  0.00     0.167 HD
BRANCH  12  14
HETATM   14  C7  UNL     1      27.207   0.992  52.322  1.00  0.00     0.031 A 
HETATM   15  C8  UNL     1      27.387  -0.218  52.871  1.00  0.00     0.022 A 
HETATM   16  C9  UNL     1      28.297  -0.130  54.045  1.00  0.00     0.105 A 
HETATM   17 BR1  UNL     1      29.900  -1.122  53.710  1.00  0.00    -0.083 Br
HETATM   18  C10 UNL     1      28.634   1.310  54.114  1.00  0.00    -0.005 A 
HETATM   19  C11 UNL     1      28.002   1.916  53.127  1.00  0.00     0.026 A 
ENDBRANCH  12  14
ENDBRANCH   7  12
BRANCH  10  20
HETATM   20  O2  UNL     1      26.868   5.570  49.169  1.00  0.00    -0.365 OA
HETATM   21  H12 UNL     1      27.083   6.547  49.097  1.00  0.00     0.217 HD
ENDBRANCH  10  20
BRANCH   1  22
HETATM   22  O1  UNL     1      22.711   7.122  50.158  1.00  0.00    -0.360 OA
HETATM   23  C1  UNL     1      21.464   7.482  50.650  1.00  0.00     0.209 C 
ENDBRANCH   1  22
TORSDOF 4
ENDMDL
MODEL 9
REMARK VINA RESULT:      -6.6      4.222      6.987
REMARK  4 active torsions:
REMARK  status: ('A' for Active; 'I' for Inactive)
REMARK    1  A    between atoms: O1_2  and  C2_3 
REMARK    2  A    between atoms: C6_9  and  N3_10 
REMARK    3  A    between atoms: N3_10  and  C7_11 
REMARK    4  A    between atoms: C14_19  and  O2_20 
ROOT
HETATM    1  C2  UNL     1      26.203   7.102  47.933  1.00  0.00     0.054 C 
HETATM    2  C3  UNL     1      25.050   6.586  48.301  1.00  0.00     0.065 C 
HETATM    3  C4  UNL     1      24.860   5.496  49.266  1.00  0.00     0.074 A 
HETATM    4  N1  UNL     1      23.649   5.473  49.853  1.00  0.00    -0.241 NA
HETATM    5  C5  UNL     1      23.404   4.481  50.759  1.00  0.00     0.236 A 
HETATM    6  N2  UNL     1      24.338   3.535  51.075  1.00  0.00    -0.224 NA
HETATM    7  C6  UNL     1      25.570   3.540  50.494  1.00  0.00     0.142 A 
HETATM    8  C12 UNL     1      25.809   4.530  49.591  1.00  0.00     0.041 A 
HETATM    9  C13 UNL     1      27.187   4.383  49.074  1.00  0.00     0.050 C 
HETATM   10  C14 UNL     1      27.893   5.390  48.542  1.00  0.00     0.050 C 
HETATM   11  C15 UNL     1      27.616   6.827  48.299  1.00  0.00     0.128 C 
ENDROOT
BRANCH   7  12
HETATM   12  N3  UNL     1      26.518   2.536  50.844  1.00  0.00    -0.340 N 
HETATM   13  H6  UNL     1      27.461   2.411  50.406  1.00  0.00     0.167 HD
BRANCH  12  14
HETATM   14  C7  UNL     1      26.109   1.632  51.894  1.00  0.00     0.031 A 
HETATM   15  C8  UNL     1      25.364   1.649  53.010  1.00  0.00     0.022 A 
HETATM   16  C9  UNL     1      25.360   0.310  53.657  1.00  0.00     0.105 A 
HETATM   17 BR1  UNL     1      23.588  -0.415  53.655  1.00  0.00    -0.083 Br
HETATM   18  C10 UNL     1      26.210  -0.509  52.763  1.00  0.00    -0.005 A 
HETATM   19  C11 UNL     1      26.617   0.268  51.777  1.00  0.00     0.026 A 
ENDBRANCH  12  14
ENDBRANCH   7  12
BRANCH  10  20
HETATM   20  O2  UNL     1      29.166   4.955  48.138  1.00  0.00    -0.365 OA
HETATM   21  H12 UNL     1      29.825   4.793  48.877  1.00  0.00     0.217 HD
ENDBRANCH  10  20
BRANCH   1  22
HETATM   22  O1  UNL     1      26.097   8.115  47.013  1.00  0.00    -0.360 OA
HETATM   23  C1  UNL     1      25.071   9.036  46.861  1.00  0.00     0.209 C 
ENDBRANCH   1  22
TORSDOF 4
ENDMDL
