MODEL 1
REMARK VINA RESULT:      -7.7      0.000      0.000
REMARK  7 active torsions:
REMARK  status: ('A' for Active; 'I' for Inactive)
REMARK    1  A    between atoms: C2_2  and  C3_3 
REMARK       I    between atoms: C3_3  and  N1_5 
REMARK    2  A    between atoms: N1_5  and  C4_6 
REMARK    3  A    between atoms: C9_11  and  N2_12 
REMARK    4  A    between atoms: N2_12  and  C10_13 
REMARK    5  A    between atoms: N2_12  and  C16_24 
REMARK    6  A    between atoms: C15_22  and  N7_23 
REMARK    7  A    between atoms: C21_29  and  N8_30 
ROOT
HETATM    1  N2  UNL     1      23.765   3.618  51.051  1.00  0.00    -0.291 N 
ENDROOT
BRANCH   1   2
HETATM    2  C9  UNL     1      22.823   2.659  50.576  1.00  0.00     0.049 A 
HETATM    3  C7  UNL     1      22.615   2.440  49.209  1.00  0.00    -0.035 A 
HETATM    4  C6  UNL     1      21.674   1.478  48.802  1.00  0.00     0.011 A 
HETATM    5  C8  UNL     1      23.401   3.232  48.222  1.00  0.00     0.050 C 
HETATM    6  C5  UNL     1      20.957   0.755  49.731  1.00  0.00     0.030 A 
HETATM    7  C4  UNL     1      21.198   1.007  51.055  1.00  0.00     0.036 A 
HETATM    8  C22 UNL     1      22.104   1.932  51.530  1.00  0.00     0.060 A 
BRANCH   7   9
HETATM    9  N1  UNL     1      20.542   0.355  52.079  1.00  0.00    -0.335 N 
HETATM   10  C3  UNL     1      20.712  -0.534  53.125  1.00  0.00     0.175 C 
HETATM   11  O1  UNL     1      21.976  -0.882  53.141  1.00  0.00    -0.172 OA
HETATM   12  H4  UNL     1      19.516   0.375  52.384  1.00  0.00     0.168 HD
BRANCH  10  13
HETATM   13  C2  UNL     1      20.819  -1.433  54.204  1.00  0.00     0.032 C 
HETATM   14  C1  UNL     1      21.984  -1.577  54.707  1.00  0.00     0.035 C 
ENDBRANCH  10  13
ENDBRANCH   7   9
ENDBRANCH   1   2
BRANCH   1  15
HETATM   15  C10 UNL     1      24.854   3.056  51.774  1.00  0.00     0.176 A 
HETATM   16  N3  UNL     1      25.654   2.432  50.999  1.00  0.00    -0.264 NA
HETATM   17  C11 UNL     1      26.853   1.746  51.394  1.00  0.00     0.214 A 
HETATM   18  C12 UNL     1      27.166   1.824  52.865  1.00  0.00     0.198 A 
HETATM   19  C13 UNL     1      28.543   2.296  53.174  1.00  0.00     0.170 A 
HETATM   20  N5  UNL     1      27.742   0.629  53.442  1.00  0.00    -0.272 N 
HETATM   21  N6  UNL     1      26.223   2.537  53.657  1.00  0.00    -0.228 NA
HETATM   22  N4  UNL     1      29.020   1.211  53.683  1.00  0.00    -0.187 NA
HETATM   23  C14 UNL     1      27.546  -0.767  53.820  1.00  0.00     0.177 C 
HETATM   24  C15 UNL     1      25.189   3.087  53.169  1.00  0.00     0.166 A 
BRANCH  24  25
HETATM   25  N7  UNL     1      24.261   3.797  53.973  1.00  0.00    -0.381 N 
HETATM   26  H16 UNL     1      24.169   3.263  54.890  1.00  0.00     0.157 HD
HETATM   27  H17 UNL     1      23.594   4.330  54.519  1.00  0.00     0.157 HD
ENDBRANCH  24  25
ENDBRANCH   1  15
BRANCH   1  28
HETATM   28  C16 UNL     1      23.627   4.999  50.829  1.00  0.00     0.067 A 
HETATM   29  C17 UNL     1      22.432   5.683  51.014  1.00  0.00     0.032 A 
HETATM   30  C18 UNL     1      22.333   7.039  50.776  1.00  0.00     0.002 A 
HETATM   31  C19 UNL     1      23.405   7.792  50.344  1.00  0.00     0.002 A 
HETATM   32  C20 UNL     1      24.627   7.173  50.139  1.00  0.00     0.031 A 
HETATM   33  C21 UNL     1      24.646   5.819  50.396  1.00  0.00     0.053 A 
BRANCH  33  34
HETATM   34  N8  UNL     1      25.904   5.216  50.162  1.00  0.00    -0.397 N 
HETATM   35  H22 UNL     1      26.752   4.657  50.344  1.00  0.00     0.156 HD
HETATM   36  H23 UNL     1      26.780   4.938  49.687  1.00  0.00     0.156 HD
ENDBRANCH  33  34
ENDBRANCH   1  28
TORSDOF 7
ENDMDL
MODEL 2
REMARK VINA RESULT:      -7.6      3.054      6.124
REMARK  7 active torsions:
REMARK  status: ('A' for Active; 'I' for Inactive)
REMARK    1  A    between atoms: C2_2  and  C3_3 
REMARK       I    between atoms: C3_3  and  N1_5 
REMARK    2  A    between atoms: N1_5  and  C4_6 
REMARK    3  A    between atoms: C9_11  and  N2_12 
REMARK    4  A    between atoms: N2_12  and  C10_13 
REMARK    5  A    between atoms: N2_12  and  C16_24 
REMARK    6  A    between atoms: C15_22  and  N7_23 
REMARK    7  A    between atoms: C21_29  and  N8_30 
ROOT
HETATM    1  N2  UNL     1      24.004   2.908  50.707  1.00  0.00    -0.291 N 
ENDROOT
BRANCH   1   2
HETATM    2  C9  UNL     1      24.631   4.089  50.208  1.00  0.00     0.049 A 
HETATM    3  C7  UNL     1      23.996   5.336  50.249  1.00  0.00    -0.035 A 
HETATM    4  C6  UNL     1      24.666   6.465  49.744  1.00  0.00     0.011 A 
HETATM    5  C8  UNL     1      22.628   5.434  50.830  1.00  0.00     0.050 C 
HETATM    6  C5  UNL     1      25.932   6.354  49.211  1.00  0.00     0.030 A 
HETATM    7  C4  UNL     1      26.508   5.112  49.195  1.00  0.00     0.036 A 
HETATM    8  C22 UNL     1      25.915   3.962  49.671  1.00  0.00     0.060 A 
BRANCH   7   9
HETATM    9  N1  UNL     1      27.767   4.870  48.683  1.00  0.00    -0.335 N 
HETATM   10  C3  UNL     1      28.952   5.474  48.306  1.00  0.00     0.175 C 
HETATM   11  O1  UNL     1      28.821   6.761  48.518  1.00  0.00    -0.172 OA
HETATM   12  H4  UNL     1      28.241   3.959  48.382  1.00  0.00     0.168 HD
BRANCH  10  13
HETATM   13  C2  UNL     1      30.184   6.028  47.904  1.00  0.00     0.032 C 
HETATM   14  C1  UNL     1      30.123   7.035  47.122  1.00  0.00     0.035 C 
ENDBRANCH  10  13
ENDBRANCH   7   9
ENDBRANCH   1   2
BRANCH   1  15
HETATM   15  C10 UNL     1      24.683   2.309  51.804  1.00  0.00     0.176 A 
HETATM   16  N3  UNL     1      25.127   1.151  51.500  1.00  0.00    -0.264 NA
HETATM   17  C11 UNL     1      25.857   0.269  52.368  1.00  0.00     0.214 A 
HETATM   18  C12 UNL     1      26.122   0.819  53.745  1.00  0.00     0.198 A 
HETATM   19  C13 UNL     1      27.549   0.767  54.162  1.00  0.00     0.170 A 
HETATM   20  N5  UNL     1      26.057  -0.145  54.821  1.00  0.00    -0.272 N 
HETATM   21  N6  UNL     1      25.591   2.115  54.002  1.00  0.00    -0.228 NA
HETATM   22  N4  UNL     1      27.450  -0.096  55.116  1.00  0.00    -0.187 NA
HETATM   23  C14 UNL     1      25.223  -1.039  55.618  1.00  0.00     0.177 C 
HETATM   24  C15 UNL     1      24.948   2.780  53.134  1.00  0.00     0.166 A 
BRANCH  24  25
HETATM   25  N7  UNL     1      24.429   4.071  53.406  1.00  0.00    -0.381 N 
HETATM   26  H16 UNL     1      23.780   4.324  52.600  1.00  0.00     0.157 HD
HETATM   27  H17 UNL     1      24.079   4.995  53.632  1.00  0.00     0.157 HD
ENDBRANCH  24  25
ENDBRANCH   1  15
BRANCH   1  28
HETATM   28  C16 UNL     1      22.824   2.380  50.158  1.00  0.00     0.067 A 
HETATM   29  C17 UNL     1      22.609   2.259  48.790  1.00  0.00     0.032 A 
HETATM   30  C18 UNL     1      21.432   1.744  48.288  1.00  0.00     0.002 A 
HETATM   31  C19 UNL     1      20.403   1.320  49.106  1.00  0.00     0.002 A 
HETATM   32  C20 UNL     1      20.552   1.414  50.480  1.00  0.00     0.031 A 
HETATM   33  C21 UNL     1      21.753   1.939  50.904  1.00  0.00     0.053 A 
BRANCH  33  34
HETATM   34  N8  UNL     1      21.864   2.034  52.311  1.00  0.00    -0.397 N 
HETATM   35  H22 UNL     1      22.153   2.402  53.231  1.00  0.00     0.156 HD
HETATM   36  H23 UNL     1      21.745   1.821  53.316  1.00  0.00     0.156 HD
ENDBRANCH  33  34
ENDBRANCH   1  28
TORSDOF 7
ENDMDL
MODEL 3
REMARK VINA RESULT:      -7.5      0.981      1.950
REMARK  7 active torsions:
REMARK  status: ('A' for Active; 'I' for Inactive)
REMARK    1  A    between atoms: C2_2  and  C3_3 
REMARK       I    between atoms: C3_3  and  N1_5 
REMARK    2  A    between atoms: N1_5  and  C4_6 
REMARK    3  A    between atoms: C9_11  and  N2_12 
REMARK    4  A    between atoms: N2_12  and  C10_13 
REMARK    5  A    between atoms: N2_12  and  C16_24 
REMARK    6  A    between atoms: C15_22  and  N7_23 
REMARK    7  A    between atoms: C21_29  and  N8_30 
ROOT
HETATM    1  N2  UNL     1      24.244   3.452  51.084  1.00  0.00    -0.291 N 
ENDROOT
BRANCH   1   2
HETATM    2  C9  UNL     1      23.124   2.653  50.710  1.00  0.00     0.049 A 
HETATM    3  C7  UNL     1      22.695   2.557  49.380  1.00  0.00    -0.035 A 
HETATM    4  C6  UNL     1      21.585   1.750  49.072  1.00  0.00     0.011 A 
HETATM    5  C8  UNL     1      23.431   3.309  48.326  1.00  0.00     0.050 C 
HETATM    6  C5  UNL     1      20.917   1.061  50.062  1.00  0.00     0.030 A 
HETATM    7  C4  UNL     1      21.376   1.190  51.346  1.00  0.00     0.036 A 
HETATM    8  C22 UNL     1      22.457   1.958  51.723  1.00  0.00     0.060 A 
BRANCH   7   9
HETATM    9  N1  UNL     1      20.792   0.556  52.424  1.00  0.00    -0.335 N 
HETATM   10  C3  UNL     1      21.002  -0.391  53.408  1.00  0.00     0.175 C 
HETATM   11  O1  UNL     1      22.217  -0.857  53.250  1.00  0.00    -0.172 OA
HETATM   12  H4  UNL     1      19.819   0.659  52.858  1.00  0.00     0.168 HD
BRANCH  10  13
HETATM   13  C2  UNL     1      21.153  -1.345  54.435  1.00  0.00     0.032 C 
HETATM   14  C1  UNL     1      22.334  -1.494  54.899  1.00  0.00     0.035 C 
ENDBRANCH  10  13
ENDBRANCH   7   9
ENDBRANCH   1   2
BRANCH   1  15
HETATM   15  C10 UNL     1      25.310   2.718  51.677  1.00  0.00     0.176 A 
HETATM   16  N3  UNL     1      25.133   2.576  52.933  1.00  0.00    -0.264 NA
HETATM   17  C11 UNL     1      26.013   1.891  53.840  1.00  0.00     0.214 A 
HETATM   18  C12 UNL     1      27.227   1.276  53.194  1.00  0.00     0.198 A 
HETATM   19  C13 UNL     1      27.427  -0.164  53.510  1.00  0.00     0.170 A 
HETATM   20  N5  UNL     1      28.443   1.334  53.974  1.00  0.00    -0.272 N 
HETATM   21  N6  UNL     1      27.347   1.483  51.790  1.00  0.00    -0.228 NA
HETATM   22  N4  UNL     1      28.512  -0.070  54.202  1.00  0.00    -0.187 NA
HETATM   23  C14 UNL     1      29.491   2.171  54.552  1.00  0.00     0.177 C 
HETATM   24  C15 UNL     1      26.490   2.127  51.113  1.00  0.00     0.166 A 
BRANCH  24  25
HETATM   25  N7  UNL     1      26.624   2.320  49.714  1.00  0.00    -0.381 N 
HETATM   26  H16 UNL     1      27.412   3.021  49.569  1.00  0.00     0.157 HD
HETATM   27  H17 UNL     1      26.690   2.434  48.709  1.00  0.00     0.157 HD
ENDBRANCH  24  25
ENDBRANCH   1  15
BRANCH   1  28
HETATM   28  C16 UNL     1      24.290   4.842  50.890  1.00  0.00     0.067 A 
HETATM   29  C17 UNL     1      25.232   5.468  50.082  1.00  0.00     0.032 A 
HETATM   30  C18 UNL     1      25.250   6.838  49.924  1.00  0.00     0.002 A 
HETATM   31  C19 UNL     1      24.342   7.666  50.553  1.00  0.00     0.002 A 
HETATM   32  C20 UNL     1      23.376   7.108  51.375  1.00  0.00     0.031 A 
HETATM   33  C21 UNL     1      23.423   5.735  51.482  1.00  0.00     0.053 A 
BRANCH  33  34
HETATM   34  N8  UNL     1      22.432   5.200  52.340  1.00  0.00    -0.397 N 
HETATM   35  H22 UNL     1      21.496   5.024  52.736  1.00  0.00     0.156 HD
HETATM   36  H23 UNL     1      21.990   4.660  53.102  1.00  0.00     0.156 HD
ENDBRANCH  33  34
ENDBRANCH   1  28
TORSDOF 7
ENDMDL
MODEL 4
REMARK VINA RESULT:      -7.4      2.711      6.323
REMARK  7 active torsions:
REMARK  status: ('A' for Active; 'I' for Inactive)
REMARK    1  A    between atoms: C2_2  and  C3_3 
REMARK       I    between atoms: C3_3  and  N1_5 
REMARK    2  A    between atoms: N1_5  and  C4_6 
REMARK    3  A    between atoms: C9_11  and  N2_12 
REMARK    4  A    between atoms: N2_12  and  C10_13 
REMARK    5  A    between atoms: N2_12  and  C16_24 
REMARK    6  A    between atoms: C15_22  and  N7_23 
REMARK    7  A    between atoms: C21_29  and  N8_30 
ROOT
HETATM    1  N2  UNL     1      24.359   3.186  50.755  1.00  0.00    -0.291 N 
ENDROOT
BRANCH   1   2
HETATM    2  C9  UNL     1      24.551   4.599  50.739  1.00  0.00     0.049 A 
HETATM    3  C7  UNL     1      23.671   5.473  51.387  1.00  0.00    -0.035 A 
HETATM    4  C6  UNL     1      23.915   6.858  51.338  1.00  0.00     0.011 A 
HETATM    5  C8  UNL     1      22.499   4.912  52.116  1.00  0.00     0.050 C 
HETATM    6  C5  UNL     1      25.005   7.358  50.658  1.00  0.00     0.030 A 
HETATM    7  C4  UNL     1      25.835   6.460  50.041  1.00  0.00     0.036 A 
HETATM    8  C22 UNL     1      25.662   5.093  50.047  1.00  0.00     0.060 A 
BRANCH   7   9
HETATM    9  N1  UNL     1      26.954   6.835  49.326  1.00  0.00    -0.335 N 
HETATM   10  C3  UNL     1      27.381   7.382  48.129  1.00  0.00     0.175 C 
HETATM   11  O1  UNL     1      26.314   7.636  47.411  1.00  0.00    -0.172 OA
HETATM   12  H4  UNL     1      27.995   6.782  49.567  1.00  0.00     0.168 HD
BRANCH  10  13
HETATM   13  C2  UNL     1      27.881   7.933  46.932  1.00  0.00     0.032 C 
HETATM   14  C1  UNL     1      27.026   8.493  46.167  1.00  0.00     0.035 C 
ENDBRANCH  10  13
ENDBRANCH   7   9
ENDBRANCH   1   2
BRANCH   1  15
HETATM   15  C10 UNL     1      25.318   2.477  51.531  1.00  0.00     0.176 A 
HETATM   16  N3  UNL     1      25.105   2.624  52.781  1.00  0.00    -0.264 NA
HETATM   17  C11 UNL     1      25.881   2.049  53.846  1.00  0.00     0.214 A 
HETATM   18  C12 UNL     1      27.022   1.179  53.392  1.00  0.00     0.198 A 
HETATM   19  C13 UNL     1      27.043  -0.176  54.008  1.00  0.00     0.170 A 
HETATM   20  N5  UNL     1      28.223   1.261  54.194  1.00  0.00    -0.272 N 
HETATM   21  N6  UNL     1      27.190   1.070  51.982  1.00  0.00    -0.228 NA
HETATM   22  N4  UNL     1      28.120  -0.063  54.709  1.00  0.00    -0.187 NA
HETATM   23  C14 UNL     1      29.354   2.075  54.628  1.00  0.00     0.177 C 
HETATM   24  C15 UNL     1      26.428   1.651  51.151  1.00  0.00     0.166 A 
BRANCH  24  25
HETATM   25  N7  UNL     1      26.608   1.529  49.750  1.00  0.00    -0.381 N 
HETATM   26  H16 UNL     1      27.317   2.268  49.459  1.00  0.00     0.157 HD
HETATM   27  H17 UNL     1      26.710   1.413  48.748  1.00  0.00     0.157 HD
ENDBRANCH  24  25
ENDBRANCH   1  15
BRANCH   1  28
HETATM   28  C16 UNL     1      23.316   2.549  50.061  1.00  0.00     0.067 A 
HETATM   29  C17 UNL     1      23.054   2.769  48.714  1.00  0.00     0.032 A 
HETATM   30  C18 UNL     1      22.014   2.131  48.069  1.00  0.00     0.002 A 
HETATM   31  C19 UNL     1      21.178   1.244  48.715  1.00  0.00     0.002 A 
HETATM   32  C20 UNL     1      21.382   0.981  50.060  1.00  0.00     0.031 A 
HETATM   33  C21 UNL     1      22.438   1.656  50.633  1.00  0.00     0.053 A 
BRANCH  33  34
HETATM   34  N8  UNL     1      22.609   1.374  52.010  1.00  0.00    -0.397 N 
HETATM   35  H22 UNL     1      22.470   1.440  53.030  1.00  0.00     0.156 HD
HETATM   36  H23 UNL     1      22.962   0.943  52.881  1.00  0.00     0.156 HD
ENDBRANCH  33  34
ENDBRANCH   1  28
TORSDOF 7
ENDMDL
MODEL 5
REMARK VINA RESULT:      -7.3      2.154      5.420
REMARK  7 active torsions:
REMARK  status: ('A' for Active; 'I' for Inactive)
REMARK    1  A    between atoms: C2_2  and  C3_3 
REMARK       I    between atoms: C3_3  and  N1_5 
REMARK    2  A    between atoms: N1_5  and  C4_6 
REMARK    3  A    between atoms: C9_11  and  N2_12 
REMARK    4  A    between atoms: N2_12  and  C10_13 
REMARK    5  A    between atoms: N2_12  and  C16_24 
REMARK    6  A    between atoms: C15_22  and  N7_23 
REMARK    7  A    between atoms: C21_29  and  N8_30 
ROOT
HETATM    1  N2  UNL     1      23.490   3.672  50.478  1.00  0.00    -0.291 N 
ENDROOT
BRANCH   1   2
HETATM    2  C9  UNL     1      24.317   2.697  51.110  1.00  0.00     0.049 A 
HETATM    3  C7  UNL     1      25.638   2.472  50.704  1.00  0.00    -0.035 A 
HETATM    4  C6  UNL     1      26.406   1.499  51.368  1.00  0.00     0.011 A 
HETATM    5  C8  UNL     1      26.196   3.275  49.580  1.00  0.00     0.050 C 
HETATM    6  C5  UNL     1      25.871   0.767  52.407  1.00  0.00     0.030 A 
HETATM    7  C4  UNL     1      24.574   1.025  52.764  1.00  0.00     0.036 A 
HETATM    8  C22 UNL     1      23.762   1.962  52.163  1.00  0.00     0.060 A 
BRANCH   7   9
HETATM    9  N1  UNL     1      23.925   0.356  53.782  1.00  0.00    -0.335 N 
HETATM   10  C3  UNL     1      22.966  -0.603  54.052  1.00  0.00     0.175 C 
HETATM   11  O1  UNL     1      22.508  -1.034  52.901  1.00  0.00    -0.172 OA
HETATM   12  H4  UNL     1      24.016   0.432  54.845  1.00  0.00     0.168 HD
BRANCH  10  13
HETATM   13  C2  UNL     1      22.000  -1.571  54.393  1.00  0.00     0.032 C 
HETATM   14  C1  UNL     1      20.790  -1.290  54.100  1.00  0.00     0.035 C 
ENDBRANCH  10  13
ENDBRANCH   7   9
ENDBRANCH   1   2
BRANCH   1  15
HETATM   15  C10 UNL     1      22.207   3.188  50.098  1.00  0.00     0.176 A 
HETATM   16  N3  UNL     1      21.311   3.538  50.939  1.00  0.00    -0.264 NA
HETATM   17  C11 UNL     1      19.911   3.221  50.865  1.00  0.00     0.214 A 
HETATM   18  C12 UNL     1      19.510   2.425  49.652  1.00  0.00     0.198 A 
HETATM   19  C13 UNL     1      18.382   3.012  48.879  1.00  0.00     0.170 A 
HETATM   20  N5  UNL     1      18.482   1.432  49.872  1.00  0.00    -0.272 N 
HETATM   21  N6  UNL     1      20.570   2.076  48.767  1.00  0.00    -0.228 NA
HETATM   22  N4  UNL     1      17.492   2.104  49.099  1.00  0.00    -0.187 NA
HETATM   23  C14 UNL     1      18.112   0.169  50.505  1.00  0.00     0.177 C 
HETATM   24  C15 UNL     1      21.775   2.417  48.968  1.00  0.00     0.166 A 
BRANCH  24  25
HETATM   25  N7  UNL     1      22.818   2.064  48.074  1.00  0.00    -0.381 N 
HETATM   26  H16 UNL     1      23.733   2.372  48.523  1.00  0.00     0.157 HD
HETATM   27  H17 UNL     1      23.537   1.798  47.411  1.00  0.00     0.157 HD
ENDBRANCH  24  25
ENDBRANCH   1  15
BRANCH   1  28
HETATM   28  C16 UNL     1      23.909   4.992  50.245  1.00  0.00     0.067 A 
HETATM   29  C17 UNL     1      24.282   5.463  48.991  1.00  0.00     0.032 A 
HETATM   30  C18 UNL     1      24.696   6.765  48.804  1.00  0.00     0.002 A 
HETATM   31  C19 UNL     1      24.766   7.674  49.840  1.00  0.00     0.002 A 
HETATM   32  C20 UNL     1      24.409   7.271  51.117  1.00  0.00     0.031 A 
HETATM   33  C21 UNL     1      24.008   5.957  51.224  1.00  0.00     0.053 A 
BRANCH  33  34
HETATM   34  N8  UNL     1      23.665   5.576  52.543  1.00  0.00    -0.397 N 
HETATM   35  H22 UNL     1      23.108   5.180  53.316  1.00  0.00     0.156 HD
HETATM   36  H23 UNL     1      23.727   5.438  53.566  1.00  0.00     0.156 HD
ENDBRANCH  33  34
ENDBRANCH   1  28
TORSDOF 7
ENDMDL
MODEL 6
REMARK VINA RESULT:      -7.3      6.431      8.581
REMARK  7 active torsions:
REMARK  status: ('A' for Active; 'I' for Inactive)
REMARK    1  A    between atoms: C2_2  and  C3_3 
REMARK       I    between atoms: C3_3  and  N1_5 
REMARK    2  A    between atoms: N1_5  and  C4_6 
REMARK    3  A    between atoms: C9_11  and  N2_12 
REMARK    4  A    between atoms: N2_12  and  C10_13 
REMARK    5  A    between atoms: N2_12  and  C16_24 
REMARK    6  A    between atoms: C15_22  and  N7_23 
REMARK    7  A    between atoms: C21_29  and  N8_30 
ROOT
HETATM    1  N2  UNL     1      30.287   8.175  47.859  1.00  0.00    -0.291 N 
ENDROOT
BRANCH   1   2
HETATM    2  C9  UNL     1      28.907   7.833  47.748  1.00  0.00     0.049 A 
HETATM    3  C7  UNL     1      28.085   8.384  46.757  1.00  0.00    -0.035 A 
HETATM    4  C6  UNL     1      26.732   8.005  46.697  1.00  0.00     0.011 A 
HETATM    5  C8  UNL     1      28.670   9.353  45.789  1.00  0.00     0.050 C 
HETATM    6  C5  UNL     1      26.211   7.105  47.602  1.00  0.00     0.030 A 
HETATM    7  C4  UNL     1      27.056   6.597  48.552  1.00  0.00     0.036 A 
HETATM    8  C22 UNL     1      28.391   6.919  48.672  1.00  0.00     0.060 A 
BRANCH   7   9
HETATM    9  N1  UNL     1      26.654   5.695  49.515  1.00  0.00    -0.335 N 
HETATM   10  C3  UNL     1      26.631   4.352  49.845  1.00  0.00     0.175 C 
HETATM   11  O1  UNL     1      27.214   3.699  48.869  1.00  0.00    -0.172 OA
HETATM   12  H4  UNL     1      26.147   5.838  50.446  1.00  0.00     0.168 HD
BRANCH  10  13
HETATM   13  C2  UNL     1      26.577   3.000  50.240  1.00  0.00     0.032 C 
HETATM   14  C1  UNL     1      26.045   2.763  51.376  1.00  0.00     0.035 C 
ENDBRANCH  10  13
ENDBRANCH   7   9
ENDBRANCH   1   2
BRANCH   1  15
HETATM   15  C10 UNL     1      31.169   7.060  47.805  1.00  0.00     0.176 A 
HETATM   16  N3  UNL     1      31.465   6.759  46.600  1.00  0.00    -0.264 NA
HETATM   17  C11 UNL     1      32.327   5.688  46.182  1.00  0.00     0.214 A 
HETATM   18  C12 UNL     1      32.936   4.896  47.308  1.00  0.00     0.198 A 
HETATM   19  C13 UNL     1      34.416   4.763  47.234  1.00  0.00     0.170 A 
HETATM   20  N5  UNL     1      33.072   3.476  47.067  1.00  0.00    -0.272 N 
HETATM   21  N6  UNL     1      32.553   5.296  48.620  1.00  0.00    -0.228 NA
HETATM   22  N4  UNL     1      34.496   3.493  47.020  1.00  0.00    -0.187 NA
HETATM   23  C14 UNL     1      32.398   2.195  46.871  1.00  0.00     0.177 C 
HETATM   24  C15 UNL     1      31.763   6.264  48.841  1.00  0.00     0.166 A 
BRANCH  24  25
HETATM   25  N7  UNL     1      31.394   6.652  50.154  1.00  0.00    -0.381 N 
HETATM   26  H16 UNL     1      30.406   7.044  50.099  1.00  0.00     0.157 HD
HETATM   27  H17 UNL     1      31.165   6.918  51.105  1.00  0.00     0.157 HD
ENDBRANCH  24  25
ENDBRANCH   1  15
BRANCH   1  28
HETATM   28  C16 UNL     1      30.736   9.498  48.013  1.00  0.00     0.067 A 
HETATM   29  C17 UNL     1      31.620  10.109  47.131  1.00  0.00     0.032 A 
HETATM   30  C18 UNL     1      32.046  11.407  47.322  1.00  0.00     0.002 A 
HETATM   31  C19 UNL     1      31.624  12.173  48.390  1.00  0.00     0.002 A 
HETATM   32  C20 UNL     1      30.744  11.625  49.308  1.00  0.00     0.031 A 
HETATM   33  C21 UNL     1      30.366  10.324  49.050  1.00  0.00     0.053 A 
BRANCH  33  34
HETATM   34  N8  UNL     1      29.478   9.792  50.015  1.00  0.00    -0.397 N 
HETATM   35  H22 UNL     1      28.784   9.155  50.436  1.00  0.00     0.156 HD
HETATM   36  H23 UNL     1      28.949   9.677  50.896  1.00  0.00     0.156 HD
ENDBRANCH  33  34
ENDBRANCH   1  28
TORSDOF 7
ENDMDL
MODEL 7
REMARK VINA RESULT:      -7.2      2.573      5.576
REMARK  7 active torsions:
REMARK  status: ('A' for Active; 'I' for Inactive)
REMARK    1  A    between atoms: C2_2  and  C3_3 
REMARK       I    between atoms: C3_3  and  N1_5 
REMARK    2  A    between atoms: N1_5  and  C4_6 
REMARK    3  A    between atoms: C9_11  and  N2_12 
REMARK    4  A    between atoms: N2_12  and  C10_13 
REMARK    5  A    between atoms: N2_12  and  C16_24 
REMARK    6  A    between atoms: C15_22  and  N7_23 
REMARK    7  A    between atoms: C21_29  and  N8_30 
ROOT
HETATM    1  N2  UNL     1      23.796   3.006  50.842  1.00  0.00    -0.291 N 
ENDROOT
BRANCH   1   2
HETATM    2  C9  UNL     1      24.369   4.222  50.366  1.00  0.00     0.049 A 
HETATM    3  C7  UNL     1      25.624   4.256  49.747  1.00  0.00    -0.035 A 
HETATM    4  C6  UNL     1      26.135   5.486  49.295  1.00  0.00     0.011 A 
HETATM    5  C8  UNL     1      26.383   2.985  49.581  1.00  0.00     0.050 C 
HETATM    6  C5  UNL     1      25.417   6.651  49.457  1.00  0.00     0.030 A 
HETATM    7  C4  UNL     1      24.195   6.563  50.069  1.00  0.00     0.036 A 
HETATM    8  C22 UNL     1      23.628   5.396  50.536  1.00  0.00     0.060 A 
BRANCH   7   9
HETATM    9  N1  UNL     1      23.384   7.657  50.295  1.00  0.00    -0.335 N 
HETATM   10  C3  UNL     1      22.368   8.423  49.752  1.00  0.00     0.175 C 
HETATM   11  O1  UNL     1      22.070   7.907  48.584  1.00  0.00    -0.172 OA
HETATM   12  H4  UNL     1      23.329   8.334  51.121  1.00  0.00     0.168 HD
BRANCH  10  13
HETATM   13  C2  UNL     1      21.334   9.241  49.256  1.00  0.00     0.032 C 
HETATM   14  C1  UNL     1      20.162   9.009  49.706  1.00  0.00     0.035 C 
ENDBRANCH  10  13
ENDBRANCH   7   9
ENDBRANCH   1   2
BRANCH   1  15
HETATM   15  C10 UNL     1      24.525   2.395  51.900  1.00  0.00     0.176 A 
HETATM   16  N3  UNL     1      24.935   1.232  51.570  1.00  0.00    -0.264 NA
HETATM   17  C11 UNL     1      25.700   0.337  52.395  1.00  0.00     0.214 A 
HETATM   18  C12 UNL     1      26.047   0.880  53.756  1.00  0.00     0.198 A 
HETATM   19  C13 UNL     1      27.494   0.808  54.094  1.00  0.00     0.170 A 
HETATM   20  N5  UNL     1      26.028  -0.085  54.833  1.00  0.00    -0.272 N 
HETATM   21  N6  UNL     1      25.549   2.183  54.044  1.00  0.00    -0.228 NA
HETATM   22  N4  UNL     1      27.436  -0.056  55.051  1.00  0.00    -0.187 NA
HETATM   23  C14 UNL     1      25.226  -0.969  55.674  1.00  0.00     0.177 C 
HETATM   24  C15 UNL     1      24.869   2.859  53.214  1.00  0.00     0.166 A 
BRANCH  24  25
HETATM   25  N7  UNL     1      24.384   4.157  53.516  1.00  0.00    -0.381 N 
HETATM   26  H16 UNL     1      25.218   4.819  53.477  1.00  0.00     0.157 HD
HETATM   27  H17 UNL     1      24.003   5.070  53.736  1.00  0.00     0.157 HD
ENDBRANCH  24  25
ENDBRANCH   1  15
BRANCH   1  28
HETATM   28  C16 UNL     1      22.618   2.457  50.310  1.00  0.00     0.067 A 
HETATM   29  C17 UNL     1      22.542   1.909  49.035  1.00  0.00     0.032 A 
HETATM   30  C18 UNL     1      21.364   1.387  48.542  1.00  0.00     0.002 A 
HETATM   31  C19 UNL     1      20.197   1.377  49.279  1.00  0.00     0.002 A 
HETATM   32  C20 UNL     1      20.201   1.909  50.558  1.00  0.00     0.031 A 
HETATM   33  C21 UNL     1      21.414   2.411  50.978  1.00  0.00     0.053 A 
BRANCH  33  34
HETATM   34  N8  UNL     1      21.379   2.959  52.282  1.00  0.00    -0.397 N 
HETATM   35  H22 UNL     1      21.721   3.276  53.202  1.00  0.00     0.156 HD
HETATM   36  H23 UNL     1      21.017   3.388  53.151  1.00  0.00     0.156 HD
ENDBRANCH  33  34
ENDBRANCH   1  28
TORSDOF 7
ENDMDL
MODEL 8
REMARK VINA RESULT:      -7.2      2.957      6.443
REMARK  7 active torsions:
REMARK  status: ('A' for Active; 'I' for Inactive)
REMARK    1  A    between atoms: C2_2  and  C3_3 
REMARK       I    between atoms: C3_3  and  N1_5 
REMARK    2  A    between atoms: N1_5  and  C4_6 
REMARK    3  A    between atoms: C9_11  and  N2_12 
REMARK    4  A    between atoms: N2_12  and  C10_13 
REMARK    5  A    between atoms: N2_12  and  C16_24 
REMARK    6  A    between atoms: C15_22  and  N7_23 
REMARK    7  A    between atoms: C21_29  and  N8_30 
ROOT
HETATM    1  N2  UNL     1      24.355   4.959  49.883  1.00  0.00    -0.291 N 
ENDROOT
BRANCH   1   2
HETATM    2  C9  UNL     1      24.431   4.067  50.993  1.00  0.00     0.049 A 
HETATM    3  C7  UNL     1      23.406   3.978  51.943  1.00  0.00    -0.035 A 
HETATM    4  C6  UNL     1      23.537   3.076  53.014  1.00  0.00     0.011 A 
HETATM    5  C8  UNL     1      22.201   4.841  51.789  1.00  0.00     0.050 C 
HETATM    6  C5  UNL     1      24.659   2.286  53.137  1.00  0.00     0.030 A 
HETATM    7  C4  UNL     1      25.633   2.411  52.182  1.00  0.00     0.036 A 
HETATM    8  C22 UNL     1      25.575   3.270  51.105  1.00  0.00     0.060 A 
BRANCH   7   9
HETATM    9  N1  UNL     1      26.804   1.682  52.198  1.00  0.00    -0.335 N 
HETATM   10  C3  UNL     1      27.956   1.437  52.923  1.00  0.00     0.175 C 
HETATM   11  O1  UNL     1      27.907   2.183  54.000  1.00  0.00    -0.172 OA
HETATM   12  H4  UNL     1      27.202   0.974  51.501  1.00  0.00     0.168 HD
BRANCH  10  13
HETATM   13  C2  UNL     1      29.148   1.143  53.614  1.00  0.00     0.032 C 
HETATM   14  C1  UNL     1      29.462  -0.092  53.701  1.00  0.00     0.035 C 
ENDBRANCH  10  13
ENDBRANCH   7   9
ENDBRANCH   1   2
BRANCH   1  15
HETATM   15  C10 UNL     1      23.242   4.730  49.027  1.00  0.00     0.176 A 
HETATM   16  N3  UNL     1      23.217   3.524  48.611  1.00  0.00    -0.264 NA
HETATM   17  C11 UNL     1      22.234   2.952  47.731  1.00  0.00     0.214 A 
HETATM   18  C12 UNL     1      21.139   3.897  47.314  1.00  0.00     0.198 A 
HETATM   19  C13 UNL     1      19.763   3.378  47.540  1.00  0.00     0.170 A 
HETATM   20  N5  UNL     1      20.675   3.748  45.952  1.00  0.00    -0.272 N 
HETATM   21  N6  UNL     1      21.243   5.223  47.822  1.00  0.00    -0.228 NA
HETATM   22  N4  UNL     1      19.386   3.259  46.311  1.00  0.00    -0.187 NA
HETATM   23  C14 UNL     1      20.981   3.883  44.531  1.00  0.00     0.177 C 
HETATM   24  C15 UNL     1      22.184   5.595  48.588  1.00  0.00     0.166 A 
BRANCH  24  25
HETATM   25  N7  UNL     1      22.270   6.919  49.088  1.00  0.00    -0.381 N 
HETATM   26  H16 UNL     1      22.475   6.846  50.131  1.00  0.00     0.157 HD
HETATM   27  H17 UNL     1      22.325   7.878  49.411  1.00  0.00     0.157 HD
ENDBRANCH  24  25
ENDBRANCH   1  15
BRANCH   1  28
HETATM   28  C16 UNL     1      25.301   5.972  49.652  1.00  0.00     0.067 A 
HETATM   29  C17 UNL     1      26.207   5.942  48.598  1.00  0.00     0.032 A 
HETATM   30  C18 UNL     1      27.127   6.951  48.410  1.00  0.00     0.002 A 
HETATM   31  C19 UNL     1      27.206   8.045  49.248  1.00  0.00     0.002 A 
HETATM   32  C20 UNL     1      26.333   8.138  50.320  1.00  0.00     0.031 A 
HETATM   33  C21 UNL     1      25.445   7.091  50.442  1.00  0.00     0.053 A 
BRANCH  33  34
HETATM   34  N8  UNL     1      24.579   7.212  51.555  1.00  0.00    -0.397 N 
HETATM   35  H22 UNL     1      23.709   7.382  52.083  1.00  0.00     0.156 HD
HETATM   36  H23 UNL     1      24.240   7.213  52.532  1.00  0.00     0.156 HD
ENDBRANCH  33  34
ENDBRANCH   1  28
TORSDOF 7
ENDMDL
MODEL 9
REMARK VINA RESULT:      -7.2      1.910      5.888
REMARK  7 active torsions:
REMARK  status: ('A' for Active; 'I' for Inactive)
REMARK    1  A    between atoms: C2_2  and  C3_3 
REMARK       I    between atoms: C3_3  and  N1_5 
REMARK    2  A    between atoms: N1_5  and  C4_6 
REMARK    3  A    between atoms: C9_11  and  N2_12 
REMARK    4  A    between atoms: N2_12  and  C10_13 
REMARK    5  A    between atoms: N2_12  and  C16_24 
REMARK    6  A    between atoms: C15_22  and  N7_23 
REMARK    7  A    between atoms: C21_29  and  N8_30 
ROOT
HETATM    1  N2  UNL     1      25.430   0.979  53.051  1.00  0.00    -0.291 N 
ENDROOT
BRANCH   1   2
HETATM    2  C9  UNL     1      24.334   0.201  53.528  1.00  0.00     0.049 A 
HETATM    3  C7  UNL     1      24.387  -0.480  54.750  1.00  0.00    -0.035 A 
HETATM    4  C6  UNL     1      23.272  -1.228  55.169  1.00  0.00     0.011 A 
HETATM    5  C8  UNL     1      25.623  -0.389  55.576  1.00  0.00     0.050 C 
HETATM    6  C5  UNL     1      22.137  -1.298  54.391  1.00  0.00     0.030 A 
HETATM    7  C4  UNL     1      22.137  -0.614  53.204  1.00  0.00     0.036 A 
HETATM    8  C22 UNL     1      23.188   0.140  52.729  1.00  0.00     0.060 A 
BRANCH   7   9
HETATM    9  N1  UNL     1      21.065  -0.611  52.335  1.00  0.00    -0.335 N 
HETATM   10  C3  UNL     1      19.954   0.111  51.937  1.00  0.00     0.175 C 
HETATM   11  O1  UNL     1      19.913   1.200  52.666  1.00  0.00    -0.172 OA
HETATM   12  H4  UNL     1      20.756  -1.319  51.595  1.00  0.00     0.168 HD
BRANCH  10  13
HETATM   13  C2  UNL     1      18.809   0.797  51.486  1.00  0.00     0.032 C 
HETATM   14  C1  UNL     1      17.938   0.098  50.867  1.00  0.00     0.035 C 
ENDBRANCH  10  13
ENDBRANCH   7   9
ENDBRANCH   1   2
BRANCH   1  15
HETATM   15  C10 UNL     1      25.048   2.180  52.392  1.00  0.00     0.176 A 
HETATM   16  N3  UNL     1      24.179   2.825  53.069  1.00  0.00    -0.264 NA
HETATM   17  C11 UNL     1      23.575   4.076  52.699  1.00  0.00     0.214 A 
HETATM   18  C12 UNL     1      24.069   4.652  51.398  1.00  0.00     0.198 A 
HETATM   19  C13 UNL     1      24.534   6.062  51.489  1.00  0.00     0.170 A 
HETATM   20  N5  UNL     1      23.069   5.322  50.596  1.00  0.00    -0.272 N 
HETATM   21  N6  UNL     1      25.036   3.868  50.707  1.00  0.00    -0.228 NA
HETATM   22  N4  UNL     1      23.623   6.623  50.767  1.00  0.00    -0.187 NA
HETATM   23  C14 UNL     1      21.861   5.196  49.786  1.00  0.00     0.177 C 
HETATM   24  C15 UNL     1      25.473   2.764  51.151  1.00  0.00     0.166 A 
BRANCH  24  25
HETATM   25  N7  UNL     1      26.440   1.999  50.451  1.00  0.00    -0.381 N 
HETATM   26  H16 UNL     1      27.377   2.489  50.575  1.00  0.00     0.157 HD
HETATM   27  H17 UNL     1      27.104   1.427  49.940  1.00  0.00     0.157 HD
ENDBRANCH  24  25
ENDBRANCH   1  15
BRANCH   1  28
HETATM   28  C16 UNL     1      26.770   0.589  53.212  1.00  0.00     0.067 A 
HETATM   29  C17 UNL     1      27.241  -0.675  52.874  1.00  0.00     0.032 A 
HETATM   30  C18 UNL     1      28.563  -1.024  53.056  1.00  0.00     0.002 A 
HETATM   31  C19 UNL     1      29.493  -0.149  53.580  1.00  0.00     0.002 A 
HETATM   32  C20 UNL     1      29.090   1.127  53.940  1.00  0.00     0.031 A 
HETATM   33  C21 UNL     1      27.756   1.400  53.729  1.00  0.00     0.053 A 
BRANCH  33  34
HETATM   34  N8  UNL     1      27.377   2.706  54.121  1.00  0.00    -0.397 N 
HETATM   35  H22 UNL     1      27.448   3.724  54.269  1.00  0.00     0.156 HD
HETATM   36  H23 UNL     1      26.814   3.487  54.499  1.00  0.00     0.156 HD
ENDBRANCH  33  34
ENDBRANCH   1  28
TORSDOF 7
ENDMDL
