MODEL 1
REMARK VINA RESULT:      -8.0      0.000      0.000
REMARK  3 active torsions:
REMARK  status: ('A' for Active; 'I' for Inactive)
REMARK    1  A    between atoms: C2_2  and  O1_3 
REMARK    2  A    between atoms: O1_3  and  C3_4 
REMARK    3  A    between atoms: C11_14  and  C12_15 
ROOT
HETATM    1  C3  UNL     1      25.188   1.158  53.377  1.00  0.00     0.239 A 
HETATM    2  C4  UNL     1      26.640   1.239  53.565  1.00  0.00     0.115 A 
HETATM    3  C5  UNL     1      27.458   1.887  52.750  1.00  0.00     0.102 A 
HETATM    4  C6  UNL     1      26.902   2.566  51.591  1.00  0.00     0.055 A 
HETATM    5  C7  UNL     1      25.623   2.569  51.310  1.00  0.00     0.023 A 
HETATM    6  C8  UNL     1      24.786   1.893  52.165  1.00  0.00     0.084 A 
HETATM    7  N1  UNL     1      23.509   1.948  51.805  1.00  0.00    -0.242 NA
HETATM    8  C9  UNL     1      23.003   2.570  50.744  1.00  0.00     0.234 A 
HETATM    9  N2  UNL     1      23.880   3.198  49.972  1.00  0.00    -0.241 NA
HETATM   10  C10 UNL     1      25.206   3.244  50.188  1.00  0.00     0.070 A 
HETATM   11  C11 UNL     1      25.920   3.904  49.330  1.00  0.00     0.032 C 
HETATM   12  O2  UNL     1      28.796   1.833  53.121  1.00  0.00    -0.346 OA
HETATM   13  C15 UNL     1      29.376   0.685  53.720  1.00  0.00     0.202 C 
HETATM   14  C16 UNL     1      28.498   0.288  54.879  1.00  0.00     0.202 C 
HETATM   15  O3  UNL     1      27.139   0.583  54.677  1.00  0.00    -0.347 OA
ENDROOT
BRANCH  11  16
HETATM   16  C12 UNL     1      27.245   4.333  48.960  1.00  0.00    -0.002 C 
HETATM   17  C13 UNL     1      27.575   5.501  48.496  1.00  0.00    -0.031 C 
HETATM   18  C14 UNL     1      28.664   6.340  48.020  1.00  0.00     0.036 C 
ENDBRANCH  11  16
BRANCH   1  19
HETATM   19  O1  UNL     1      24.806  -0.196  53.269  1.00  0.00    -0.346 OA
BRANCH  19  20
HETATM   20  C2  UNL     1      24.006  -0.722  54.288  1.00  0.00     0.126 C 
HETATM   21  C1  UNL     1      22.783  -0.859  53.797  1.00  0.00     0.037 C 
ENDBRANCH  19  20
ENDBRANCH   1  19
TORSDOF 3
ENDMDL
MODEL 2
REMARK VINA RESULT:      -7.7      1.877      2.954
REMARK  3 active torsions:
REMARK  status: ('A' for Active; 'I' for Inactive)
REMARK    1  A    between atoms: C2_2  and  O1_3 
REMARK    2  A    between atoms: O1_3  and  C3_4 
REMARK    3  A    between atoms: C11_14  and  C12_15 
ROOT
HETATM    1  C3  UNL     1      25.590  -0.333  54.408  1.00  0.00     0.239 A 
HETATM    2  C4  UNL     1      26.630   0.697  54.341  1.00  0.00     0.115 A 
HETATM    3  C5  UNL     1      26.520   1.818  53.644  1.00  0.00     0.102 A 
HETATM    4  C6  UNL     1      25.299   2.059  52.891  1.00  0.00     0.055 A 
HETATM    5  C7  UNL     1      24.296   1.219  52.868  1.00  0.00     0.023 A 
HETATM    6  C8  UNL     1      24.425   0.060  53.597  1.00  0.00     0.084 A 
HETATM    7  N1  UNL     1      23.362  -0.733  53.516  1.00  0.00    -0.242 NA
HETATM    8  C9  UNL     1      22.247  -0.510  52.827  1.00  0.00     0.234 A 
HETATM    9  N2  UNL     1      22.206   0.632  52.153  1.00  0.00    -0.241 NA
HETATM   10  C10 UNL     1      23.189   1.548  52.123  1.00  0.00     0.070 A 
HETATM   11  C11 UNL     1      22.982   2.612  51.410  1.00  0.00     0.032 C 
HETATM   12  O2  UNL     1      27.628   2.653  53.723  1.00  0.00    -0.346 OA
HETATM   13  C15 UNL     1      28.954   2.154  53.799  1.00  0.00     0.202 C 
HETATM   14  C16 UNL     1      28.991   1.133  54.907  1.00  0.00     0.202 C 
HETATM   15  O3  UNL     1      27.780   0.439  55.067  1.00  0.00    -0.347 OA
ENDROOT
BRANCH  11  16
HETATM   16  C12 UNL     1      23.521   3.870  50.961  1.00  0.00    -0.002 C 
HETATM   17  C13 UNL     1      24.299   4.054  49.936  1.00  0.00    -0.031 C 
HETATM   18  C14 UNL     1      25.037   5.029  49.149  1.00  0.00     0.036 C 
ENDBRANCH  11  16
BRANCH   1  19
HETATM   19  O1  UNL     1      26.113  -1.557  53.938  1.00  0.00    -0.346 OA
BRANCH  19  20
HETATM   20  C2  UNL     1      26.641  -1.576  52.643  1.00  0.00     0.126 C 
HETATM   21  C1  UNL     1      27.627  -2.462  52.635  1.00  0.00     0.037 C 
ENDBRANCH  19  20
ENDBRANCH   1  19
TORSDOF 3
ENDMDL
MODEL 3
REMARK VINA RESULT:      -7.4      2.460      6.150
REMARK  3 active torsions:
REMARK  status: ('A' for Active; 'I' for Inactive)
REMARK    1  A    between atoms: C2_2  and  O1_3 
REMARK    2  A    between atoms: O1_3  and  C3_4 
REMARK    3  A    between atoms: C11_14  and  C12_15 
ROOT
HETATM    1  C3  UNL     1      26.547   1.055  53.351  1.00  0.00     0.239 A 
HETATM    2  C4  UNL     1      26.036   1.851  52.231  1.00  0.00     0.115 A 
HETATM    3  C5  UNL     1      24.773   1.842  51.831  1.00  0.00     0.102 A 
HETATM    4  C6  UNL     1      23.820   0.997  52.533  1.00  0.00     0.055 A 
HETATM    5  C7  UNL     1      24.149   0.240  53.548  1.00  0.00     0.023 A 
HETATM    6  C8  UNL     1      25.463   0.260  53.952  1.00  0.00     0.084 A 
HETATM    7  N1  UNL     1      25.707  -0.537  54.987  1.00  0.00    -0.242 NA
HETATM    8  C9  UNL     1      24.833  -1.309  55.626  1.00  0.00     0.234 A 
HETATM    9  N2  UNL     1      23.588  -1.267  55.172  1.00  0.00    -0.241 NA
HETATM   10  C10 UNL     1      23.167  -0.519  54.138  1.00  0.00     0.070 A 
HETATM   11  C11 UNL     1      21.911  -0.600  53.825  1.00  0.00     0.032 C 
HETATM   12  O2  UNL     1      24.510   2.673  50.749  1.00  0.00    -0.346 OA
HETATM   13  C15 UNL     1      25.442   2.875  49.698  1.00  0.00     0.202 C 
HETATM   14  C16 UNL     1      26.762   3.243  50.328  1.00  0.00     0.202 C 
HETATM   15  O3  UNL     1      26.967   2.645  51.583  1.00  0.00    -0.347 OA
ENDROOT
BRANCH  11  16
HETATM   16  C12 UNL     1      20.871  -0.143  52.939  1.00  0.00    -0.002 C 
HETATM   17  C13 UNL     1      19.627  -0.519  52.952  1.00  0.00    -0.031 C 
HETATM   18  C14 UNL     1      18.320  -0.368  52.330  1.00  0.00     0.036 C 
ENDBRANCH  11  16
BRANCH   1  19
HETATM   19  O1  UNL     1      27.572   0.203  52.890  1.00  0.00    -0.346 OA
BRANCH  19  20
HETATM   20  C2  UNL     1      28.838   0.347  53.469  1.00  0.00     0.126 C 
HETATM   21  C1  UNL     1      29.291  -0.871  53.728  1.00  0.00     0.037 C 
ENDBRANCH  19  20
ENDBRANCH   1  19
TORSDOF 3
ENDMDL
MODEL 4
REMARK VINA RESULT:      -7.2      2.486      5.349
REMARK  3 active torsions:
REMARK  status: ('A' for Active; 'I' for Inactive)
REMARK    1  A    between atoms: C2_2  and  O1_3 
REMARK    2  A    between atoms: O1_3  and  C3_4 
REMARK    3  A    between atoms: C11_14  and  C12_15 
ROOT
HETATM    1  C3  UNL     1      23.090   2.671  51.484  1.00  0.00     0.239 A 
HETATM    2  C4  UNL     1      24.249   3.093  50.692  1.00  0.00     0.115 A 
HETATM    3  C5  UNL     1      25.432   2.500  50.735  1.00  0.00     0.102 A 
HETATM    4  C6  UNL     1      25.613   1.358  51.617  1.00  0.00     0.055 A 
HETATM    5  C7  UNL     1      24.658   0.883  52.375  1.00  0.00     0.023 A 
HETATM    6  C8  UNL     1      23.435   1.508  52.319  1.00  0.00     0.084 A 
HETATM    7  N1  UNL     1      22.527   0.962  53.120  1.00  0.00    -0.242 NA
HETATM    8  C9  UNL     1      22.696  -0.083  53.925  1.00  0.00     0.234 A 
HETATM    9  N2  UNL     1      23.905  -0.627  53.918  1.00  0.00    -0.241 NA
HETATM   10  C10 UNL     1      24.939  -0.202  53.171  1.00  0.00     0.070 A 
HETATM   11  C11 UNL     1      26.056  -0.851  53.287  1.00  0.00     0.032 C 
HETATM   12  O2  UNL     1      26.387   3.067  49.900  1.00  0.00    -0.346 OA
HETATM   13  C15 UNL     1      26.456   4.463  49.657  1.00  0.00     0.202 C 
HETATM   14  C16 UNL     1      25.077   4.921  49.256  1.00  0.00     0.202 C 
HETATM   15  O3  UNL     1      24.046   4.183  49.862  1.00  0.00    -0.347 OA
ENDROOT
BRANCH  11  16
HETATM   16  C12 UNL     1      27.425  -0.956  52.852  1.00  0.00    -0.002 C 
HETATM   17  C13 UNL     1      28.480  -0.664  53.552  1.00  0.00    -0.031 C 
HETATM   18  C14 UNL     1      29.934  -0.604  53.565  1.00  0.00     0.036 C 
ENDBRANCH  11  16
BRANCH   1  19
HETATM   19  O1  UNL     1      22.666   3.742  52.299  1.00  0.00    -0.346 OA
BRANCH  19  20
HETATM   20  C2  UNL     1      21.542   4.463  51.880  1.00  0.00     0.126 C 
HETATM   21  C1  UNL     1      20.503   3.643  51.944  1.00  0.00     0.037 C 
ENDBRANCH  19  20
ENDBRANCH   1  19
TORSDOF 3
ENDMDL
MODEL 5
REMARK VINA RESULT:      -7.2      2.749      6.746
REMARK  3 active torsions:
REMARK  status: ('A' for Active; 'I' for Inactive)
REMARK    1  A    between atoms: C2_2  and  O1_3 
REMARK    2  A    between atoms: O1_3  and  C3_4 
REMARK    3  A    between atoms: C11_14  and  C12_15 
ROOT
HETATM    1  C3  UNL     1      25.366   3.375  51.247  1.00  0.00     0.239 A 
HETATM    2  C4  UNL     1      24.066   3.991  51.532  1.00  0.00     0.115 A 
HETATM    3  C5  UNL     1      23.095   3.393  52.205  1.00  0.00     0.102 A 
HETATM    4  C6  UNL     1      23.311   2.042  52.699  1.00  0.00     0.055 A 
HETATM    5  C7  UNL     1      24.426   1.383  52.512  1.00  0.00     0.023 A 
HETATM    6  C8  UNL     1      25.426   2.016  51.812  1.00  0.00     0.084 A 
HETATM    7  N1  UNL     1      26.519   1.275  51.669  1.00  0.00    -0.242 NA
HETATM    8  C9  UNL     1      26.714   0.041  52.122  1.00  0.00     0.234 A 
HETATM    9  N2  UNL     1      25.699  -0.496  52.786  1.00  0.00    -0.241 NA
HETATM   10  C10 UNL     1      24.523   0.111  53.023  1.00  0.00     0.070 A 
HETATM   11  C11 UNL     1      23.637  -0.561  53.691  1.00  0.00     0.032 C 
HETATM   12  O2  UNL     1      21.948   4.161  52.359  1.00  0.00    -0.346 OA
HETATM   13  C15 UNL     1      21.485   5.050  51.354  1.00  0.00     0.202 C 
HETATM   14  C16 UNL     1      22.647   5.922  50.951  1.00  0.00     0.202 C 
HETATM   15  O3  UNL     1      23.890   5.276  51.049  1.00  0.00    -0.347 OA
ENDROOT
BRANCH  11  16
HETATM   16  C12 UNL     1      22.311  -0.556  54.253  1.00  0.00    -0.002 C 
HETATM   17  C13 UNL     1      21.217  -0.914  53.650  1.00  0.00    -0.031 C 
HETATM   18  C14 UNL     1      19.776  -1.074  53.772  1.00  0.00     0.036 C 
ENDBRANCH  11  16
BRANCH   1  19
HETATM   19  O1  UNL     1      25.564   3.326  49.851  1.00  0.00    -0.346 OA
BRANCH  19  20
HETATM   20  C2  UNL     1      26.788   3.790  49.358  1.00  0.00     0.126 C 
HETATM   21  C1  UNL     1      26.609   5.048  48.982  1.00  0.00     0.037 C 
ENDBRANCH  19  20
ENDBRANCH   1  19
TORSDOF 3
ENDMDL
MODEL 6
REMARK VINA RESULT:      -7.1      2.442      5.242
REMARK  3 active torsions:
REMARK  status: ('A' for Active; 'I' for Inactive)
REMARK    1  A    between atoms: C2_2  and  O1_3 
REMARK    2  A    between atoms: O1_3  and  C3_4 
REMARK    3  A    between atoms: C11_14  and  C12_15 
ROOT
HETATM    1  C3  UNL     1      22.763   1.637  51.898  1.00  0.00     0.239 A 
HETATM    2  C4  UNL     1      22.620   0.640  52.964  1.00  0.00     0.115 A 
HETATM    3  C5  UNL     1      23.640   0.061  53.579  1.00  0.00     0.102 A 
HETATM    4  C6  UNL     1      24.993   0.423  53.186  1.00  0.00     0.055 A 
HETATM    5  C7  UNL     1      25.255   1.297  52.249  1.00  0.00     0.023 A 
HETATM    6  C8  UNL     1      24.187   1.890  51.620  1.00  0.00     0.084 A 
HETATM    7  N1  UNL     1      24.545   2.763  50.684  1.00  0.00    -0.242 NA
HETATM    8  C9  UNL     1      25.783   3.091  50.328  1.00  0.00     0.234 A 
HETATM    9  N2  UNL     1      26.755   2.472  50.985  1.00  0.00    -0.241 NA
HETATM   10  C10 UNL     1      26.572   1.563  51.959  1.00  0.00     0.070 A 
HETATM   11  C11 UNL     1      27.637   1.055  52.497  1.00  0.00     0.032 C 
HETATM   12  O2  UNL     1      23.274  -0.852  54.559  1.00  0.00    -0.346 OA
HETATM   13  C15 UNL     1      22.132  -1.686  54.435  1.00  0.00     0.202 C 
HETATM   14  C16 UNL     1      20.962  -0.803  54.084  1.00  0.00     0.202 C 
HETATM   15  O3  UNL     1      21.320   0.318  53.315  1.00  0.00    -0.347 OA
ENDROOT
BRANCH  11  16
HETATM   16  C12 UNL     1      28.155   0.136  53.479  1.00  0.00    -0.002 C 
HETATM   17  C13 UNL     1      29.185  -0.643  53.337  1.00  0.00    -0.031 C 
HETATM   18  C14 UNL     1      30.023  -1.652  53.966  1.00  0.00     0.036 C 
ENDBRANCH  11  16
BRANCH   1  19
HETATM   19  O1  UNL     1      22.120   1.169  50.732  1.00  0.00    -0.346 OA
BRANCH  19  20
HETATM   20  C2  UNL     1      21.054   1.927  50.237  1.00  0.00     0.126 C 
HETATM   21  C1  UNL     1      20.024   1.106  50.087  1.00  0.00     0.037 C 
ENDBRANCH  19  20
ENDBRANCH   1  19
TORSDOF 3
ENDMDL
MODEL 7
REMARK VINA RESULT:      -7.1      2.720      4.858
REMARK  3 active torsions:
REMARK  status: ('A' for Active; 'I' for Inactive)
REMARK    1  A    between atoms: C2_2  and  O1_3 
REMARK    2  A    between atoms: O1_3  and  C3_4 
REMARK    3  A    between atoms: C11_14  and  C12_15 
ROOT
HETATM    1  C3  UNL     1      22.507   0.041  52.789  1.00  0.00     0.239 A 
HETATM    2  C4  UNL     1      21.772   0.586  51.643  1.00  0.00     0.115 A 
HETATM    3  C5  UNL     1      22.309   1.374  50.724  1.00  0.00     0.102 A 
HETATM    4  C6  UNL     1      23.713   1.732  50.841  1.00  0.00     0.055 A 
HETATM    5  C7  UNL     1      24.479   1.312  51.815  1.00  0.00     0.023 A 
HETATM    6  C8  UNL     1      23.908   0.495  52.762  1.00  0.00     0.084 A 
HETATM    7  N1  UNL     1      24.756   0.118  53.712  1.00  0.00    -0.242 NA
HETATM    8  C9  UNL     1      26.040   0.448  53.816  1.00  0.00     0.234 A 
HETATM    9  N2  UNL     1      26.511   1.239  52.861  1.00  0.00    -0.241 NA
HETATM   10  C10 UNL     1      25.794   1.713  51.827  1.00  0.00     0.070 A 
HETATM   11  C11 UNL     1      26.413   2.477  50.982  1.00  0.00     0.032 C 
HETATM   12  O2  UNL     1      21.428   1.773  49.727  1.00  0.00    -0.346 OA
HETATM   13  C15 UNL     1      20.058   2.043  49.983  1.00  0.00     0.202 C 
HETATM   14  C16 UNL     1      19.496   0.861  50.732  1.00  0.00     0.202 C 
HETATM   15  O3  UNL     1      20.437   0.227  51.560  1.00  0.00    -0.347 OA
ENDROOT
BRANCH  11  16
HETATM   16  C12 UNL     1      26.303   3.257  49.776  1.00  0.00    -0.002 C 
HETATM   17  C13 UNL     1      26.889   4.392  49.535  1.00  0.00    -0.031 C 
HETATM   18  C14 UNL     1      27.079   5.464  48.571  1.00  0.00     0.036 C 
ENDBRANCH  11  16
BRANCH   1  19
HETATM   19  O1  UNL     1      21.887   0.460  53.984  1.00  0.00    -0.346 OA
BRANCH  19  20
HETATM   20  C2  UNL     1      21.484  -0.533  54.883  1.00  0.00     0.126 C 
HETATM   21  C1  UNL     1      21.621  -1.699  54.267  1.00  0.00     0.037 C 
ENDBRANCH  19  20
ENDBRANCH   1  19
TORSDOF 3
ENDMDL
MODEL 8
REMARK VINA RESULT:      -7.0      2.990      5.689
REMARK  3 active torsions:
REMARK  status: ('A' for Active; 'I' for Inactive)
REMARK    1  A    between atoms: C2_2  and  O1_3 
REMARK    2  A    between atoms: O1_3  and  C3_4 
REMARK    3  A    between atoms: C11_14  and  C12_15 
ROOT
HETATM    1  C3  UNL     1      22.064   0.729  51.765  1.00  0.00     0.239 A 
HETATM    2  C4  UNL     1      23.034   1.584  51.074  1.00  0.00     0.115 A 
HETATM    3  C5  UNL     1      24.295   1.730  51.452  1.00  0.00     0.102 A 
HETATM    4  C6  UNL     1      24.766   1.006  52.622  1.00  0.00     0.055 A 
HETATM    5  C7  UNL     1      24.000   0.211  53.326  1.00  0.00     0.023 A 
HETATM    6  C8  UNL     1      22.694   0.070  52.922  1.00  0.00     0.084 A 
HETATM    7  N1  UNL     1      21.991  -0.753  53.692  1.00  0.00    -0.242 NA
HETATM    8  C9  UNL     1      22.424  -1.414  54.761  1.00  0.00     0.234 A 
HETATM    9  N2  UNL     1      23.696  -1.221  55.081  1.00  0.00    -0.241 NA
HETATM   10  C10 UNL     1      24.549  -0.424  54.414  1.00  0.00     0.070 A 
HETATM   11  C11 UNL     1      25.762  -0.350  54.866  1.00  0.00     0.032 C 
HETATM   12  O2  UNL     1      25.037   2.589  50.651  1.00  0.00    -0.346 OA
HETATM   13  C15 UNL     1      24.479   3.752  50.059  1.00  0.00     0.202 C 
HETATM   14  C16 UNL     1      23.217   3.336  49.347  1.00  0.00     0.202 C 
HETATM   15  O3  UNL     1      22.557   2.260  49.964  1.00  0.00    -0.347 OA
ENDROOT
BRANCH  11  16
HETATM   16  C12 UNL     1      27.068   0.231  54.687  1.00  0.00    -0.002 C 
HETATM   17  C13 UNL     1      28.055  -0.282  54.016  1.00  0.00    -0.031 C 
HETATM   18  C14 UNL     1      29.433  -0.106  53.582  1.00  0.00     0.036 C 
ENDBRANCH  11  16
BRANCH   1  19
HETATM   19  O1  UNL     1      20.972   1.513  52.192  1.00  0.00    -0.346 OA
BRANCH  19  20
HETATM   20  C2  UNL     1      19.796   1.445  51.437  1.00  0.00     0.126 C 
HETATM   21  C1  UNL     1      19.258   0.253  51.656  1.00  0.00     0.037 C 
ENDBRANCH  19  20
ENDBRANCH   1  19
TORSDOF 3
ENDMDL
MODEL 9
REMARK VINA RESULT:      -6.9      4.273      8.134
REMARK  3 active torsions:
REMARK  status: ('A' for Active; 'I' for Inactive)
REMARK    1  A    between atoms: C2_2  and  O1_3 
REMARK    2  A    between atoms: O1_3  and  C3_4 
REMARK    3  A    between atoms: C11_14  and  C12_15 
ROOT
HETATM    1  C3  UNL     1      29.726   7.745  47.093  1.00  0.00     0.239 A 
HETATM    2  C4  UNL     1      30.664   6.639  47.307  1.00  0.00     0.115 A 
HETATM    3  C5  UNL     1      30.333   5.485  47.868  1.00  0.00     0.102 A 
HETATM    4  C6  UNL     1      28.961   5.285  48.305  1.00  0.00     0.055 A 
HETATM    5  C7  UNL     1      28.029   6.193  48.171  1.00  0.00     0.023 A 
HETATM    6  C8  UNL     1      28.386   7.385  47.587  1.00  0.00     0.084 A 
HETATM    7  N1  UNL     1      27.380   8.247  47.492  1.00  0.00    -0.242 NA
HETATM    8  C9  UNL     1      26.126   8.061  47.893  1.00  0.00     0.234 A 
HETATM    9  N2  UNL     1      25.867   6.883  48.445  1.00  0.00    -0.241 NA
HETATM   10  C10 UNL     1      26.764   5.897  48.619  1.00  0.00     0.070 A 
HETATM   11  C11 UNL     1      26.339   4.807  49.179  1.00  0.00     0.032 C 
HETATM   12  O2  UNL     1      31.381   4.579  47.970  1.00  0.00    -0.346 OA
HETATM   13  C15 UNL     1      32.715   4.982  48.235  1.00  0.00     0.202 C 
HETATM   14  C16 UNL     1      33.063   6.069  47.250  1.00  0.00     0.202 C 
HETATM   15  O3  UNL     1      31.962   6.860  46.881  1.00  0.00    -0.347 OA
ENDROOT
BRANCH  11  16
HETATM   16  C12 UNL     1      26.689   3.485  49.633  1.00  0.00    -0.002 C 
HETATM   17  C13 UNL     1      26.360   2.948  50.770  1.00  0.00    -0.031 C 
HETATM   18  C14 UNL     1      26.458   1.767  51.613  1.00  0.00     0.036 C 
ENDBRANCH  11  16
BRANCH   1  19
HETATM   19  O1  UNL     1      30.196   8.893  47.766  1.00  0.00    -0.346 OA
BRANCH  19  20
HETATM   20  C2  UNL     1      30.406   8.789  49.145  1.00  0.00     0.126 C 
HETATM   21  C1  UNL     1      30.632  10.013  49.601  1.00  0.00     0.037 C 
ENDBRANCH  19  20
ENDBRANCH   1  19
TORSDOF 3
ENDMDL
