MODEL 1
REMARK VINA RESULT:      -6.2      0.000      0.000
REMARK  8 active torsions:
REMARK  status: ('A' for Active; 'I' for Inactive)
REMARK    1  A    between atoms: C2_2  and  C3_3 
REMARK    2  A    between atoms: C3_3  and  N1_4 
REMARK    3  A    between atoms: N1_4  and  C5_6 
REMARK    4  A    between atoms: C5_6  and  C6_7 
REMARK    5  A    between atoms: C8_11  and  C9_12 
REMARK    6  A    between atoms: C10_13  and  N3_15 
REMARK    7  A    between atoms: N3_15  and  C12_16 
REMARK    8  A    between atoms: C12_16  and  C13_17 
ROOT
HETATM    1  C6  UNL     1      26.478   1.867  52.866  1.00  0.00     0.146 A 
HETATM    2  N2  UNL     1      27.503   2.324  52.254  1.00  0.00    -0.113 NA
HETATM    3  O1  UNL     1      27.367   3.032  51.088  1.00  0.00    -0.215 OA
HETATM    4  C7  UNL     1      26.129   3.265  50.550  1.00  0.00     0.096 A 
HETATM    5  C8  UNL     1      26.158   4.005  49.434  1.00  0.00     0.038 C 
HETATM    6  C14 UNL     1      24.874   2.758  51.137  1.00  0.00     0.188 A 
HETATM    7  N4  UNL     1      25.169   2.077  52.364  1.00  0.00    -0.369 N 
HETATM    8  H21 UNL     1      24.298   1.753  52.844  1.00  0.00     0.161 HD
ENDROOT
BRANCH   5   9
HETATM    9  C9  UNL     1      27.385   4.495  48.870  1.00  0.00     0.027 C 
HETATM   10  C10 UNL     1      27.622   5.731  48.405  1.00  0.00     0.001 C 
HETATM   11  C11 UNL     1      26.568   6.777  48.431  1.00  0.00     0.068 C 
BRANCH  10  12
HETATM   12  N3  UNL     1      28.903   6.030  47.878  1.00  0.00    -0.392 N 
HETATM   13  H14 UNL     1      29.129   5.519  46.980  1.00  0.00     0.159 HD
BRANCH  12  14
HETATM   14  C12 UNL     1      29.909   6.905  48.384  1.00  0.00     0.134 C 
BRANCH  14  15
HETATM   15  C13 UNL     1      31.315   6.417  48.293  1.00  0.00     0.134 C 
HETATM   16 CL1  UNL     1      31.251   4.782  47.561  1.00  0.00    -0.129 Cl
ENDBRANCH  14  15
ENDBRANCH  12  14
ENDBRANCH  10  12
ENDBRANCH   5   9
BRANCH   1  17
HETATM   17  C5  UNL     1      26.648   1.102  54.129  1.00  0.00     0.202 C 
BRANCH  17  18
HETATM   18  N1  UNL     1      26.308  -0.290  53.809  1.00  0.00    -0.381 N 
HETATM   19  C4  UNL     1      25.070  -0.836  54.374  1.00  0.00     0.150 C 
BRANCH  18  20
HETATM   20  C3  UNL     1      27.121  -1.079  52.998  1.00  0.00     0.137 C 
BRANCH  20  21
HETATM   21  C2  UNL     1      28.424  -1.123  53.203  1.00  0.00    -0.138 C 
HETATM   22  C1  UNL     1      29.679  -1.002  53.610  1.00  0.00     0.098 C 
ENDBRANCH  20  21
ENDBRANCH  18  20
ENDBRANCH  17  18
ENDBRANCH   1  17
TORSDOF 8
ENDMDL
MODEL 2
REMARK VINA RESULT:      -6.0      3.153      6.773
REMARK  8 active torsions:
REMARK  status: ('A' for Active; 'I' for Inactive)
REMARK    1  A    between atoms: C2_2  and  C3_3 
REMARK    2  A    between atoms: C3_3  and  N1_4 
REMARK    3  A    between atoms: N1_4  and  C5_6 
REMARK    4  A    between atoms: C5_6  and  C6_7 
REMARK    5  A    between atoms: C8_11  and  C9_12 
REMARK    6  A    between atoms: C10_13  and  N3_15 
REMARK    7  A    between atoms: N3_15  and  C12_16 
REMARK    8  A    between atoms: C12_16  and  C13_17 
ROOT
HETATM    1  C6  UNL     1      22.877   2.886  51.739  1.00  0.00     0.146 A 
HETATM    2  N2  UNL     1      24.002   2.863  52.346  1.00  0.00    -0.113 NA
HETATM    3  O1  UNL     1      24.406   1.748  53.033  1.00  0.00    -0.215 OA
HETATM    4  C7  UNL     1      23.613   0.632  53.087  1.00  0.00     0.096 A 
HETATM    5  C8  UNL     1      24.164  -0.386  53.760  1.00  0.00     0.038 C 
HETATM    6  C14 UNL     1      22.278   0.547  52.464  1.00  0.00     0.188 A 
HETATM    7  N4  UNL     1      22.012   1.763  51.753  1.00  0.00    -0.369 N 
HETATM    8  H21 UNL     1      21.099   1.721  51.246  1.00  0.00     0.161 HD
ENDROOT
BRANCH   5   9
HETATM    9  C9  UNL     1      25.464  -0.295  54.362  1.00  0.00     0.027 C 
HETATM   10  C10 UNL     1      26.635  -0.659  53.816  1.00  0.00     0.001 C 
HETATM   11  C11 UNL     1      26.699  -1.229  52.446  1.00  0.00     0.068 C 
BRANCH  10  12
HETATM   12  N3  UNL     1      27.822  -0.497  54.572  1.00  0.00    -0.392 N 
HETATM   13  H14 UNL     1      27.745  -0.826  55.574  1.00  0.00     0.159 HD
BRANCH  12  14
HETATM   14  C12 UNL     1      29.082   0.044  54.174  1.00  0.00     0.134 C 
BRANCH  14  15
HETATM   15  C13 UNL     1      29.319   1.477  54.510  1.00  0.00     0.134 C 
HETATM   16 CL1  UNL     1      28.358   2.449  53.352  1.00  0.00    -0.129 Cl
ENDBRANCH  14  15
ENDBRANCH  12  14
ENDBRANCH  10  12
ENDBRANCH   5   9
BRANCH   1  17
HETATM   17  C5  UNL     1      22.458   4.105  51.000  1.00  0.00     0.202 C 
BRANCH  17  18
HETATM   18  N1  UNL     1      23.231   4.108  49.750  1.00  0.00    -0.381 N 
HETATM   19  C4  UNL     1      22.797   3.206  48.679  1.00  0.00     0.150 C 
BRANCH  18  20
HETATM   20  C3  UNL     1      24.340   4.932  49.572  1.00  0.00     0.137 C 
BRANCH  20  21
HETATM   21  C2  UNL     1      25.538   4.409  49.394  1.00  0.00    -0.138 C 
HETATM   22  C1  UNL     1      26.828   4.118  49.303  1.00  0.00     0.098 C 
ENDBRANCH  20  21
ENDBRANCH  18  20
ENDBRANCH  17  18
ENDBRANCH   1  17
TORSDOF 8
ENDMDL
MODEL 3
REMARK VINA RESULT:      -6.0      1.601      1.976
REMARK  8 active torsions:
REMARK  status: ('A' for Active; 'I' for Inactive)
REMARK    1  A    between atoms: C2_2  and  C3_3 
REMARK    2  A    between atoms: C3_3  and  N1_4 
REMARK    3  A    between atoms: N1_4  and  C5_6 
REMARK    4  A    between atoms: C5_6  and  C6_7 
REMARK    5  A    between atoms: C8_11  and  C9_12 
REMARK    6  A    between atoms: C10_13  and  N3_15 
REMARK    7  A    between atoms: N3_15  and  C12_16 
REMARK    8  A    between atoms: C12_16  and  C13_17 
ROOT
HETATM    1  C6  UNL     1      25.963   0.784  51.917  1.00  0.00     0.146 A 
HETATM    2  N2  UNL     1      26.766   1.684  51.494  1.00  0.00    -0.113 NA
HETATM    3  O1  UNL     1      26.292   2.850  50.951  1.00  0.00    -0.215 OA
HETATM    4  C7  UNL     1      24.944   3.077  50.847  1.00  0.00     0.096 A 
HETATM    5  C8  UNL     1      24.640   4.276  50.335  1.00  0.00     0.038 C 
HETATM    6  C14 UNL     1      23.917   2.103  51.260  1.00  0.00     0.188 A 
HETATM    7  N4  UNL     1      24.559   0.959  51.842  1.00  0.00    -0.369 N 
HETATM    8  H21 UNL     1      23.862   0.269  52.203  1.00  0.00     0.161 HD
ENDROOT
BRANCH   5   9
HETATM    9  C9  UNL     1      25.647   5.219  49.936  1.00  0.00     0.027 C 
HETATM   10  C10 UNL     1      25.639   6.545  50.143  1.00  0.00     0.001 C 
HETATM   11  C11 UNL     1      24.513   7.205  50.852  1.00  0.00     0.068 C 
BRANCH  10  12
HETATM   12  N3  UNL     1      26.727   7.318  49.669  1.00  0.00    -0.392 N 
HETATM   13  H14 UNL     1      27.172   7.934  50.405  1.00  0.00     0.159 HD
BRANCH  12  14
HETATM   14  C12 UNL     1      27.290   7.383  48.359  1.00  0.00     0.134 C 
BRANCH  14  15
HETATM   15  C13 UNL     1      28.733   7.026  48.244  1.00  0.00     0.134 C 
HETATM   16 CL1  UNL     1      28.827   5.237  48.218  1.00  0.00    -0.129 Cl
ENDBRANCH  14  15
ENDBRANCH  12  14
ENDBRANCH  10  12
ENDBRANCH   5   9
BRANCH   1  17
HETATM   17  C5  UNL     1      26.500  -0.472  52.503  1.00  0.00     0.202 C 
BRANCH  17  18
HETATM   18  N1  UNL     1      26.601  -0.235  53.949  1.00  0.00    -0.381 N 
HETATM   19  C4  UNL     1      25.416  -0.504  54.768  1.00  0.00     0.150 C 
BRANCH  18  20
HETATM   20  C3  UNL     1      27.775   0.229  54.538  1.00  0.00     0.137 C 
BRANCH  20  21
HETATM   21  C2  UNL     1      28.947  -0.215  54.128  1.00  0.00    -0.138 C 
HETATM   22  C1  UNL     1      29.985  -0.870  53.627  1.00  0.00     0.098 C 
ENDBRANCH  20  21
ENDBRANCH  18  20
ENDBRANCH  17  18
ENDBRANCH   1  17
TORSDOF 8
ENDMDL
MODEL 4
REMARK VINA RESULT:      -5.9      1.409      2.387
REMARK  8 active torsions:
REMARK  status: ('A' for Active; 'I' for Inactive)
REMARK    1  A    between atoms: C2_2  and  C3_3 
REMARK    2  A    between atoms: C3_3  and  N1_4 
REMARK    3  A    between atoms: N1_4  and  C5_6 
REMARK    4  A    between atoms: C5_6  and  C6_7 
REMARK    5  A    between atoms: C8_11  and  C9_12 
REMARK    6  A    between atoms: C10_13  and  N3_15 
REMARK    7  A    between atoms: N3_15  and  C12_16 
REMARK    8  A    between atoms: C12_16  and  C13_17 
ROOT
HETATM    1  C6  UNL     1      26.360   1.815  52.870  1.00  0.00     0.146 A 
HETATM    2  N2  UNL     1      27.399   2.236  52.256  1.00  0.00    -0.113 NA
HETATM    3  O1  UNL     1      27.285   2.966  51.102  1.00  0.00    -0.215 OA
HETATM    4  C7  UNL     1      26.054   3.263  50.579  1.00  0.00     0.096 A 
HETATM    5  C8  UNL     1      26.107   4.017  49.474  1.00  0.00     0.038 C 
HETATM    6  C14 UNL     1      24.783   2.802  51.169  1.00  0.00     0.188 A 
HETATM    7  N4  UNL     1      25.058   2.090  52.383  1.00  0.00    -0.369 N 
HETATM    8  H21 UNL     1      24.178   1.797  52.866  1.00  0.00     0.161 HD
ENDROOT
BRANCH   5   9
HETATM    9  C9  UNL     1      27.349   4.462  48.906  1.00  0.00     0.027 C 
HETATM   10  C10 UNL     1      27.655   5.706  48.509  1.00  0.00     0.001 C 
HETATM   11  C11 UNL     1      26.673   6.814  48.626  1.00  0.00     0.068 C 
BRANCH  10  12
HETATM   12  N3  UNL     1      28.940   5.954  47.965  1.00  0.00    -0.392 N 
HETATM   13  H14 UNL     1      29.484   5.079  47.727  1.00  0.00     0.159 HD
BRANCH  12  14
HETATM   14  C12 UNL     1      29.588   7.198  47.705  1.00  0.00     0.134 C 
BRANCH  14  15
HETATM   15  C13 UNL     1      30.768   7.518  48.559  1.00  0.00     0.134 C 
HETATM   16 CL1  UNL     1      30.449   9.113  49.311  1.00  0.00    -0.129 Cl
ENDBRANCH  14  15
ENDBRANCH  12  14
ENDBRANCH  10  12
ENDBRANCH   5   9
BRANCH   1  17
HETATM   17  C5  UNL     1      26.507   1.024  54.120  1.00  0.00     0.202 C 
BRANCH  17  18
HETATM   18  N1  UNL     1      25.904  -0.286  53.844  1.00  0.00    -0.381 N 
HETATM   19  C4  UNL     1      26.541  -1.130  52.829  1.00  0.00     0.150 C 
BRANCH  18  20
HETATM   20  C3  UNL     1      24.765  -0.729  54.516  1.00  0.00     0.137 C 
BRANCH  20  21
HETATM   21  C2  UNL     1      23.580  -0.646  53.943  1.00  0.00    -0.138 C 
HETATM   22  C1  UNL     1      22.478  -0.763  53.216  1.00  0.00     0.098 C 
ENDBRANCH  20  21
ENDBRANCH  18  20
ENDBRANCH  17  18
ENDBRANCH   1  17
TORSDOF 8
ENDMDL
MODEL 5
REMARK VINA RESULT:      -5.5      2.133      3.596
REMARK  8 active torsions:
REMARK  status: ('A' for Active; 'I' for Inactive)
REMARK    1  A    between atoms: C2_2  and  C3_3 
REMARK    2  A    between atoms: C3_3  and  N1_4 
REMARK    3  A    between atoms: N1_4  and  C5_6 
REMARK    4  A    between atoms: C5_6  and  C6_7 
REMARK    5  A    between atoms: C8_11  and  C9_12 
REMARK    6  A    between atoms: C10_13  and  N3_15 
REMARK    7  A    between atoms: N3_15  and  C12_16 
REMARK    8  A    between atoms: C12_16  and  C13_17 
ROOT
HETATM    1  C6  UNL     1      25.583   3.676  49.831  1.00  0.00     0.146 A 
HETATM    2  N2  UNL     1      26.776   3.310  49.554  1.00  0.00    -0.113 NA
HETATM    3  O1  UNL     1      27.662   4.182  48.978  1.00  0.00    -0.215 OA
HETATM    4  C7  UNL     1      27.290   5.468  48.685  1.00  0.00     0.096 A 
HETATM    5  C8  UNL     1      28.277   6.208  48.165  1.00  0.00     0.038 C 
HETATM    6  C14 UNL     1      25.933   6.000  48.917  1.00  0.00     0.188 A 
HETATM    7  N4  UNL     1      25.136   4.993  49.555  1.00  0.00    -0.369 N 
HETATM    8  H21 UNL     1      24.182   5.349  49.793  1.00  0.00     0.161 HD
ENDROOT
BRANCH   5   9
HETATM    9  C9  UNL     1      29.596   5.683  47.943  1.00  0.00     0.027 C 
HETATM   10  C10 UNL     1      30.661   6.349  47.473  1.00  0.00     0.001 C 
HETATM   11  C11 UNL     1      30.571   7.787  47.113  1.00  0.00     0.068 C 
BRANCH  10  12
HETATM   12  N3  UNL     1      31.887   5.656  47.316  1.00  0.00    -0.392 N 
HETATM   13  H14 UNL     1      32.387   5.864  46.408  1.00  0.00     0.159 HD
BRANCH  12  14
HETATM   14  C12 UNL     1      32.523   4.730  48.196  1.00  0.00     0.134 C 
BRANCH  14  15
HETATM   15  C13 UNL     1      32.926   3.424  47.599  1.00  0.00     0.134 C 
HETATM   16 CL1  UNL     1      34.668   3.205  47.955  1.00  0.00    -0.129 Cl
ENDBRANCH  14  15
ENDBRANCH  12  14
ENDBRANCH  10  12
ENDBRANCH   5   9
BRANCH   1  17
HETATM   17  C5  UNL     1      24.638   2.713  50.455  1.00  0.00     0.202 C 
BRANCH  17  18
HETATM   18  N1  UNL     1      24.860   2.808  51.903  1.00  0.00    -0.381 N 
HETATM   19  C4  UNL     1      23.918   3.614  52.686  1.00  0.00     0.150 C 
BRANCH  18  20
HETATM   20  C3  UNL     1      25.923   2.160  52.529  1.00  0.00     0.137 C 
BRANCH  20  21
HETATM   21  C2  UNL     1      26.174   0.891  52.272  1.00  0.00    -0.138 C 
HETATM   22  C1  UNL     1      26.673  -0.324  52.096  1.00  0.00     0.098 C 
ENDBRANCH  20  21
ENDBRANCH  18  20
ENDBRANCH  17  18
ENDBRANCH   1  17
TORSDOF 8
ENDMDL
MODEL 6
REMARK VINA RESULT:      -5.5      4.746      8.116
REMARK  8 active torsions:
REMARK  status: ('A' for Active; 'I' for Inactive)
REMARK    1  A    between atoms: C2_2  and  C3_3 
REMARK    2  A    between atoms: C3_3  and  N1_4 
REMARK    3  A    between atoms: N1_4  and  C5_6 
REMARK    4  A    between atoms: C5_6  and  C6_7 
REMARK    5  A    between atoms: C8_11  and  C9_12 
REMARK    6  A    between atoms: C10_13  and  N3_15 
REMARK    7  A    between atoms: N3_15  and  C12_16 
REMARK    8  A    between atoms: C12_16  and  C13_17 
ROOT
HETATM    1  C6  UNL     1      24.904  -0.276  54.420  1.00  0.00     0.146 A 
HETATM    2  N2  UNL     1      24.150   0.291  53.557  1.00  0.00    -0.113 NA
HETATM    3  O1  UNL     1      22.808   0.020  53.511  1.00  0.00    -0.215 OA
HETATM    4  C7  UNL     1      22.241  -0.866  54.390  1.00  0.00     0.096 A 
HETATM    5  C8  UNL     1      20.915  -0.992  54.246  1.00  0.00     0.038 C 
HETATM    6  C14 UNL     1      23.007  -1.615  55.403  1.00  0.00     0.188 A 
HETATM    7  N4  UNL     1      24.379  -1.200  55.358  1.00  0.00    -0.369 N 
HETATM    8  H21 UNL     1      24.947  -1.665  56.103  1.00  0.00     0.161 HD
ENDROOT
BRANCH   5   9
HETATM    9  C9  UNL     1      20.177  -0.258  53.256  1.00  0.00     0.027 C 
HETATM   10  C10 UNL     1      18.927  -0.503  52.835  1.00  0.00     0.001 C 
HETATM   11  C11 UNL     1      18.137  -1.632  53.389  1.00  0.00     0.068 C 
BRANCH  10  12
HETATM   12  N3  UNL     1      18.363   0.333  51.840  1.00  0.00    -0.392 N 
HETATM   13  H14 UNL     1      17.626   0.999  52.203  1.00  0.00     0.159 HD
BRANCH  12  14
HETATM   14  C12 UNL     1      18.645   0.395  50.443  1.00  0.00     0.134 C 
BRANCH  14  15
HETATM   15  C13 UNL     1      19.595   1.459  50.008  1.00  0.00     0.134 C 
HETATM   16 CL1  UNL     1      21.220   0.708  49.937  1.00  0.00    -0.129 Cl
ENDBRANCH  14  15
ENDBRANCH  12  14
ENDBRANCH  10  12
ENDBRANCH   5   9
BRANCH   1  17
HETATM   17  C5  UNL     1      26.357   0.032  54.451  1.00  0.00     0.202 C 
BRANCH  17  18
HETATM   18  N1  UNL     1      26.868  -0.280  53.110  1.00  0.00    -0.381 N 
HETATM   19  C4  UNL     1      26.725  -1.657  52.629  1.00  0.00     0.150 C 
BRANCH  18  20
HETATM   20  C3  UNL     1      27.468   0.688  52.307  1.00  0.00     0.137 C 
BRANCH  20  21
HETATM   21  C2  UNL     1      26.732   1.588  51.685  1.00  0.00    -0.138 C 
HETATM   22  C1  UNL     1      26.224   2.573  50.957  1.00  0.00     0.098 C 
ENDBRANCH  20  21
ENDBRANCH  18  20
ENDBRANCH  17  18
ENDBRANCH   1  17
TORSDOF 8
ENDMDL
MODEL 7
REMARK VINA RESULT:      -5.4      5.206      9.296
REMARK  8 active torsions:
REMARK  status: ('A' for Active; 'I' for Inactive)
REMARK    1  A    between atoms: C2_2  and  C3_3 
REMARK    2  A    between atoms: C3_3  and  N1_4 
REMARK    3  A    between atoms: N1_4  and  C5_6 
REMARK    4  A    between atoms: C5_6  and  C6_7 
REMARK    5  A    between atoms: C8_11  and  C9_12 
REMARK    6  A    between atoms: C10_13  and  N3_15 
REMARK    7  A    between atoms: N3_15  and  C12_16 
REMARK    8  A    between atoms: C12_16  and  C13_17 
ROOT
HETATM    1  C6  UNL     1      23.686   4.572  51.844  1.00  0.00     0.146 A 
HETATM    2  N2  UNL     1      22.471   4.198  51.975  1.00  0.00    -0.113 NA
HETATM    3  O1  UNL     1      22.168   2.929  52.396  1.00  0.00    -0.215 OA
HETATM    4  C7  UNL     1      23.161   2.031  52.687  1.00  0.00     0.096 A 
HETATM    5  C8  UNL     1      22.707   0.850  53.124  1.00  0.00     0.038 C 
HETATM    6  C14 UNL     1      24.599   2.326  52.537  1.00  0.00     0.188 A 
HETATM    7  N4  UNL     1      24.760   3.692  52.131  1.00  0.00    -0.369 N 
HETATM    8  H21 UNL     1      25.769   3.960  52.071  1.00  0.00     0.161 HD
ENDROOT
BRANCH   5   9
HETATM    9  C9  UNL     1      21.305   0.572  53.267  1.00  0.00     0.027 C 
HETATM   10  C10 UNL     1      20.750  -0.475  53.897  1.00  0.00     0.001 C 
HETATM   11  C11 UNL     1      21.589  -1.512  54.549  1.00  0.00     0.068 C 
BRANCH  10  12
HETATM   12  N3  UNL     1      19.337  -0.583  53.931  1.00  0.00    -0.392 N 
HETATM   13  H14 UNL     1      18.854   0.227  54.408  1.00  0.00     0.159 HD
BRANCH  12  14
HETATM   14  C12 UNL     1      18.496  -1.618  53.422  1.00  0.00     0.134 C 
BRANCH  14  15
HETATM   15  C13 UNL     1      17.314  -1.176  52.628  1.00  0.00     0.134 C 
HETATM   16 CL1  UNL     1      17.947  -0.311  51.191  1.00  0.00    -0.129 Cl
ENDBRANCH  14  15
ENDBRANCH  12  14
ENDBRANCH  10  12
ENDBRANCH   5   9
BRANCH   1  17
HETATM   17  C5  UNL     1      23.992   5.952  51.385  1.00  0.00     0.202 C 
BRANCH  17  18
HETATM   18  N1  UNL     1      23.712   5.972  49.944  1.00  0.00    -0.381 N 
HETATM   19  C4  UNL     1      22.594   6.796  49.477  1.00  0.00     0.150 C 
BRANCH  18  20
HETATM   20  C3  UNL     1      24.474   5.239  49.036  1.00  0.00     0.137 C 
BRANCH  20  21
HETATM   21  C2  UNL     1      25.765   5.480  48.902  1.00  0.00    -0.138 C 
HETATM   22  C1  UNL     1      27.076   5.461  48.714  1.00  0.00     0.098 C 
ENDBRANCH  20  21
ENDBRANCH  18  20
ENDBRANCH  17  18
ENDBRANCH   1  17
TORSDOF 8
ENDMDL
MODEL 8
REMARK VINA RESULT:      -5.3      3.824      5.159
REMARK  8 active torsions:
REMARK  status: ('A' for Active; 'I' for Inactive)
REMARK    1  A    between atoms: C2_2  and  C3_3 
REMARK    2  A    between atoms: C3_3  and  N1_4 
REMARK    3  A    between atoms: N1_4  and  C5_6 
REMARK    4  A    between atoms: C5_6  and  C6_7 
REMARK    5  A    between atoms: C8_11  and  C9_12 
REMARK    6  A    between atoms: C10_13  and  N3_15 
REMARK    7  A    between atoms: N3_15  and  C12_16 
REMARK    8  A    between atoms: C12_16  and  C13_17 
ROOT
HETATM    1  C6  UNL     1      25.706   4.334  49.991  1.00  0.00     0.146 A 
HETATM    2  N2  UNL     1      26.824   3.757  49.766  1.00  0.00    -0.113 NA
HETATM    3  O1  UNL     1      27.821   4.398  49.079  1.00  0.00    -0.215 OA
HETATM    4  C7  UNL     1      27.643   5.676  48.615  1.00  0.00     0.096 A 
HETATM    5  C8  UNL     1      28.721   6.180  48.002  1.00  0.00     0.038 C 
HETATM    6  C14 UNL     1      26.388   6.435  48.773  1.00  0.00     0.188 A 
HETATM    7  N4  UNL     1      25.459   5.656  49.540  1.00  0.00    -0.369 N 
HETATM    8  H21 UNL     1      24.576   6.183  49.727  1.00  0.00     0.161 HD
ENDROOT
BRANCH   5   9
HETATM    9  C9  UNL     1      29.939   5.434  47.853  1.00  0.00     0.027 C 
HETATM   10  C10 UNL     1      31.141   5.740  48.365  1.00  0.00     0.001 C 
HETATM   11  C11 UNL     1      31.337   6.961  49.188  1.00  0.00     0.068 C 
BRANCH  10  12
HETATM   12  N3  UNL     1      32.236   4.879  48.104  1.00  0.00    -0.392 N 
HETATM   13  H14 UNL     1      33.105   5.107  48.661  1.00  0.00     0.159 HD
BRANCH  12  14
HETATM   14  C12 UNL     1      32.324   3.772  47.208  1.00  0.00     0.134 C 
BRANCH  14  15
HETATM   15  C13 UNL     1      33.168   2.627  47.656  1.00  0.00     0.134 C 
HETATM   16 CL1  UNL     1      34.846   3.240  47.794  1.00  0.00    -0.129 Cl
ENDBRANCH  14  15
ENDBRANCH  12  14
ENDBRANCH  10  12
ENDBRANCH   5   9
BRANCH   1  17
HETATM   17  C5  UNL     1      24.639   3.620  50.738  1.00  0.00     0.202 C 
BRANCH  17  18
HETATM   18  N1  UNL     1      23.431   3.712  49.907  1.00  0.00    -0.381 N 
HETATM   19  C4  UNL     1      22.362   4.610  50.355  1.00  0.00     0.150 C 
BRANCH  18  20
HETATM   20  C3  UNL     1      23.288   2.980  48.730  1.00  0.00     0.137 C 
BRANCH  20  21
HETATM   21  C2  UNL     1      22.341   2.068  48.623  1.00  0.00    -0.138 C 
HETATM   22  C1  UNL     1      21.441   1.106  48.772  1.00  0.00     0.098 C 
ENDBRANCH  20  21
ENDBRANCH  18  20
ENDBRANCH  17  18
ENDBRANCH   1  17
TORSDOF 8
ENDMDL
MODEL 9
REMARK VINA RESULT:      -5.3      2.277      7.509
REMARK  8 active torsions:
REMARK  status: ('A' for Active; 'I' for Inactive)
REMARK    1  A    between atoms: C2_2  and  C3_3 
REMARK    2  A    between atoms: C3_3  and  N1_4 
REMARK    3  A    between atoms: N1_4  and  C5_6 
REMARK    4  A    between atoms: C5_6  and  C6_7 
REMARK    5  A    between atoms: C8_11  and  C9_12 
REMARK    6  A    between atoms: C10_13  and  N3_15 
REMARK    7  A    between atoms: N3_15  and  C12_16 
REMARK    8  A    between atoms: C12_16  and  C13_17 
ROOT
HETATM    1  C6  UNL     1      28.353   6.304  48.003  1.00  0.00     0.146 A 
HETATM    2  N2  UNL     1      28.735   5.183  48.486  1.00  0.00    -0.113 NA
HETATM    3  O1  UNL     1      27.852   4.362  49.136  1.00  0.00    -0.215 OA
HETATM    4  C7  UNL     1      26.537   4.722  49.285  1.00  0.00     0.096 A 
HETATM    5  C8  UNL     1      25.793   3.798  49.904  1.00  0.00     0.038 C 
HETATM    6  C14 UNL     1      25.983   6.004  48.810  1.00  0.00     0.188 A 
HETATM    7  N4  UNL     1      27.008   6.734  48.120  1.00  0.00    -0.369 N 
HETATM    8  H21 UNL     1      26.640   7.624  47.714  1.00  0.00     0.161 HD
ENDROOT
BRANCH   5   9
HETATM    9  C9  UNL     1      26.341   2.552  50.363  1.00  0.00     0.027 C 
HETATM   10  C10 UNL     1      26.083   1.936  51.527  1.00  0.00     0.001 C 
HETATM   11  C11 UNL     1      25.143   2.524  52.515  1.00  0.00     0.068 C 
BRANCH  10  12
HETATM   12  N3  UNL     1      26.727   0.705  51.808  1.00  0.00    -0.392 N 
HETATM   13  H14 UNL     1      27.445   0.420  51.086  1.00  0.00     0.159 HD
BRANCH  12  14
HETATM   14  C12 UNL     1      26.539  -0.185  52.908  1.00  0.00     0.134 C 
BRANCH  14  15
HETATM   15  C13 UNL     1      27.441   0.014  54.078  1.00  0.00     0.134 C 
HETATM   16 CL1  UNL     1      28.965   0.714  53.448  1.00  0.00    -0.129 Cl
ENDBRANCH  14  15
ENDBRANCH  12  14
ENDBRANCH  10  12
ENDBRANCH   5   9
BRANCH   1  17
HETATM   17  C5  UNL     1      29.328   7.179  47.302  1.00  0.00     0.202 C 
BRANCH  17  18
HETATM   18  N1  UNL     1      30.097   7.855  48.355  1.00  0.00    -0.381 N 
HETATM   19  C4  UNL     1      29.426   8.911  49.118  1.00  0.00     0.150 C 
BRANCH  18  20
HETATM   20  C3  UNL     1      31.420   7.517  48.632  1.00  0.00     0.137 C 
BRANCH  20  21
HETATM   21  C2  UNL     1      31.999   6.516  47.998  1.00  0.00    -0.138 C 
HETATM   22  C1  UNL     1      32.702   5.467  47.594  1.00  0.00     0.098 C 
ENDBRANCH  20  21
ENDBRANCH  18  20
ENDBRANCH  17  18
ENDBRANCH   1  17
TORSDOF 8
ENDMDL
