MODEL 1
REMARK VINA RESULT:      -8.5      0.000      0.000
REMARK  4 active torsions:
REMARK  status: ('A' for Active; 'I' for Inactive)
REMARK    1  A    between atoms: O1_2  and  C2_3 
REMARK    2  A    between atoms: C5_6  and  C6_7 
REMARK    3  A    between atoms: C6_7  and  N1_8 
REMARK    4  A    between atoms: N1_8  and  C7_9 
ROOT
HETATM    1  C7  UNL     1      27.180   1.743  52.903  1.00  0.00     0.045 A 
HETATM    2  C8  UNL     1      28.466   1.688  53.391  1.00  0.00     0.049 A 
HETATM    3  C9  UNL     1      28.897   0.811  54.362  1.00  0.00     0.122 A 
HETATM    4  N2  UNL     1      28.001  -0.054  54.871  1.00  0.00    -0.236 NA
HETATM    5  C10 UNL     1      26.737  -0.033  54.422  1.00  0.00     0.183 A 
HETATM    6  O2  UNL     1      25.712  -0.763  54.759  1.00  0.00    -0.291 OA
HETATM    7  C11 UNL     1      24.625  -0.455  54.101  1.00  0.00     0.085 A 
HETATM    8  C12 UNL     1      24.974   0.572  53.254  1.00  0.00     0.011 A 
HETATM    9  C13 UNL     1      26.307   0.839  53.456  1.00  0.00     0.056 A 
HETATM   10  C14 UNL     1      23.926   0.947  52.547  1.00  0.00    -0.008 A 
HETATM   11  C15 UNL     1      22.748   0.122  52.921  1.00  0.00     0.058 A 
HETATM   12  C16 UNL     1      23.346  -0.761  53.955  1.00  0.00     0.015 A 
ENDROOT
BRANCH   1  13
HETATM   13  N1  UNL     1      26.849   2.664  51.911  1.00  0.00    -0.385 N 
HETATM   14  H8  UNL     1      26.843   3.627  52.249  1.00  0.00     0.160 HD
BRANCH  13  15
HETATM   15  C6  UNL     1      26.508   2.637  50.507  1.00  0.00     0.158 C 
BRANCH  15  16
HETATM   16  C5  UNL     1      26.273   3.982  49.921  1.00  0.00    -0.040 A 
HETATM   17  C4  UNL     1      27.320   4.394  49.086  1.00  0.00     0.011 A 
HETATM   18  C3  UNL     1      27.357   5.603  48.430  1.00  0.00     0.037 A 
HETATM   19  C2  UNL     1      26.317   6.492  48.579  1.00  0.00     0.068 A 
HETATM   20  C18 UNL     1      25.288   6.094  49.398  1.00  0.00     0.037 A 
HETATM   21  C17 UNL     1      25.246   4.888  50.054  1.00  0.00     0.011 A 
BRANCH  19  22
HETATM   22  O1  UNL     1      26.204   7.728  47.998  1.00  0.00    -0.356 OA
HETATM   23  C1  UNL     1      27.022   8.192  46.953  1.00  0.00     0.210 C 
ENDBRANCH  19  22
ENDBRANCH  15  16
ENDBRANCH  13  15
ENDBRANCH   1  13
TORSDOF 4
ENDMDL
MODEL 2
REMARK VINA RESULT:      -8.4      3.886      6.316
REMARK  4 active torsions:
REMARK  status: ('A' for Active; 'I' for Inactive)
REMARK    1  A    between atoms: O1_2  and  C2_3 
REMARK    2  A    between atoms: C5_6  and  C6_7 
REMARK    3  A    between atoms: C6_7  and  N1_8 
REMARK    4  A    between atoms: N1_8  and  C7_9 
ROOT
HETATM    1  C7  UNL     1      22.418   2.606  51.688  1.00  0.00     0.045 A 
HETATM    2  C8  UNL     1      21.614   3.593  51.164  1.00  0.00     0.049 A 
HETATM    3  C9  UNL     1      20.286   3.772  51.485  1.00  0.00     0.122 A 
HETATM    4  N2  UNL     1      19.733   2.924  52.370  1.00  0.00    -0.236 NA
HETATM    5  C10 UNL     1      20.483   1.947  52.905  1.00  0.00     0.183 A 
HETATM    6  O2  UNL     1      20.172   1.024  53.769  1.00  0.00    -0.291 OA
HETATM    7  C11 UNL     1      21.174   0.236  54.061  1.00  0.00     0.085 A 
HETATM    8  C12 UNL     1      22.239   0.689  53.317  1.00  0.00     0.011 A 
HETATM    9  C13 UNL     1      21.804   1.769  52.588  1.00  0.00     0.056 A 
HETATM   10  C14 UNL     1      23.300  -0.056  53.553  1.00  0.00    -0.008 A 
HETATM   11  C15 UNL     1      22.960  -1.116  54.538  1.00  0.00     0.058 A 
HETATM   12  C16 UNL     1      21.528  -0.809  54.790  1.00  0.00     0.015 A 
ENDROOT
BRANCH   1  13
HETATM   13  N1  UNL     1      23.754   2.519  51.304  1.00  0.00    -0.385 N 
HETATM   14  H8  UNL     1      23.896   1.913  50.495  1.00  0.00     0.160 HD
BRANCH  13  15
HETATM   15  C6  UNL     1      25.022   3.058  51.739  1.00  0.00     0.158 C 
BRANCH  15  16
HETATM   16  C5  UNL     1      25.888   2.070  52.433  1.00  0.00    -0.040 A 
HETATM   17  C4  UNL     1      26.138   0.933  51.653  1.00  0.00     0.011 A 
HETATM   18  C3  UNL     1      26.899  -0.136  52.066  1.00  0.00     0.037 A 
HETATM   19  C2  UNL     1      27.469  -0.126  53.319  1.00  0.00     0.068 A 
HETATM   20  C18 UNL     1      27.226   0.986  54.088  1.00  0.00     0.037 A 
HETATM   21  C17 UNL     1      26.467   2.056  53.681  1.00  0.00     0.011 A 
BRANCH  19  22
HETATM   22  O1  UNL     1      28.248  -1.107  53.874  1.00  0.00    -0.356 OA
HETATM   23  C1  UNL     1      29.648  -1.168  53.760  1.00  0.00     0.210 C 
ENDBRANCH  19  22
ENDBRANCH  15  16
ENDBRANCH  13  15
ENDBRANCH   1  13
TORSDOF 4
ENDMDL
MODEL 3
REMARK VINA RESULT:      -8.2      2.968      3.764
REMARK  4 active torsions:
REMARK  status: ('A' for Active; 'I' for Inactive)
REMARK    1  A    between atoms: O1_2  and  C2_3 
REMARK    2  A    between atoms: C5_6  and  C6_7 
REMARK    3  A    between atoms: C6_7  and  N1_8 
REMARK    4  A    between atoms: N1_8  and  C7_9 
ROOT
HETATM    1  C7  UNL     1      26.835   0.793  52.771  1.00  0.00     0.045 A 
HETATM    2  C8  UNL     1      28.151   0.926  53.150  1.00  0.00     0.049 A 
HETATM    3  C9  UNL     1      28.672   0.467  54.340  1.00  0.00     0.122 A 
HETATM    4  N2  UNL     1      27.838  -0.156  55.193  1.00  0.00    -0.236 NA
HETATM    5  C10 UNL     1      26.547  -0.306  54.861  1.00  0.00     0.183 A 
HETATM    6  O2  UNL     1      25.569  -0.866  55.513  1.00  0.00    -0.291 OA
HETATM    7  C11 UNL     1      24.432  -0.825  54.869  1.00  0.00     0.085 A 
HETATM    8  C12 UNL     1      24.694  -0.177  53.683  1.00  0.00     0.011 A 
HETATM    9  C13 UNL     1      26.028   0.150  53.677  1.00  0.00     0.056 A 
HETATM   10  C14 UNL     1      23.591  -0.092  52.966  1.00  0.00    -0.008 A 
HETATM   11  C15 UNL     1      22.465  -0.728  53.699  1.00  0.00     0.058 A 
HETATM   12  C16 UNL     1      23.157  -1.169  54.938  1.00  0.00     0.015 A 
ENDROOT
BRANCH   1  13
HETATM   13  N1  UNL     1      26.412   1.285  51.538  1.00  0.00    -0.385 N 
HETATM   14  H8  UNL     1      26.375   0.566  50.815  1.00  0.00     0.160 HD
BRANCH  13  15
HETATM   15  C6  UNL     1      26.000   2.555  50.985  1.00  0.00     0.158 C 
BRANCH  15  16
HETATM   16  C5  UNL     1      24.544   2.823  51.118  1.00  0.00    -0.040 A 
HETATM   17  C4  UNL     1      24.238   3.563  52.267  1.00  0.00     0.011 A 
HETATM   18  C3  UNL     1      22.963   3.934  52.632  1.00  0.00     0.037 A 
HETATM   19  C2  UNL     1      21.895   3.573  51.842  1.00  0.00     0.068 A 
HETATM   20  C18 UNL     1      22.190   2.847  50.715  1.00  0.00     0.037 A 
HETATM   21  C17 UNL     1      23.460   2.474  50.346  1.00  0.00     0.011 A 
BRANCH  19  22
HETATM   22  O1  UNL     1      20.575   3.864  52.066  1.00  0.00    -0.356 OA
HETATM   23  C1  UNL     1      19.501   3.229  51.417  1.00  0.00     0.210 C 
ENDBRANCH  19  22
ENDBRANCH  15  16
ENDBRANCH  13  15
ENDBRANCH   1  13
TORSDOF 4
ENDMDL
MODEL 4
REMARK VINA RESULT:      -8.2      1.406      3.195
REMARK  4 active torsions:
REMARK  status: ('A' for Active; 'I' for Inactive)
REMARK    1  A    between atoms: O1_2  and  C2_3 
REMARK    2  A    between atoms: C5_6  and  C6_7 
REMARK    3  A    between atoms: C6_7  and  N1_8 
REMARK    4  A    between atoms: N1_8  and  C7_9 
ROOT
HETATM    1  C7  UNL     1      24.627   1.398  52.557  1.00  0.00     0.045 A 
HETATM    2  C8  UNL     1      23.415   0.748  52.627  1.00  0.00     0.049 A 
HETATM    3  C9  UNL     1      23.157  -0.339  53.433  1.00  0.00     0.122 A 
HETATM    4  N2  UNL     1      24.156  -0.800  54.207  1.00  0.00    -0.236 NA
HETATM    5  C10 UNL     1      25.353  -0.194  54.169  1.00  0.00     0.183 A 
HETATM    6  O2  UNL     1      26.450  -0.456  54.819  1.00  0.00    -0.291 OA
HETATM    7  C11 UNL     1      27.429   0.358  54.522  1.00  0.00     0.085 A 
HETATM    8  C12 UNL     1      26.921   1.235  53.591  1.00  0.00     0.011 A 
HETATM    9  C13 UNL     1      25.611   0.888  53.369  1.00  0.00     0.056 A 
HETATM   10  C14 UNL     1      27.851   2.098  53.234  1.00  0.00    -0.008 A 
HETATM   11  C15 UNL     1      29.112   1.810  53.967  1.00  0.00     0.058 A 
HETATM   12  C16 UNL     1      28.695   0.639  54.782  1.00  0.00     0.015 A 
ENDROOT
BRANCH   1  13
HETATM   13  N1  UNL     1      24.781   2.497  51.715  1.00  0.00    -0.385 N 
HETATM   14  H8  UNL     1      25.452   3.179  52.070  1.00  0.00     0.160 HD
BRANCH  13  15
HETATM   15  C6  UNL     1      24.247   2.950  50.451  1.00  0.00     0.158 C 
BRANCH  15  16
HETATM   16  C5  UNL     1      25.069   4.000  49.795  1.00  0.00    -0.040 A 
HETATM   17  C4  UNL     1      26.390   3.588  49.576  1.00  0.00     0.011 A 
HETATM   18  C3  UNL     1      27.359   4.375  48.996  1.00  0.00     0.037 A 
HETATM   19  C2  UNL     1      27.049   5.653  48.592  1.00  0.00     0.068 A 
HETATM   20  C18 UNL     1      25.755   6.062  48.804  1.00  0.00     0.037 A 
HETATM   21  C17 UNL     1      24.784   5.281  49.382  1.00  0.00     0.011 A 
BRANCH  19  22
HETATM   22  O1  UNL     1      27.896   6.555  48.002  1.00  0.00    -0.356 OA
HETATM   23  C1  UNL     1      29.289   6.394  47.910  1.00  0.00     0.210 C 
ENDBRANCH  19  22
ENDBRANCH  15  16
ENDBRANCH  13  15
ENDBRANCH   1  13
TORSDOF 4
ENDMDL
MODEL 5
REMARK VINA RESULT:      -8.1      2.345      4.229
REMARK  4 active torsions:
REMARK  status: ('A' for Active; 'I' for Inactive)
REMARK    1  A    between atoms: O1_2  and  C2_3 
REMARK    2  A    between atoms: C5_6  and  C6_7 
REMARK    3  A    between atoms: C6_7  and  N1_8 
REMARK    4  A    between atoms: N1_8  and  C7_9 
ROOT
HETATM    1  C7  UNL     1      22.364  -0.241  52.927  1.00  0.00     0.045 A 
HETATM    2  C8  UNL     1      21.334  -0.794  53.654  1.00  0.00     0.049 A 
HETATM    3  C9  UNL     1      21.488  -1.449  54.856  1.00  0.00     0.122 A 
HETATM    4  N2  UNL     1      22.732  -1.557  55.358  1.00  0.00    -0.236 NA
HETATM    5  C10 UNL     1      23.764  -1.031  54.680  1.00  0.00     0.183 A 
HETATM    6  O2  UNL     1      25.035  -1.011  54.964  1.00  0.00    -0.291 OA
HETATM    7  C11 UNL     1      25.753  -0.401  54.058  1.00  0.00     0.085 A 
HETATM    8  C12 UNL     1      24.867   0.018  53.093  1.00  0.00     0.011 A 
HETATM    9  C13 UNL     1      23.611  -0.379  53.485  1.00  0.00     0.056 A 
HETATM   10  C14 UNL     1      25.514   0.648  52.133  1.00  0.00    -0.008 A 
HETATM   11  C15 UNL     1      26.967   0.678  52.443  1.00  0.00     0.058 A 
HETATM   12  C16 UNL     1      26.988  -0.048  53.739  1.00  0.00     0.015 A 
ENDROOT
BRANCH   1  13
HETATM   13  N1  UNL     1      22.097   0.410  51.725  1.00  0.00    -0.385 N 
HETATM   14  H8  UNL     1      22.267  -0.179  50.909  1.00  0.00     0.160 HD
BRANCH  13  15
HETATM   15  C6  UNL     1      21.637   1.712  51.301  1.00  0.00     0.158 C 
BRANCH  15  16
HETATM   16  C5  UNL     1      22.724   2.607  50.826  1.00  0.00    -0.040 A 
HETATM   17  C4  UNL     1      23.071   3.580  51.773  1.00  0.00     0.011 A 
HETATM   18  C3  UNL     1      24.038   4.539  51.578  1.00  0.00     0.037 A 
HETATM   19  C2  UNL     1      24.732   4.578  50.390  1.00  0.00     0.068 A 
HETATM   20  C18 UNL     1      24.395   3.627  49.458  1.00  0.00     0.037 A 
HETATM   21  C17 UNL     1      23.431   2.667  49.647  1.00  0.00     0.011 A 
BRANCH  19  22
HETATM   22  O1  UNL     1      25.718   5.464  50.044  1.00  0.00    -0.356 OA
HETATM   23  C1  UNL     1      26.582   5.303  48.947  1.00  0.00     0.210 C 
ENDBRANCH  19  22
ENDBRANCH  15  16
ENDBRANCH  13  15
ENDBRANCH   1  13
TORSDOF 4
ENDMDL
MODEL 6
REMARK VINA RESULT:      -8.0      2.117      7.429
REMARK  4 active torsions:
REMARK  status: ('A' for Active; 'I' for Inactive)
REMARK    1  A    between atoms: O1_2  and  C2_3 
REMARK    2  A    between atoms: C5_6  and  C6_7 
REMARK    3  A    between atoms: C6_7  and  N1_8 
REMARK    4  A    between atoms: N1_8  and  C7_9 
ROOT
HETATM    1  C7  UNL     1      23.580   3.871  50.875  1.00  0.00     0.045 A 
HETATM    2  C8  UNL     1      22.393   4.341  51.389  1.00  0.00     0.049 A 
HETATM    3  C9  UNL     1      21.995   5.660  51.359  1.00  0.00     0.122 A 
HETATM    4  N2  UNL     1      22.822   6.553  50.787  1.00  0.00    -0.236 NA
HETATM    5  C10 UNL     1      23.990   6.135  50.273  1.00  0.00     0.183 A 
HETATM    6  O2  UNL     1      24.936   6.805  49.678  1.00  0.00    -0.291 OA
HETATM    7  C11 UNL     1      25.939   6.054  49.305  1.00  0.00     0.085 A 
HETATM    8  C12 UNL     1      25.616   4.773  49.692  1.00  0.00     0.011 A 
HETATM    9  C13 UNL     1      24.386   4.824  50.302  1.00  0.00     0.056 A 
HETATM   10  C14 UNL     1      26.583   3.945  49.351  1.00  0.00    -0.008 A 
HETATM   11  C15 UNL     1      27.671   4.696  48.672  1.00  0.00     0.058 A 
HETATM   12  C16 UNL     1      27.119   6.075  48.708  1.00  0.00     0.015 A 
ENDROOT
BRANCH   1  13
HETATM   13  N1  UNL     1      23.883   2.513  50.948  1.00  0.00    -0.385 N 
HETATM   14  H8  UNL     1      24.577   2.223  50.258  1.00  0.00     0.160 HD
BRANCH  13  15
HETATM   15  C6  UNL     1      23.482   1.376  51.746  1.00  0.00     0.158 C 
BRANCH  15  16
HETATM   16  C5  UNL     1      24.601   0.744  52.492  1.00  0.00    -0.040 A 
HETATM   17  C4  UNL     1      25.856   1.104  51.985  1.00  0.00     0.011 A 
HETATM   18  C3  UNL     1      27.054   0.647  52.487  1.00  0.00     0.037 A 
HETATM   19  C2  UNL     1      27.059  -0.221  53.555  1.00  0.00     0.068 A 
HETATM   20  C18 UNL     1      25.831  -0.578  54.055  1.00  0.00     0.037 A 
HETATM   21  C17 UNL     1      24.633  -0.125  53.559  1.00  0.00     0.011 A 
BRANCH  19  22
HETATM   22  O1  UNL     1      28.160  -0.763  54.166  1.00  0.00    -0.356 OA
HETATM   23  C1  UNL     1      29.409  -0.935  53.545  1.00  0.00     0.210 C 
ENDBRANCH  19  22
ENDBRANCH  15  16
ENDBRANCH  13  15
ENDBRANCH   1  13
TORSDOF 4
ENDMDL
MODEL 7
REMARK VINA RESULT:      -7.5      2.226      3.883
REMARK  4 active torsions:
REMARK  status: ('A' for Active; 'I' for Inactive)
REMARK    1  A    between atoms: O1_2  and  C2_3 
REMARK    2  A    between atoms: C5_6  and  C6_7 
REMARK    3  A    between atoms: C6_7  and  N1_8 
REMARK    4  A    between atoms: N1_8  and  C7_9 
ROOT
HETATM    1  C7  UNL     1      25.009   1.894  52.448  1.00  0.00     0.045 A 
HETATM    2  C8  UNL     1      23.726   1.415  52.317  1.00  0.00     0.049 A 
HETATM    3  C9  UNL     1      23.248   0.278  52.931  1.00  0.00     0.122 A 
HETATM    4  N2  UNL     1      24.093  -0.415  53.715  1.00  0.00    -0.236 NA
HETATM    5  C10 UNL     1      25.354   0.018  53.870  1.00  0.00     0.183 A 
HETATM    6  O2  UNL     1      26.335  -0.479  54.568  1.00  0.00    -0.291 OA
HETATM    7  C11 UNL     1      27.435   0.224  54.479  1.00  0.00     0.085 A 
HETATM    8  C12 UNL     1      27.143   1.278  53.644  1.00  0.00     0.011 A 
HETATM    9  C13 UNL     1      25.830   1.149  53.260  1.00  0.00     0.056 A 
HETATM   10  C14 UNL     1      28.206   2.043  53.499  1.00  0.00    -0.008 A 
HETATM   11  C15 UNL     1      29.335   1.488  54.291  1.00  0.00     0.058 A 
HETATM   12  C16 UNL     1      28.691   0.289  54.887  1.00  0.00     0.015 A 
ENDROOT
BRANCH   1  13
HETATM   13  N1  UNL     1      25.389   3.062  51.791  1.00  0.00    -0.385 N 
HETATM   14  H8  UNL     1      25.268   3.897  52.365  1.00  0.00     0.160 HD
BRANCH  13  15
HETATM   15  C6  UNL     1      25.918   3.430  50.498  1.00  0.00     0.158 C 
BRANCH  15  16
HETATM   16  C5  UNL     1      24.938   4.126  49.625  1.00  0.00    -0.040 A 
HETATM   17  C4  UNL     1      23.892   3.288  49.216  1.00  0.00     0.011 A 
HETATM   18  C3  UNL     1      22.861   3.682  48.394  1.00  0.00     0.037 A 
HETATM   19  C2  UNL     1      22.819   4.975  47.923  1.00  0.00     0.068 A 
HETATM   20  C18 UNL     1      23.842   5.800  48.320  1.00  0.00     0.037 A 
HETATM   21  C17 UNL     1      24.873   5.413  49.140  1.00  0.00     0.011 A 
BRANCH  19  22
HETATM   22  O1  UNL     1      21.865   5.518  47.102  1.00  0.00    -0.356 OA
HETATM   23  C1  UNL     1      20.480   5.358  47.279  1.00  0.00     0.210 C 
ENDBRANCH  19  22
ENDBRANCH  15  16
ENDBRANCH  13  15
ENDBRANCH   1  13
TORSDOF 4
ENDMDL
MODEL 8
REMARK VINA RESULT:      -7.5      3.609      5.143
REMARK  4 active torsions:
REMARK  status: ('A' for Active; 'I' for Inactive)
REMARK    1  A    between atoms: O1_2  and  C2_3 
REMARK    2  A    between atoms: C5_6  and  C6_7 
REMARK    3  A    between atoms: C6_7  and  N1_8 
REMARK    4  A    between atoms: N1_8  and  C7_9 
ROOT
HETATM    1  C7  UNL     1      24.968   1.386  52.021  1.00  0.00     0.045 A 
HETATM    2  C8  UNL     1      26.296   1.078  51.827  1.00  0.00     0.049 A 
HETATM    3  C9  UNL     1      26.944   0.010  52.409  1.00  0.00     0.122 A 
HETATM    4  N2  UNL     1      26.232  -0.788  53.225  1.00  0.00    -0.236 NA
HETATM    5  C10 UNL     1      24.934  -0.522  53.441  1.00  0.00     0.183 A 
HETATM    6  O2  UNL     1      24.058  -1.143  54.177  1.00  0.00    -0.291 OA
HETATM    7  C11 UNL     1      22.875  -0.589  54.144  1.00  0.00     0.085 A 
HETATM    8  C12 UNL     1      22.990   0.497  53.306  1.00  0.00     0.011 A 
HETATM    9  C13 UNL     1      24.289   0.539  52.862  1.00  0.00     0.056 A 
HETATM   10  C14 UNL     1      21.830   1.118  53.216  1.00  0.00    -0.008 A 
HETATM   11  C15 UNL     1      20.820   0.419  54.052  1.00  0.00     0.058 A 
HETATM   12  C16 UNL     1      21.640  -0.687  54.609  1.00  0.00     0.015 A 
ENDROOT
BRANCH   1  13
HETATM   13  N1  UNL     1      24.406   2.485  51.374  1.00  0.00    -0.385 N 
HETATM   14  H8  UNL     1      24.388   3.322  51.958  1.00  0.00     0.160 HD
BRANCH  13  15
HETATM   15  C6  UNL     1      23.832   2.778  50.081  1.00  0.00     0.158 C 
BRANCH  15  16
HETATM   16  C5  UNL     1      22.357   2.609  50.028  1.00  0.00    -0.040 A 
HETATM   17  C4  UNL     1      21.978   1.338  49.576  1.00  0.00     0.011 A 
HETATM   18  C3  UNL     1      20.673   0.928  49.423  1.00  0.00     0.037 A 
HETATM   19  C2  UNL     1      19.646   1.794  49.723  1.00  0.00     0.068 A 
HETATM   20  C18 UNL     1      20.012   3.042  50.166  1.00  0.00     0.037 A 
HETATM   21  C17 UNL     1      21.312   3.456  50.320  1.00  0.00     0.011 A 
BRANCH  19  22
HETATM   22  O1  UNL     1      18.303   1.539  49.625  1.00  0.00    -0.356 OA
HETATM   23  C1  UNL     1      17.676   0.383  50.119  1.00  0.00     0.210 C 
ENDBRANCH  19  22
ENDBRANCH  15  16
ENDBRANCH  13  15
ENDBRANCH   1  13
TORSDOF 4
ENDMDL
MODEL 9
REMARK VINA RESULT:      -7.3      2.542      3.163
REMARK  4 active torsions:
REMARK  status: ('A' for Active; 'I' for Inactive)
REMARK    1  A    between atoms: O1_2  and  C2_3 
REMARK    2  A    between atoms: C5_6  and  C6_7 
REMARK    3  A    between atoms: C6_7  and  N1_8 
REMARK    4  A    between atoms: N1_8  and  C7_9 
ROOT
HETATM    1  C7  UNL     1      25.780   1.792  52.149  1.00  0.00     0.045 A 
HETATM    2  C8  UNL     1      26.978   1.123  52.260  1.00  0.00     0.049 A 
HETATM    3  C9  UNL     1      27.116  -0.156  52.753  1.00  0.00     0.122 A 
HETATM    4  N2  UNL     1      26.005  -0.799  53.155  1.00  0.00    -0.236 NA
HETATM    5  C10 UNL     1      24.817  -0.182  53.064  1.00  0.00     0.183 A 
HETATM    6  O2  UNL     1      23.625  -0.597  53.385  1.00  0.00    -0.291 OA
HETATM    7  C11 UNL     1      22.693   0.289  53.152  1.00  0.00     0.085 A 
HETATM    8  C12 UNL     1      23.338   1.387  52.630  1.00  0.00     0.011 A 
HETATM    9  C13 UNL     1      24.678   1.090  52.573  1.00  0.00     0.056 A 
HETATM   10  C14 UNL     1      22.463   2.337  52.364  1.00  0.00    -0.008 A 
HETATM   11  C15 UNL     1      21.097   1.876  52.726  1.00  0.00     0.058 A 
HETATM   12  C16 UNL     1      21.392   0.511  53.234  1.00  0.00     0.015 A 
ENDROOT
BRANCH   1  13
HETATM   13  N1  UNL     1      25.749   3.083  51.626  1.00  0.00    -0.385 N 
HETATM   14  H8  UNL     1      25.516   3.789  52.325  1.00  0.00     0.160 HD
BRANCH  13  15
HETATM   15  C6  UNL     1      25.959   3.715  50.344  1.00  0.00     0.158 C 
BRANCH  15  16
HETATM   16  C5  UNL     1      24.731   3.810  49.514  1.00  0.00    -0.040 A 
HETATM   17  C4  UNL     1      24.511   5.105  49.026  1.00  0.00     0.011 A 
HETATM   18  C3  UNL     1      23.439   5.465  48.242  1.00  0.00     0.037 A 
HETATM   19  C2  UNL     1      22.501   4.521  47.893  1.00  0.00     0.068 A 
HETATM   20  C18 UNL     1      22.711   3.250  48.369  1.00  0.00     0.037 A 
HETATM   21  C17 UNL     1      23.779   2.885  49.152  1.00  0.00     0.011 A 
BRANCH  19  22
HETATM   22  O1  UNL     1      21.384   4.718  47.124  1.00  0.00    -0.356 OA
HETATM   23  C1  UNL     1      21.008   3.900  46.045  1.00  0.00     0.210 C 
ENDBRANCH  19  22
ENDBRANCH  15  16
ENDBRANCH  13  15
ENDBRANCH   1  13
TORSDOF 4
ENDMDL
