MODEL 1
REMARK VINA RESULT:      -6.8      0.000      0.000
REMARK  7 active torsions:
REMARK  status: ('A' for Active; 'I' for Inactive)
REMARK    1  A    between atoms: C2_2  and  C3_3 
REMARK    2  A    between atoms: C2_2  and  C6_10 
REMARK       I    between atoms: C3_3  and  N1_5 
REMARK    3  A    between atoms: N1_5  and  C4_6 
REMARK    4  A    between atoms: C4_6  and  C5_7 
REMARK    5  A    between atoms: C5_7  and  N2_8 
REMARK    6  A    between atoms: C6_10  and  N3_11 
REMARK    7  A    between atoms: C6_10  and  C7_12 
ROOT
HETATM    1  C6  UNL     1      24.645   3.233  51.769  1.00  0.00     0.262 C 
ENDROOT
BRANCH   1   2
HETATM    2  C2  UNL     1      25.441   1.991  51.972  1.00  0.00     0.109 C 
HETATM    3  C1  UNL     1      24.628   0.742  52.188  1.00  0.00     0.022 C 
BRANCH   2   4
HETATM    4  C3  UNL     1      26.437   2.108  53.061  1.00  0.00     0.223 C 
HETATM    5  O1  UNL     1      25.995   2.414  54.200  1.00  0.00    -0.273 OA
HETATM    6  N1  UNL     1      27.818   1.876  52.779  1.00  0.00    -0.359 N 
HETATM    7  H5  UNL     1      28.069   1.628  51.797  1.00  0.00     0.162 HD
BRANCH   6   8
HETATM    8  C4  UNL     1      28.815   1.979  53.801  1.00  0.00     0.146 C 
BRANCH   8   9
HETATM    9  C5  UNL     1      29.388   0.629  54.189  1.00  0.00     0.202 C 
BRANCH   9  10
HETATM   10  N2  UNL     1      28.427  -0.150  54.916  1.00  0.00    -0.139 NA
HETATM   11  O2  UNL     1      27.686  -0.861  54.287  1.00  0.00    -0.067 OA
ENDBRANCH   9  10
ENDBRANCH   8   9
ENDBRANCH   6   8
ENDBRANCH   2   4
ENDBRANCH   1   2
BRANCH   1  12
HETATM   12  N3  UNL     1      23.286   2.957  52.210  1.00  0.00     0.086 N 
HETATM   13  H11 UNL     1      22.787   3.826  52.505  1.00  0.00     0.313 HD
HETATM   14  H12 UNL     1      23.242   2.186  52.896  1.00  0.00     0.313 HD
ENDBRANCH   1  12
BRANCH   1  15
HETATM   15  C7  UNL     1      24.686   3.796  50.376  1.00  0.00     0.086 A 
HETATM   16  C8  UNL     1      23.411   3.392  49.603  1.00  0.00     0.046 C 
HETATM   17  C9  UNL     1      25.861   3.346  49.624  1.00  0.00     0.009 A 
HETATM   18  C10 UNL     1      26.528   4.429  49.242  1.00  0.00     0.028 A 
HETATM   19  C11 UNL     1      25.865   5.642  49.701  1.00  0.00     0.038 A 
HETATM   20  C12 UNL     1      26.040   7.008  49.639  1.00  0.00     0.030 A 
HETATM   21  N4  UNL     1      24.770   5.247  50.375  1.00  0.00    -0.299 N 
HETATM   22  C13 UNL     1      25.177   7.916  50.214  1.00  0.00     0.008 A 
HETATM   23  C14 UNL     1      24.073   7.435  50.890  1.00  0.00     0.074 A 
HETATM   24  C15 UNL     1      23.893   6.083  50.956  1.00  0.00     0.249 A 
HETATM   25  O3  UNL     1      22.871   5.707  51.585  1.00  0.00    -0.268 OA
ENDBRANCH   1  15
TORSDOF 7
ENDMDL
MODEL 2
REMARK VINA RESULT:      -6.6      2.924      4.159
REMARK  7 active torsions:
REMARK  status: ('A' for Active; 'I' for Inactive)
REMARK    1  A    between atoms: C2_2  and  C3_3 
REMARK    2  A    between atoms: C2_2  and  C6_10 
REMARK       I    between atoms: C3_3  and  N1_5 
REMARK    3  A    between atoms: N1_5  and  C4_6 
REMARK    4  A    between atoms: C4_6  and  C5_7 
REMARK    5  A    between atoms: C5_7  and  N2_8 
REMARK    6  A    between atoms: C6_10  and  N3_11 
REMARK    7  A    between atoms: C6_10  and  C7_12 
ROOT
HETATM    1  C6  UNL     1      25.012   1.924  51.852  1.00  0.00     0.262 C 
ENDROOT
BRANCH   1   2
HETATM    2  C2  UNL     1      25.520   1.065  52.958  1.00  0.00     0.109 C 
HETATM    3  C1  UNL     1      26.148   1.810  54.107  1.00  0.00     0.022 C 
BRANCH   2   4
HETATM    4  C3  UNL     1      26.460   0.016  52.497  1.00  0.00     0.223 C 
HETATM    5  O1  UNL     1      26.773   0.036  51.277  1.00  0.00    -0.273 OA
HETATM    6  N1  UNL     1      26.955  -0.944  53.431  1.00  0.00    -0.359 N 
HETATM    7  H5  UNL     1      26.626  -0.863  54.418  1.00  0.00     0.162 HD
BRANCH   6   8
HETATM    8  C4  UNL     1      27.864  -1.974  53.029  1.00  0.00     0.146 C 
BRANCH   8   9
HETATM    9  C5  UNL     1      29.304  -1.639  53.366  1.00  0.00     0.202 C 
BRANCH   9  10
HETATM   10  N2  UNL     1      29.379  -0.508  54.245  1.00  0.00    -0.139 NA
HETATM   11  O2  UNL     1      29.621   0.568  53.760  1.00  0.00    -0.067 OA
ENDBRANCH   9  10
ENDBRANCH   8   9
ENDBRANCH   6   8
ENDBRANCH   2   4
ENDBRANCH   1   2
BRANCH   1  12
HETATM   12  N3  UNL     1      25.771   3.165  51.881  1.00  0.00     0.086 N 
HETATM   13  H11 UNL     1      25.212   3.973  51.529  1.00  0.00     0.313 HD
HETATM   14  H12 UNL     1      26.703   3.069  51.445  1.00  0.00     0.313 HD
ENDBRANCH   1  12
BRANCH   1  15
HETATM   15  C7  UNL     1      23.529   2.166  51.864  1.00  0.00     0.086 A 
HETATM   16  C8  UNL     1      23.228   3.591  52.377  1.00  0.00     0.046 C 
HETATM   17  C9  UNL     1      22.809   1.198  52.697  1.00  0.00     0.009 A 
HETATM   18  C10 UNL     1      21.916   0.592  51.923  1.00  0.00     0.028 A 
HETATM   19  C11 UNL     1      21.978   1.097  50.558  1.00  0.00     0.038 A 
HETATM   20  C12 UNL     1      21.354   0.892  49.346  1.00  0.00     0.030 A 
HETATM   21  N4  UNL     1      22.944   2.034  50.540  1.00  0.00    -0.299 N 
HETATM   22  C13 UNL     1      21.676   1.578  48.194  1.00  0.00     0.008 A 
HETATM   23  C14 UNL     1      22.680   2.525  48.254  1.00  0.00     0.074 A 
HETATM   24  C15 UNL     1      23.302   2.734  49.451  1.00  0.00     0.249 A 
HETATM   25  O3  UNL     1      24.206   3.608  49.441  1.00  0.00    -0.268 OA
ENDBRANCH   1  15
TORSDOF 7
ENDMDL
MODEL 3
REMARK VINA RESULT:      -6.5      2.037      2.607
REMARK  7 active torsions:
REMARK  status: ('A' for Active; 'I' for Inactive)
REMARK    1  A    between atoms: C2_2  and  C3_3 
REMARK    2  A    between atoms: C2_2  and  C6_10 
REMARK       I    between atoms: C3_3  and  N1_5 
REMARK    3  A    between atoms: N1_5  and  C4_6 
REMARK    4  A    between atoms: C4_6  and  C5_7 
REMARK    5  A    between atoms: C5_7  and  N2_8 
REMARK    6  A    between atoms: C6_10  and  N3_11 
REMARK    7  A    between atoms: C6_10  and  C7_12 
ROOT
HETATM    1  C6  UNL     1      24.439   2.846  51.794  1.00  0.00     0.262 C 
ENDROOT
BRANCH   1   2
HETATM    2  C2  UNL     1      24.886   1.436  51.973  1.00  0.00     0.109 C 
HETATM    3  C1  UNL     1      24.200   0.686  53.084  1.00  0.00     0.022 C 
BRANCH   2   4
HETATM    4  C3  UNL     1      26.352   1.307  52.142  1.00  0.00     0.223 C 
HETATM    5  O1  UNL     1      27.070   2.091  51.466  1.00  0.00    -0.273 OA
HETATM    6  N1  UNL     1      26.872   0.325  53.040  1.00  0.00    -0.359 N 
HETATM    7  H5  UNL     1      26.182  -0.270  53.548  1.00  0.00     0.162 HD
BRANCH   6   8
HETATM    8  C4  UNL     1      28.282   0.165  53.235  1.00  0.00     0.146 C 
BRANCH   8   9
HETATM    9  C5  UNL     1      28.693   0.362  54.681  1.00  0.00     0.202 C 
BRANCH   9  10
HETATM   10  N2  UNL     1      29.204   1.686  54.897  1.00  0.00    -0.139 NA
HETATM   11  O2  UNL     1      28.708   2.591  54.276  1.00  0.00    -0.067 OA
ENDBRANCH   9  10
ENDBRANCH   8   9
ENDBRANCH   6   8
ENDBRANCH   2   4
ENDBRANCH   1   2
BRANCH   1  12
HETATM   12  N3  UNL     1      24.488   3.487  53.098  1.00  0.00     0.086 N 
HETATM   13  H11 UNL     1      24.405   4.525  53.026  1.00  0.00     0.313 HD
HETATM   14  H12 UNL     1      25.284   3.161  53.670  1.00  0.00     0.313 HD
ENDBRANCH   1  12
BRANCH   1  15
HETATM   15  C7  UNL     1      23.101   3.009  51.130  1.00  0.00     0.086 A 
HETATM   16  C8  UNL     1      22.041   3.432  52.172  1.00  0.00     0.046 C 
HETATM   17  C9  UNL     1      22.651   1.783  50.465  1.00  0.00     0.009 A 
HETATM   18  C10 UNL     1      22.447   2.077  49.185  1.00  0.00     0.028 A 
HETATM   19  C11 UNL     1      22.741   3.478  48.916  1.00  0.00     0.038 A 
HETATM   20  C12 UNL     1      22.731   4.354  47.852  1.00  0.00     0.030 A 
HETATM   21  N4  UNL     1      23.129   4.018  50.085  1.00  0.00    -0.299 N 
HETATM   22  C13 UNL     1      23.087   5.683  47.953  1.00  0.00     0.008 A 
HETATM   23  C14 UNL     1      23.475   6.166  49.187  1.00  0.00     0.074 A 
HETATM   24  C15 UNL     1      23.487   5.304  50.246  1.00  0.00     0.249 A 
HETATM   25  O3  UNL     1      23.849   5.803  51.342  1.00  0.00    -0.268 OA
ENDBRANCH   1  15
TORSDOF 7
ENDMDL
MODEL 4
REMARK VINA RESULT:      -6.4      2.445      3.885
REMARK  7 active torsions:
REMARK  status: ('A' for Active; 'I' for Inactive)
REMARK    1  A    between atoms: C2_2  and  C3_3 
REMARK    2  A    between atoms: C2_2  and  C6_10 
REMARK       I    between atoms: C3_3  and  N1_5 
REMARK    3  A    between atoms: N1_5  and  C4_6 
REMARK    4  A    between atoms: C4_6  and  C5_7 
REMARK    5  A    between atoms: C5_7  and  N2_8 
REMARK    6  A    between atoms: C6_10  and  N3_11 
REMARK    7  A    between atoms: C6_10  and  C7_12 
ROOT
HETATM    1  C6  UNL     1      22.014   1.188  52.948  1.00  0.00     0.262 C 
ENDROOT
BRANCH   1   2
HETATM    2  C2  UNL     1      22.932   0.045  52.683  1.00  0.00     0.109 C 
HETATM    3  C1  UNL     1      22.496  -1.271  53.270  1.00  0.00     0.022 C 
BRANCH   2   4
HETATM    4  C3  UNL     1      24.330   0.313  53.095  1.00  0.00     0.223 C 
HETATM    5  O1  UNL     1      25.077  -0.690  53.243  1.00  0.00    -0.273 OA
HETATM    6  N1  UNL     1      24.756   1.661  53.299  1.00  0.00    -0.359 N 
HETATM    7  H5  UNL     1      24.049   2.414  53.147  1.00  0.00     0.162 HD
BRANCH   6   8
HETATM    8  C4  UNL     1      26.097   1.967  53.697  1.00  0.00     0.146 C 
BRANCH   8   9
HETATM    9  C5  UNL     1      27.039   2.085  52.515  1.00  0.00     0.202 C 
BRANCH   9  10
HETATM   10  N2  UNL     1      28.380   2.359  52.948  1.00  0.00    -0.139 NA
HETATM   11  O2  UNL     1      28.545   2.693  54.093  1.00  0.00    -0.067 OA
ENDBRANCH   9  10
ENDBRANCH   8   9
ENDBRANCH   6   8
ENDBRANCH   2   4
ENDBRANCH   1   2
BRANCH   1  12
HETATM   12  N3  UNL     1      21.059   0.755  53.956  1.00  0.00     0.086 N 
HETATM   13  H11 UNL     1      21.026  -0.285  54.041  1.00  0.00     0.313 HD
HETATM   14  H12 UNL     1      20.136   1.205  53.845  1.00  0.00     0.313 HD
ENDBRANCH   1  12
BRANCH   1  15
HETATM   15  C7  UNL     1      21.338   1.756  51.732  1.00  0.00     0.086 A 
HETATM   16  C8  UNL     1      20.174   2.680  52.155  1.00  0.00     0.046 C 
HETATM   17  C9  UNL     1      20.818   0.714  50.841  1.00  0.00     0.009 A 
HETATM   18  C10 UNL     1      21.379   0.893  49.650  1.00  0.00     0.028 A 
HETATM   19  C11 UNL     1      22.288   2.031  49.664  1.00  0.00     0.038 A 
HETATM   20  C12 UNL     1      23.127   2.699  48.800  1.00  0.00     0.030 A 
HETATM   21  N4  UNL     1      22.251   2.534  50.912  1.00  0.00    -0.299 N 
HETATM   22  C13 UNL     1      23.881   3.796  49.161  1.00  0.00     0.008 A 
HETATM   23  C14 UNL     1      23.791   4.255  50.460  1.00  0.00     0.074 A 
HETATM   24  C15 UNL     1      22.961   3.598  51.322  1.00  0.00     0.249 A 
HETATM   25  O3  UNL     1      22.922   4.063  52.490  1.00  0.00    -0.268 OA
ENDBRANCH   1  15
TORSDOF 7
ENDMDL
MODEL 5
REMARK VINA RESULT:      -6.2      1.451      1.616
REMARK  7 active torsions:
REMARK  status: ('A' for Active; 'I' for Inactive)
REMARK    1  A    between atoms: C2_2  and  C3_3 
REMARK    2  A    between atoms: C2_2  and  C6_10 
REMARK       I    between atoms: C3_3  and  N1_5 
REMARK    3  A    between atoms: N1_5  and  C4_6 
REMARK    4  A    between atoms: C4_6  and  C5_7 
REMARK    5  A    between atoms: C5_7  and  N2_8 
REMARK    6  A    between atoms: C6_10  and  N3_11 
REMARK    7  A    between atoms: C6_10  and  C7_12 
ROOT
HETATM    1  C6  UNL     1      23.169   3.074  51.751  1.00  0.00     0.262 C 
ENDROOT
BRANCH   1   2
HETATM    2  C2  UNL     1      23.771   1.750  52.074  1.00  0.00     0.109 C 
HETATM    3  C1  UNL     1      22.809   0.730  52.624  1.00  0.00     0.022 C 
BRANCH   2   4
HETATM    4  C3  UNL     1      24.938   1.846  52.981  1.00  0.00     0.223 C 
HETATM    5  O1  UNL     1      25.021   2.886  53.686  1.00  0.00    -0.273 OA
HETATM    6  N1  UNL     1      25.890   0.782  53.015  1.00  0.00    -0.359 N 
HETATM    7  H5  UNL     1      25.719  -0.033  52.386  1.00  0.00     0.162 HD
BRANCH   6   8
HETATM    8  C4  UNL     1      27.033   0.833  53.877  1.00  0.00     0.146 C 
BRANCH   8   9
HETATM    9  C5  UNL     1      28.211   1.539  53.235  1.00  0.00     0.202 C 
BRANCH   9  10
HETATM   10  N2  UNL     1      28.743   2.551  54.103  1.00  0.00    -0.139 NA
HETATM   11  O2  UNL     1      29.344   2.194  55.084  1.00  0.00    -0.067 OA
ENDBRANCH   9  10
ENDBRANCH   8   9
ENDBRANCH   6   8
ENDBRANCH   2   4
ENDBRANCH   1   2
BRANCH   1  12
HETATM   12  N3  UNL     1      21.731   2.956  51.937  1.00  0.00     0.086 N 
HETATM   13  H11 UNL     1      21.427   1.960  52.009  1.00  0.00     0.313 HD
HETATM   14  H12 UNL     1      21.197   3.517  51.254  1.00  0.00     0.313 HD
ENDBRANCH   1  12
BRANCH   1  15
HETATM   15  C7  UNL     1      23.523   3.621  50.396  1.00  0.00     0.086 A 
HETATM   16  C8  UNL     1      22.296   3.555  49.461  1.00  0.00     0.046 C 
HETATM   17  C9  UNL     1      24.636   2.898  49.773  1.00  0.00     0.009 A 
HETATM   18  C10 UNL     1      25.592   3.784  49.517  1.00  0.00     0.028 A 
HETATM   19  C11 UNL     1      25.197   5.120  49.942  1.00  0.00     0.038 A 
HETATM   20  C12 UNL     1      25.709   6.399  49.956  1.00  0.00     0.030 A 
HETATM   21  N4  UNL     1      23.961   5.005  50.464  1.00  0.00    -0.299 N 
HETATM   22  C13 UNL     1      25.031   7.489  50.459  1.00  0.00     0.008 A 
HETATM   23  C14 UNL     1      23.767   7.293  50.979  1.00  0.00     0.074 A 
HETATM   24  C15 UNL     1      23.252   6.028  50.968  1.00  0.00     0.249 A 
HETATM   25  O3  UNL     1      22.098   5.913  51.455  1.00  0.00    -0.268 OA
ENDBRANCH   1  15
TORSDOF 7
ENDMDL
MODEL 6
REMARK VINA RESULT:      -6.0      2.981      5.815
REMARK  7 active torsions:
REMARK  status: ('A' for Active; 'I' for Inactive)
REMARK    1  A    between atoms: C2_2  and  C3_3 
REMARK    2  A    between atoms: C2_2  and  C6_10 
REMARK       I    between atoms: C3_3  and  N1_5 
REMARK    3  A    between atoms: N1_5  and  C4_6 
REMARK    4  A    between atoms: C4_6  and  C5_7 
REMARK    5  A    between atoms: C5_7  and  N2_8 
REMARK    6  A    between atoms: C6_10  and  N3_11 
REMARK    7  A    between atoms: C6_10  and  C7_12 
ROOT
HETATM    1  C6  UNL     1      24.210   1.052  52.324  1.00  0.00     0.262 C 
ENDROOT
BRANCH   1   2
HETATM    2  C2  UNL     1      22.859   0.699  52.842  1.00  0.00     0.109 C 
HETATM    3  C1  UNL     1      22.781  -0.617  53.572  1.00  0.00     0.022 C 
BRANCH   2   4
HETATM    4  C3  UNL     1      21.807   0.731  51.799  1.00  0.00     0.223 C 
HETATM    5  O1  UNL     1      22.179   1.024  50.632  1.00  0.00    -0.273 OA
HETATM    6  N1  UNL     1      20.456   0.436  52.155  1.00  0.00    -0.359 N 
HETATM    7  H5  UNL     1      20.264   0.206  53.154  1.00  0.00     0.162 HD
BRANCH   6   8
HETATM    8  C4  UNL     1      19.408   0.456  51.179  1.00  0.00     0.146 C 
BRANCH   8   9
HETATM    9  C5  UNL     1      18.338   1.481  51.500  1.00  0.00     0.202 C 
BRANCH   9  10
HETATM   10  N2  UNL     1      18.859   2.816  51.418  1.00  0.00    -0.139 NA
HETATM   11  O2  UNL     1      19.428   3.260  52.382  1.00  0.00    -0.067 OA
ENDBRANCH   9  10
ENDBRANCH   8   9
ENDBRANCH   6   8
ENDBRANCH   2   4
ENDBRANCH   1   2
BRANCH   1  12
HETATM   12  N3  UNL     1      25.143   0.054  52.823  1.00  0.00     0.086 N 
HETATM   13  H11 UNL     1      25.161  -0.799  52.221  1.00  0.00     0.313 HD
HETATM   14  H12 UNL     1      25.016  -0.137  53.830  1.00  0.00     0.313 HD
ENDBRANCH   1  12
BRANCH   1  15
HETATM   15  C7  UNL     1      24.662   2.453  52.626  1.00  0.00     0.086 A 
HETATM   16  C8  UNL     1      25.771   2.432  53.701  1.00  0.00     0.046 C 
HETATM   17  C9  UNL     1      23.565   3.308  53.090  1.00  0.00     0.009 A 
HETATM   18  C10 UNL     1      23.491   4.345  52.263  1.00  0.00     0.028 A 
HETATM   19  C11 UNL     1      24.502   4.255  51.218  1.00  0.00     0.038 A 
HETATM   20  C12 UNL     1      24.926   4.972  50.120  1.00  0.00     0.030 A 
HETATM   21  N4  UNL     1      25.191   3.122  51.450  1.00  0.00    -0.299 N 
HETATM   22  C13 UNL     1      25.968   4.579  49.307  1.00  0.00     0.008 A 
HETATM   23  C14 UNL     1      26.627   3.403  49.607  1.00  0.00     0.074 A 
HETATM   24  C15 UNL     1      26.214   2.688  50.694  1.00  0.00     0.249 A 
HETATM   25  O3  UNL     1      26.853   1.628  50.915  1.00  0.00    -0.268 OA
ENDBRANCH   1  15
TORSDOF 7
ENDMDL
MODEL 7
REMARK VINA RESULT:      -5.8      8.913     10.929
REMARK  7 active torsions:
REMARK  status: ('A' for Active; 'I' for Inactive)
REMARK    1  A    between atoms: C2_2  and  C3_3 
REMARK    2  A    between atoms: C2_2  and  C6_10 
REMARK       I    between atoms: C3_3  and  N1_5 
REMARK    3  A    between atoms: N1_5  and  C4_6 
REMARK    4  A    between atoms: C4_6  and  C5_7 
REMARK    5  A    between atoms: C5_7  and  N2_8 
REMARK    6  A    between atoms: C6_10  and  N3_11 
REMARK    7  A    between atoms: C6_10  and  C7_12 
ROOT
HETATM    1  C6  UNL     1      34.436   4.721  45.731  1.00  0.00     0.262 C 
ENDROOT
BRANCH   1   2
HETATM    2  C2  UNL     1      33.613   5.069  44.538  1.00  0.00     0.109 C 
HETATM    3  C1  UNL     1      34.121   4.518  43.232  1.00  0.00     0.022 C 
BRANCH   2   4
HETATM    4  C3  UNL     1      33.391   6.526  44.389  1.00  0.00     0.223 C 
HETATM    5  O1  UNL     1      32.429   6.878  43.656  1.00  0.00    -0.273 OA
HETATM    6  N1  UNL     1      34.253   7.442  45.066  1.00  0.00    -0.359 N 
HETATM    7  H5  UNL     1      35.018   7.036  45.648  1.00  0.00     0.162 HD
BRANCH   6   8
HETATM    8  C4  UNL     1      34.074   8.858  44.950  1.00  0.00     0.146 C 
BRANCH   8   9
HETATM    9  C5  UNL     1      33.334   9.447  46.135  1.00  0.00     0.202 C 
BRANCH   9  10
HETATM   10  N2  UNL     1      34.229   9.708  47.226  1.00  0.00    -0.139 NA
HETATM   11  O2  UNL     1      35.389   9.415  47.086  1.00  0.00    -0.067 OA
ENDBRANCH   9  10
ENDBRANCH   8   9
ENDBRANCH   6   8
ENDBRANCH   2   4
ENDBRANCH   1   2
BRANCH   1  12
HETATM   12  N3  UNL     1      35.537   3.889  45.273  1.00  0.00     0.086 N 
HETATM   13  H11 UNL     1      36.036   4.314  44.460  1.00  0.00     0.313 HD
HETATM   14  H12 UNL     1      35.257   2.904  45.134  1.00  0.00     0.313 HD
ENDBRANCH   1  12
BRANCH   1  15
HETATM   15  C7  UNL     1      33.678   4.087  46.864  1.00  0.00     0.086 A 
HETATM   16  C8  UNL     1      34.661   3.410  47.845  1.00  0.00     0.046 C 
HETATM   17  C9  UNL     1      32.706   3.092  46.401  1.00  0.00     0.009 A 
HETATM   18  C10 UNL     1      31.511   3.467  46.845  1.00  0.00     0.028 A 
HETATM   19  C11 UNL     1      31.600   4.704  47.609  1.00  0.00     0.038 A 
HETATM   20  C12 UNL     1      30.768   5.562  48.294  1.00  0.00     0.030 A 
HETATM   21  N4  UNL     1      32.898   5.059  47.611  1.00  0.00    -0.299 N 
HETATM   22  C13 UNL     1      31.206   6.701  48.937  1.00  0.00     0.008 A 
HETATM   23  C14 UNL     1      32.553   7.001  48.894  1.00  0.00     0.074 A 
HETATM   24  C15 UNL     1      33.384   6.155  48.218  1.00  0.00     0.249 A 
HETATM   25  O3  UNL     1      34.598   6.482  48.215  1.00  0.00    -0.268 OA
ENDBRANCH   1  15
TORSDOF 7
ENDMDL
MODEL 8
REMARK VINA RESULT:      -5.8      2.910      5.744
REMARK  7 active torsions:
REMARK  status: ('A' for Active; 'I' for Inactive)
REMARK    1  A    between atoms: C2_2  and  C3_3 
REMARK    2  A    between atoms: C2_2  and  C6_10 
REMARK       I    between atoms: C3_3  and  N1_5 
REMARK    3  A    between atoms: N1_5  and  C4_6 
REMARK    4  A    between atoms: C4_6  and  C5_7 
REMARK    5  A    between atoms: C5_7  and  N2_8 
REMARK    6  A    between atoms: C6_10  and  N3_11 
REMARK    7  A    between atoms: C6_10  and  C7_12 
ROOT
HETATM    1  C6  UNL     1      23.931   1.388  51.964  1.00  0.00     0.262 C 
ENDROOT
BRANCH   1   2
HETATM    2  C2  UNL     1      22.475   1.159  52.185  1.00  0.00     0.109 C 
HETATM    3  C1  UNL     1      22.145   0.071  53.173  1.00  0.00     0.022 C 
BRANCH   2   4
HETATM    4  C3  UNL     1      21.728   0.909  50.930  1.00  0.00     0.223 C 
HETATM    5  O1  UNL     1      20.727   0.150  51.012  1.00  0.00    -0.273 OA
HETATM    6  N1  UNL     1      22.165   1.525  49.718  1.00  0.00    -0.359 N 
HETATM    7  H5  UNL     1      23.009   2.136  49.770  1.00  0.00     0.162 HD
BRANCH   6   8
HETATM    8  C4  UNL     1      21.473   1.311  48.483  1.00  0.00     0.146 C 
BRANCH   8   9
HETATM    9  C5  UNL     1      21.142   2.610  47.773  1.00  0.00     0.202 C 
BRANCH   9  10
HETATM   10  N2  UNL     1      22.209   3.008  46.900  1.00  0.00    -0.139 NA
HETATM   11  O2  UNL     1      21.916   3.521  45.850  1.00  0.00    -0.067 OA
ENDBRANCH   9  10
ENDBRANCH   8   9
ENDBRANCH   6   8
ENDBRANCH   2   4
ENDBRANCH   1   2
BRANCH   1  12
HETATM   12  N3  UNL     1      24.650   0.353  52.691  1.00  0.00     0.086 N 
HETATM   13  H11 UNL     1      24.909  -0.448  52.074  1.00  0.00     0.313 HD
HETATM   14  H12 UNL     1      24.174   0.081  53.566  1.00  0.00     0.313 HD
ENDBRANCH   1  12
BRANCH   1  15
HETATM   15  C7  UNL     1      24.418   2.767  52.310  1.00  0.00     0.086 A 
HETATM   16  C8  UNL     1      25.407   2.699  53.494  1.00  0.00     0.046 C 
HETATM   17  C9  UNL     1      23.322   3.678  52.657  1.00  0.00     0.009 A 
HETATM   18  C10 UNL     1      23.386   4.712  51.825  1.00  0.00     0.028 A 
HETATM   19  C11 UNL     1      24.494   4.566  50.891  1.00  0.00     0.038 A 
HETATM   20  C12 UNL     1      25.064   5.254  49.842  1.00  0.00     0.030 A 
HETATM   21  N4  UNL     1      25.098   3.402  51.194  1.00  0.00    -0.299 N 
HETATM   22  C13 UNL     1      26.164   4.805  49.141  1.00  0.00     0.008 A 
HETATM   23  C14 UNL     1      26.730   3.600  49.510  1.00  0.00     0.074 A 
HETATM   24  C15 UNL     1      26.171   2.913  50.549  1.00  0.00     0.249 A 
HETATM   25  O3  UNL     1      26.730   1.825  50.837  1.00  0.00    -0.268 OA
ENDBRANCH   1  15
TORSDOF 7
ENDMDL
MODEL 9
REMARK VINA RESULT:      -5.7      8.777     10.854
REMARK  7 active torsions:
REMARK  status: ('A' for Active; 'I' for Inactive)
REMARK    1  A    between atoms: C2_2  and  C3_3 
REMARK    2  A    between atoms: C2_2  and  C6_10 
REMARK       I    between atoms: C3_3  and  N1_5 
REMARK    3  A    between atoms: N1_5  and  C4_6 
REMARK    4  A    between atoms: C4_6  and  C5_7 
REMARK    5  A    between atoms: C5_7  and  N2_8 
REMARK    6  A    between atoms: C6_10  and  N3_11 
REMARK    7  A    between atoms: C6_10  and  C7_12 
ROOT
HETATM    1  C6  UNL     1      32.168   7.405  47.130  1.00  0.00     0.262 C 
ENDROOT
BRANCH   1   2
HETATM    2  C2  UNL     1      32.877   8.539  46.473  1.00  0.00     0.109 C 
HETATM    3  C1  UNL     1      32.158   9.861  46.533  1.00  0.00     0.022 C 
BRANCH   2   4
HETATM    4  C3  UNL     1      33.248   8.259  45.067  1.00  0.00     0.223 C 
HETATM    5  O1  UNL     1      32.647   8.923  44.182  1.00  0.00    -0.273 OA
HETATM    6  N1  UNL     1      34.243   7.274  44.785  1.00  0.00    -0.359 N 
HETATM    7  H5  UNL     1      34.675   6.785  45.600  1.00  0.00     0.162 HD
BRANCH   6   8
HETATM    8  C4  UNL     1      34.632   6.970  43.441  1.00  0.00     0.146 C 
BRANCH   8   9
HETATM    9  C5  UNL     1      34.752   5.479  43.196  1.00  0.00     0.202 C 
BRANCH   9  10
HETATM   10  N2  UNL     1      34.242   4.730  44.309  1.00  0.00    -0.139 NA
HETATM   11  O2  UNL     1      33.053   4.552  44.372  1.00  0.00    -0.067 OA
ENDBRANCH   9  10
ENDBRANCH   8   9
ENDBRANCH   6   8
ENDBRANCH   2   4
ENDBRANCH   1   2
BRANCH   1  12
HETATM   12  N3  UNL     1      30.850   7.882  47.517  1.00  0.00     0.086 N 
HETATM   13  H11 UNL     1      30.204   7.952  46.700  1.00  0.00     0.313 HD
HETATM   14  H12 UNL     1      30.893   8.734  48.101  1.00  0.00     0.313 HD
ENDBRANCH   1  12
BRANCH   1  15
HETATM   15  C7  UNL     1      32.903   6.773  48.278  1.00  0.00     0.086 A 
HETATM   16  C8  UNL     1      32.063   6.881  49.569  1.00  0.00     0.046 C 
HETATM   17  C9  UNL     1      34.215   7.387  48.510  1.00  0.00     0.009 A 
HETATM   18  C10 UNL     1      35.126   6.425  48.415  1.00  0.00     0.028 A 
HETATM   19  C11 UNL     1      34.505   5.141  48.119  1.00  0.00     0.038 A 
HETATM   20  C12 UNL     1      34.879   3.831  47.910  1.00  0.00     0.030 A 
HETATM   21  N4  UNL     1      33.181   5.367  48.041  1.00  0.00    -0.299 N 
HETATM   22  C13 UNL     1      33.986   2.816  47.639  1.00  0.00     0.008 A 
HETATM   23  C14 UNL     1      32.642   3.124  47.573  1.00  0.00     0.074 A 
HETATM   24  C15 UNL     1      32.264   4.420  47.780  1.00  0.00     0.249 A 
HETATM   25  O3  UNL     1      31.028   4.637  47.708  1.00  0.00    -0.268 OA
ENDBRANCH   1  15
TORSDOF 7
ENDMDL
