MODEL 1
REMARK VINA RESULT:      -8.0      0.000      0.000
REMARK  2 active torsions:
REMARK  status: ('A' for Active; 'I' for Inactive)
REMARK    1  A    between atoms: C3_5  and  C4_6 
REMARK       I    between atoms: C4_6  and  N2_8 
REMARK    2  A    between atoms: N2_8  and  C5_9 
ROOT
HETATM    1  C1  UNL     1      23.071   6.168  51.017  1.00  0.00     0.158 C 
HETATM    2  N1  UNL     1      24.050   5.144  50.658  1.00  0.00    -0.329 N 
HETATM    3  C2  UNL     1      23.976   3.749  50.981  1.00  0.00     0.098 A 
HETATM    4  S1  UNL     1      22.776   3.024  51.820  1.00  0.00    -0.064 SA
HETATM    5  C3  UNL     1      25.159   3.061  50.437  1.00  0.00     0.176 A 
HETATM    6  C11 UNL     1      25.936   4.145  49.770  1.00  0.00     0.008 A 
HETATM    7  C12 UNL     1      27.122   4.209  49.073  1.00  0.00     0.013 A 
HETATM    8  C13 UNL     1      27.622   5.396  48.546  1.00  0.00     0.020 A 
HETATM    9  C14 UNL     1      26.892   6.554  48.733  1.00  0.00     0.119 A 
HETATM   10  N3  UNL     1      25.727   6.516  49.414  1.00  0.00    -0.243 NA
HETATM   11  C15 UNL     1      25.264   5.349  49.916  1.00  0.00     0.137 A 
ENDROOT
BRANCH   5  12
HETATM   12  C4  UNL     1      25.999   2.410  51.450  1.00  0.00     0.237 C 
HETATM   13  O1  UNL     1      26.678   1.366  51.185  1.00  0.00    -0.272 OA
HETATM   14  N2  UNL     1      26.159   2.833  52.784  1.00  0.00    -0.326 N 
HETATM   15  H5  UNL     1      25.628   3.701  53.094  1.00  0.00     0.169 HD
BRANCH  14  16
HETATM   16  C5  UNL     1      27.059   1.955  53.491  1.00  0.00     0.034 A 
HETATM   17  C6  UNL     1      26.465   0.918  54.193  1.00  0.00     0.029 A 
HETATM   18  C7  UNL     1      27.236   0.015  54.906  1.00  0.00     0.002 A 
HETATM   19  C8  UNL     1      28.619   0.183  54.896  1.00  0.00     0.000 A 
HETATM   20  C9  UNL     1      29.203   1.217  54.195  1.00  0.00     0.002 A 
HETATM   21  C10 UNL     1      28.432   2.104  53.492  1.00  0.00     0.029 A 
ENDBRANCH  14  16
ENDBRANCH   5  12
TORSDOF 2
ENDMDL
MODEL 2
REMARK VINA RESULT:      -7.5      2.762      4.450
REMARK  2 active torsions:
REMARK  status: ('A' for Active; 'I' for Inactive)
REMARK    1  A    between atoms: C3_5  and  C4_6 
REMARK       I    between atoms: C4_6  and  N2_8 
REMARK    2  A    between atoms: N2_8  and  C5_9 
ROOT
HETATM    1  C1  UNL     1      23.081   2.857  48.715  1.00  0.00     0.158 C 
HETATM    2  N1  UNL     1      23.460   2.476  50.074  1.00  0.00    -0.329 N 
HETATM    3  C2  UNL     1      24.615   2.932  50.791  1.00  0.00     0.098 A 
HETATM    4  S1  UNL     1      25.743   3.971  50.226  1.00  0.00    -0.064 SA
HETATM    5  C3  UNL     1      24.633   2.314  52.128  1.00  0.00     0.176 A 
HETATM    6  C11 UNL     1      23.409   1.463  52.151  1.00  0.00     0.008 A 
HETATM    7  C12 UNL     1      22.820   0.625  53.071  1.00  0.00     0.013 A 
HETATM    8  C13 UNL     1      21.639  -0.064  52.814  1.00  0.00     0.020 A 
HETATM    9  C14 UNL     1      21.037   0.105  51.582  1.00  0.00     0.119 A 
HETATM   10  N3  UNL     1      21.596   0.920  50.663  1.00  0.00    -0.243 NA
HETATM   11  C15 UNL     1      22.745   1.578  50.939  1.00  0.00     0.137 A 
ENDROOT
BRANCH   5  12
HETATM   12  C4  UNL     1      25.812   1.481  52.393  1.00  0.00     0.237 C 
HETATM   13  O1  UNL     1      26.473   0.937  51.449  1.00  0.00    -0.272 OA
HETATM   14  N2  UNL     1      26.345   1.186  53.663  1.00  0.00    -0.326 N 
HETATM   15  H5  UNL     1      25.856   1.600  54.512  1.00  0.00     0.169 HD
BRANCH  14  16
HETATM   16  C5  UNL     1      27.507   0.339  53.542  1.00  0.00     0.034 A 
HETATM   17  C6  UNL     1      28.729   0.957  53.744  1.00  0.00     0.029 A 
HETATM   18  C7  UNL     1      29.909   0.238  53.654  1.00  0.00     0.002 A 
HETATM   19  C8  UNL     1      29.827  -1.120  53.353  1.00  0.00     0.000 A 
HETATM   20  C9  UNL     1      28.606  -1.730  53.154  1.00  0.00     0.002 A 
HETATM   21  C10 UNL     1      27.446  -1.009  53.247  1.00  0.00     0.029 A 
ENDBRANCH  14  16
ENDBRANCH   5  12
TORSDOF 2
ENDMDL
MODEL 3
REMARK VINA RESULT:      -7.2      3.415      5.138
REMARK  2 active torsions:
REMARK  status: ('A' for Active; 'I' for Inactive)
REMARK    1  A    between atoms: C3_5  and  C4_6 
REMARK       I    between atoms: C4_6  and  N2_8 
REMARK    2  A    between atoms: N2_8  and  C5_9 
ROOT
HETATM    1  C1  UNL     1      21.970   1.521  49.542  1.00  0.00     0.158 C 
HETATM    2  N1  UNL     1      22.560   1.462  50.877  1.00  0.00    -0.329 N 
HETATM    3  C2  UNL     1      23.718   2.179  51.325  1.00  0.00     0.098 A 
HETATM    4  S1  UNL     1      24.613   3.210  50.425  1.00  0.00    -0.064 SA
HETATM    5  C3  UNL     1      23.983   1.842  52.734  1.00  0.00     0.176 A 
HETATM    6  C11 UNL     1      22.903   0.878  53.087  1.00  0.00     0.008 A 
HETATM    7  C12 UNL     1      22.553   0.176  54.218  1.00  0.00     0.013 A 
HETATM    8  C13 UNL     1      21.458  -0.682  54.264  1.00  0.00     0.020 A 
HETATM    9  C14 UNL     1      20.694  -0.829  53.121  1.00  0.00     0.119 A 
HETATM   10  N3  UNL     1      21.018  -0.151  52.000  1.00  0.00    -0.243 NA
HETATM   11  C15 UNL     1      22.088   0.676  51.983  1.00  0.00     0.137 A 
ENDROOT
BRANCH   5  12
HETATM   12  C4  UNL     1      25.291   1.219  52.971  1.00  0.00     0.237 C 
HETATM   13  O1  UNL     1      25.874   1.295  54.101  1.00  0.00    -0.272 OA
HETATM   14  N2  UNL     1      26.039   0.488  52.027  1.00  0.00    -0.326 N 
HETATM   15  H5  UNL     1      25.628   0.372  51.052  1.00  0.00     0.169 HD
BRANCH  14  16
HETATM   16  C5  UNL     1      27.275   0.022  52.608  1.00  0.00     0.034 A 
HETATM   17  C6  UNL     1      27.408  -1.351  52.725  1.00  0.00     0.029 A 
HETATM   18  C7  UNL     1      28.555  -1.907  53.268  1.00  0.00     0.002 A 
HETATM   19  C8  UNL     1      29.563  -1.044  53.692  1.00  0.00     0.000 A 
HETATM   20  C9  UNL     1      29.424   0.323  53.573  1.00  0.00     0.002 A 
HETATM   21  C10 UNL     1      28.286   0.861  53.033  1.00  0.00     0.029 A 
ENDBRANCH  14  16
ENDBRANCH   5  12
TORSDOF 2
ENDMDL
MODEL 4
REMARK VINA RESULT:      -6.9      3.073      7.004
REMARK  2 active torsions:
REMARK  status: ('A' for Active; 'I' for Inactive)
REMARK    1  A    between atoms: C3_5  and  C4_6 
REMARK       I    between atoms: C4_6  and  N2_8 
REMARK    2  A    between atoms: N2_8  and  C5_9 
ROOT
HETATM    1  C1  UNL     1      26.509   0.115  55.059  1.00  0.00     0.158 C 
HETATM    2  N1  UNL     1      25.529   0.294  53.990  1.00  0.00    -0.329 N 
HETATM    3  C2  UNL     1      25.733   1.007  52.763  1.00  0.00     0.098 A 
HETATM    4  S1  UNL     1      27.109   1.767  52.316  1.00  0.00    -0.064 SA
HETATM    5  C3  UNL     1      24.500   0.952  51.959  1.00  0.00     0.176 A 
HETATM    6  C11 UNL     1      23.556   0.157  52.794  1.00  0.00     0.008 A 
HETATM    7  C12 UNL     1      22.254  -0.271  52.657  1.00  0.00     0.013 A 
HETATM    8  C13 UNL     1      21.603  -1.025  53.629  1.00  0.00     0.020 A 
HETATM    9  C14 UNL     1      22.298  -1.353  54.777  1.00  0.00     0.119 A 
HETATM   10  N3  UNL     1      23.575  -0.945  54.934  1.00  0.00    -0.243 NA
HETATM   11  C15 UNL     1      24.184  -0.213  53.973  1.00  0.00     0.137 A 
ENDROOT
BRANCH   5  12
HETATM   12  C4  UNL     1      23.909   2.264  51.668  1.00  0.00     0.237 C 
HETATM   13  O1  UNL     1      23.624   2.620  50.478  1.00  0.00    -0.272 OA
HETATM   14  N2  UNL     1      23.594   3.256  52.617  1.00  0.00    -0.326 N 
HETATM   15  H5  UNL     1      23.798   3.044  53.639  1.00  0.00     0.169 HD
BRANCH  14  16
HETATM   16  C5  UNL     1      23.028   4.416  51.972  1.00  0.00     0.034 A 
HETATM   17  C6  UNL     1      21.668   4.361  51.716  1.00  0.00     0.029 A 
HETATM   18  C7  UNL     1      21.021   5.420  51.101  1.00  0.00     0.002 A 
HETATM   19  C8  UNL     1      21.779   6.535  50.750  1.00  0.00     0.000 A 
HETATM   20  C9  UNL     1      23.133   6.583  51.008  1.00  0.00     0.002 A 
HETATM   21  C10 UNL     1      23.762   5.530  51.616  1.00  0.00     0.029 A 
ENDBRANCH  14  16
ENDBRANCH   5  12
TORSDOF 2
ENDMDL
MODEL 5
REMARK VINA RESULT:      -6.9      1.820      2.235
REMARK  2 active torsions:
REMARK  status: ('A' for Active; 'I' for Inactive)
REMARK    1  A    between atoms: C3_5  and  C4_6 
REMARK       I    between atoms: C4_6  and  N2_8 
REMARK    2  A    between atoms: N2_8  and  C5_9 
ROOT
HETATM    1  C1  UNL     1      23.347   7.844  50.674  1.00  0.00     0.158 C 
HETATM    2  N1  UNL     1      23.938   6.610  50.162  1.00  0.00    -0.329 N 
HETATM    3  C2  UNL     1      23.307   5.324  50.113  1.00  0.00     0.098 A 
HETATM    4  S1  UNL     1      21.794   4.980  50.625  1.00  0.00    -0.064 SA
HETATM    5  C3  UNL     1      24.241   4.347  49.526  1.00  0.00     0.176 A 
HETATM    6  C11 UNL     1      25.465   5.145  49.231  1.00  0.00     0.008 A 
HETATM    7  C12 UNL     1      26.700   4.872  48.688  1.00  0.00     0.013 A 
HETATM    8  C13 UNL     1      27.683   5.844  48.527  1.00  0.00     0.020 A 
HETATM    9  C14 UNL     1      27.400   7.135  48.933  1.00  0.00     0.119 A 
HETATM   10  N3  UNL     1      26.196   7.426  49.469  1.00  0.00    -0.243 NA
HETATM   11  C15 UNL     1      25.259   6.462  49.613  1.00  0.00     0.137 A 
ENDROOT
BRANCH   5  12
HETATM   12  C4  UNL     1      24.586   3.232  50.416  1.00  0.00     0.237 C 
HETATM   13  O1  UNL     1      24.054   2.082  50.286  1.00  0.00    -0.272 OA
HETATM   14  N2  UNL     1      25.508   3.281  51.480  1.00  0.00    -0.326 N 
HETATM   15  H5  UNL     1      26.004   4.204  51.662  1.00  0.00     0.169 HD
BRANCH  14  16
HETATM   16  C5  UNL     1      25.596   1.999  52.137  1.00  0.00     0.034 A 
HETATM   17  C6  UNL     1      26.666   1.202  51.766  1.00  0.00     0.029 A 
HETATM   18  C7  UNL     1      26.846  -0.048  52.335  1.00  0.00     0.002 A 
HETATM   19  C8  UNL     1      25.921  -0.475  53.285  1.00  0.00     0.000 A 
HETATM   20  C9  UNL     1      24.858   0.324  53.649  1.00  0.00     0.002 A 
HETATM   21  C10 UNL     1      24.689   1.559  53.081  1.00  0.00     0.029 A 
ENDBRANCH  14  16
ENDBRANCH   5  12
TORSDOF 2
ENDMDL
MODEL 6
REMARK VINA RESULT:      -6.8      2.424      6.090
REMARK  2 active torsions:
REMARK  status: ('A' for Active; 'I' for Inactive)
REMARK    1  A    between atoms: C3_5  and  C4_6 
REMARK       I    between atoms: C4_6  and  N2_8 
REMARK    2  A    between atoms: N2_8  and  C5_9 
ROOT
HETATM    1  C1  UNL     1      21.559  -0.036  52.070  1.00  0.00     0.158 C 
HETATM    2  N1  UNL     1      22.474   1.060  52.382  1.00  0.00    -0.329 N 
HETATM    3  C2  UNL     1      22.211   2.459  52.213  1.00  0.00     0.098 A 
HETATM    4  S1  UNL     1      20.828   3.109  51.633  1.00  0.00    -0.064 SA
HETATM    5  C3  UNL     1      23.389   3.231  52.644  1.00  0.00     0.176 A 
HETATM    6  C11 UNL     1      24.365   2.192  53.080  1.00  0.00     0.008 A 
HETATM    7  C12 UNL     1      25.645   2.206  53.587  1.00  0.00     0.013 A 
HETATM    8  C13 UNL     1      26.338   1.045  53.917  1.00  0.00     0.020 A 
HETATM    9  C14 UNL     1      25.708  -0.170  53.723  1.00  0.00     0.119 A 
HETATM   10  N3  UNL     1      24.454  -0.209  53.227  1.00  0.00    -0.243 NA
HETATM   11  C15 UNL     1      23.803   0.934  52.915  1.00  0.00     0.137 A 
ENDROOT
BRANCH   5  12
HETATM   12  C4  UNL     1      23.991   4.055  51.589  1.00  0.00     0.237 C 
HETATM   13  O1  UNL     1      24.098   5.318  51.706  1.00  0.00    -0.272 OA
HETATM   14  N2  UNL     1      24.507   3.582  50.367  1.00  0.00    -0.326 N 
HETATM   15  H5  UNL     1      24.461   2.535  50.182  1.00  0.00     0.169 HD
BRANCH  14  16
HETATM   16  C5  UNL     1      25.020   4.674  49.575  1.00  0.00     0.034 A 
HETATM   17  C6  UNL     1      26.396   4.719  49.427  1.00  0.00     0.029 A 
HETATM   18  C7  UNL     1      26.995   5.724  48.686  1.00  0.00     0.002 A 
HETATM   19  C8  UNL     1      26.173   6.683  48.098  1.00  0.00     0.000 A 
HETATM   20  C9  UNL     1      24.803   6.632  48.250  1.00  0.00     0.002 A 
HETATM   21  C10 UNL     1      24.221   5.633  48.984  1.00  0.00     0.029 A 
ENDBRANCH  14  16
ENDBRANCH   5  12
TORSDOF 2
ENDMDL
MODEL 7
REMARK VINA RESULT:      -6.6      2.936      3.772
REMARK  2 active torsions:
REMARK  status: ('A' for Active; 'I' for Inactive)
REMARK    1  A    between atoms: C3_5  and  C4_6 
REMARK       I    between atoms: C4_6  and  N2_8 
REMARK    2  A    between atoms: N2_8  and  C5_9 
ROOT
HETATM    1  C1  UNL     1      21.619   6.974  50.471  1.00  0.00     0.158 C 
HETATM    2  N1  UNL     1      22.171   5.647  50.207  1.00  0.00    -0.329 N 
HETATM    3  C2  UNL     1      21.438   4.415  50.168  1.00  0.00     0.098 A 
HETATM    4  S1  UNL     1      19.831   4.251  50.415  1.00  0.00    -0.064 SA
HETATM    5  C3  UNL     1      22.363   3.308  49.870  1.00  0.00     0.176 A 
HETATM    6  C11 UNL     1      23.691   3.970  49.735  1.00  0.00     0.008 A 
HETATM    7  C12 UNL     1      24.972   3.543  49.466  1.00  0.00     0.013 A 
HETATM    8  C13 UNL     1      26.057   4.412  49.398  1.00  0.00     0.020 A 
HETATM    9  C14 UNL     1      25.832   5.759  49.611  1.00  0.00     0.119 A 
HETATM   10  N3  UNL     1      24.585   6.201  49.877  1.00  0.00    -0.243 NA
HETATM   11  C15 UNL     1      23.548   5.335  49.937  1.00  0.00     0.137 A 
ENDROOT
BRANCH   5  12
HETATM   12  C4  UNL     1      22.433   2.281  50.917  1.00  0.00     0.237 C 
HETATM   13  O1  UNL     1      22.222   1.051  50.662  1.00  0.00    -0.272 OA
HETATM   14  N2  UNL     1      22.729   2.507  52.275  1.00  0.00    -0.326 N 
HETATM   15  H5  UNL     1      22.920   3.508  52.580  1.00  0.00     0.169 HD
BRANCH  14  16
HETATM   16  C5  UNL     1      22.711   1.267  53.013  1.00  0.00     0.034 A 
HETATM   17  C6  UNL     1      23.941   0.659  53.204  1.00  0.00     0.029 A 
HETATM   18  C7  UNL     1      24.039  -0.535  53.898  1.00  0.00     0.002 A 
HETATM   19  C8  UNL     1      22.868  -1.102  54.395  1.00  0.00     0.000 A 
HETATM   20  C9  UNL     1      21.646  -0.492  54.201  1.00  0.00     0.002 A 
HETATM   21  C10 UNL     1      21.561   0.689  53.513  1.00  0.00     0.029 A 
ENDBRANCH  14  16
ENDBRANCH   5  12
TORSDOF 2
ENDMDL
MODEL 8
REMARK VINA RESULT:      -6.6      3.210      6.193
REMARK  2 active torsions:
REMARK  status: ('A' for Active; 'I' for Inactive)
REMARK    1  A    between atoms: C3_5  and  C4_6 
REMARK       I    between atoms: C4_6  and  N2_8 
REMARK    2  A    between atoms: N2_8  and  C5_9 
ROOT
HETATM    1  C1  UNL     1      19.195   1.487  50.674  1.00  0.00     0.158 C 
HETATM    2  N1  UNL     1      20.420   1.961  51.314  1.00  0.00    -0.329 N 
HETATM    3  C2  UNL     1      20.892   3.315  51.345  1.00  0.00     0.098 A 
HETATM    4  S1  UNL     1      20.149   4.603  50.666  1.00  0.00    -0.064 SA
HETATM    5  C3  UNL     1      22.162   3.370  52.088  1.00  0.00     0.176 A 
HETATM    6  C11 UNL     1      22.408   1.956  52.494  1.00  0.00     0.008 A 
HETATM    7  C12 UNL     1      23.392   1.300  53.198  1.00  0.00     0.013 A 
HETATM    8  C13 UNL     1      23.362  -0.071  53.433  1.00  0.00     0.020 A 
HETATM    9  C14 UNL     1      22.297  -0.798  52.936  1.00  0.00     0.119 A 
HETATM   10  N3  UNL     1      21.321  -0.177  52.241  1.00  0.00    -0.243 NA
HETATM   11  C15 UNL     1      21.374   1.158  52.028  1.00  0.00     0.137 A 
ENDROOT
BRANCH   5  12
HETATM   12  C4  UNL     1      23.302   3.857  51.302  1.00  0.00     0.237 C 
HETATM   13  O1  UNL     1      24.186   4.622  51.808  1.00  0.00    -0.272 OA
HETATM   14  N2  UNL     1      23.558   3.559  49.949  1.00  0.00    -0.326 N 
HETATM   15  H5  UNL     1      22.871   2.924  49.444  1.00  0.00     0.169 HD
BRANCH  14  16
HETATM   16  C5  UNL     1      24.767   4.210  49.505  1.00  0.00     0.034 A 
HETATM   17  C6  UNL     1      24.612   5.489  48.996  1.00  0.00     0.029 A 
HETATM   18  C7  UNL     1      25.706   6.206  48.542  1.00  0.00     0.002 A 
HETATM   19  C8  UNL     1      26.960   5.603  48.613  1.00  0.00     0.000 A 
HETATM   20  C9  UNL     1      27.107   4.329  49.122  1.00  0.00     0.002 A 
HETATM   21  C10 UNL     1      26.018   3.630  49.568  1.00  0.00     0.029 A 
ENDBRANCH  14  16
ENDBRANCH   5  12
TORSDOF 2
ENDMDL
MODEL 9
REMARK VINA RESULT:      -6.6      3.907      6.219
REMARK  2 active torsions:
REMARK  status: ('A' for Active; 'I' for Inactive)
REMARK    1  A    between atoms: C3_5  and  C4_6 
REMARK       I    between atoms: C4_6  and  N2_8 
REMARK    2  A    between atoms: N2_8  and  C5_9 
ROOT
HETATM    1  C1  UNL     1      27.128  -0.173  52.236  1.00  0.00     0.158 C 
HETATM    2  N1  UNL     1      26.029   0.786  52.318  1.00  0.00    -0.329 N 
HETATM    3  C2  UNL     1      24.891   0.700  53.186  1.00  0.00     0.098 A 
HETATM    4  S1  UNL     1      24.596  -0.496  54.260  1.00  0.00    -0.064 SA
HETATM    5  C3  UNL     1      24.019   1.865  52.960  1.00  0.00     0.176 A 
HETATM    6  C11 UNL     1      24.719   2.644  51.900  1.00  0.00     0.008 A 
HETATM    7  C12 UNL     1      24.470   3.818  51.226  1.00  0.00     0.013 A 
HETATM    8  C13 UNL     1      25.327   4.325  50.254  1.00  0.00     0.020 A 
HETATM    9  C14 UNL     1      26.474   3.614  49.957  1.00  0.00     0.119 A 
HETATM   10  N3  UNL     1      26.740   2.459  50.604  1.00  0.00    -0.243 NA
HETATM   11  C15 UNL     1      25.890   1.990  51.546  1.00  0.00     0.137 A 
ENDROOT
BRANCH   5  12
HETATM   12  C4  UNL     1      22.665   1.526  52.503  1.00  0.00     0.237 C 
HETATM   13  O1  UNL     1      21.673   2.294  52.724  1.00  0.00    -0.272 OA
HETATM   14  N2  UNL     1      22.301   0.365  51.795  1.00  0.00    -0.326 N 
HETATM   15  H5  UNL     1      23.068  -0.336  51.565  1.00  0.00     0.169 HD
BRANCH  14  16
HETATM   16  C5  UNL     1      20.886   0.366  51.511  1.00  0.00     0.034 A 
HETATM   17  C6  UNL     1      20.512   0.929  50.302  1.00  0.00     0.029 A 
HETATM   18  C7  UNL     1      19.179   0.981  49.929  1.00  0.00     0.002 A 
HETATM   19  C8  UNL     1      18.232   0.453  50.804  1.00  0.00     0.000 A 
HETATM   20  C9  UNL     1      18.612  -0.107  52.006  1.00  0.00     0.002 A 
HETATM   21  C10 UNL     1      19.932  -0.154  52.365  1.00  0.00     0.029 A 
ENDBRANCH  14  16
ENDBRANCH   5  12
TORSDOF 2
ENDMDL
