MODEL 1
REMARK VINA RESULT:      -8.5      0.000      0.000
REMARK  4 active torsions:
REMARK  status: ('A' for Active; 'I' for Inactive)
REMARK    1  A    between atoms: C3_3  and  C4_4 
REMARK    2  A    between atoms: C4_4  and  C5_5 
REMARK    3  A    between atoms: C12_14  and  N3_15 
REMARK    4  A    between atoms: N3_15  and  C13_16 
ROOT
HETATM    1  C1  UNL     1      21.305   1.277  48.935  1.00  0.00     0.112 C 
HETATM    2  C2  UNL     1      21.011   0.683  50.262  1.00  0.00    -0.111 C 
HETATM    3  C3  UNL     1      20.764   0.214  51.361  1.00  0.00    -0.102 C 
ENDROOT
BRANCH   3   4
HETATM    4  C4  UNL     1      20.496  -0.342  52.675  1.00  0.00     0.132 C 
BRANCH   4   5
HETATM    5  C5  UNL     1      21.769  -0.485  53.411  1.00  0.00    -0.046 A 
HETATM    6  C6  UNL     1      21.885  -1.252  54.562  1.00  0.00     0.010 A 
HETATM    7  C7  UNL     1      23.085  -1.374  55.236  1.00  0.00     0.033 A 
HETATM    8  C8  UNL     1      24.185  -0.709  54.738  1.00  0.00     0.069 A 
HETATM    9  N1  UNL     1      25.365  -0.806  55.369  1.00  0.00    -0.259 NA
HETATM   10  C19 UNL     1      24.058   0.052  53.591  1.00  0.00     0.021 A 
HETATM   11  C9  UNL     1      26.436  -0.155  54.877  1.00  0.00     0.142 A 
HETATM   12  C10 UNL     1      26.352   0.623  53.724  1.00  0.00     0.089 A 
HETATM   13  C11 UNL     1      27.543   1.304  53.240  1.00  0.00     0.103 C 
HETATM   14  C12 UNL     1      25.149   0.737  53.058  1.00  0.00     0.067 A 
HETATM   15  N2  UNL     1      28.486   1.844  52.835  1.00  0.00    -0.191 NA
HETATM   16  C20 UNL     1      22.868   0.191  52.897  1.00  0.00     0.024 A 
BRANCH  14  17
HETATM   17  N3  UNL     1      25.144   1.541  51.902  1.00  0.00    -0.354 N 
HETATM   18  H9  UNL     1      25.710   1.176  51.118  1.00  0.00     0.166 HD
BRANCH  17  19
HETATM   19  C13 UNL     1      24.422   2.762  51.803  1.00  0.00     0.033 A 
HETATM   20  C14 UNL     1      24.168   3.498  52.943  1.00  0.00     0.029 A 
HETATM   21  C15 UNL     1      23.458   4.694  52.822  1.00  0.00     0.004 A 
HETATM   22  C16 UNL     1      23.041   5.083  51.551  1.00  0.00     0.019 A 
HETATM   23  C17 UNL     1      23.290   4.353  50.392  1.00  0.00     0.013 A 
HETATM   24 BR1  UNL     1      22.677   4.975  48.707  1.00  0.00    -0.051 Br
HETATM   25  C18 UNL     1      23.995   3.178  50.559  1.00  0.00     0.048 A 
ENDBRANCH  17  19
ENDBRANCH  14  17
ENDBRANCH   4   5
ENDBRANCH   3   4
TORSDOF 4
ENDMDL
MODEL 2
REMARK VINA RESULT:      -8.1      2.041      4.304
REMARK  4 active torsions:
REMARK  status: ('A' for Active; 'I' for Inactive)
REMARK    1  A    between atoms: C3_3  and  C4_4 
REMARK    2  A    between atoms: C4_4  and  C5_5 
REMARK    3  A    between atoms: C12_14  and  N3_15 
REMARK    4  A    between atoms: N3_15  and  C13_16 
ROOT
HETATM    1  C1  UNL     1      26.175   3.206  49.843  1.00  0.00     0.112 C 
HETATM    2  C2  UNL     1      26.480   2.222  50.910  1.00  0.00    -0.111 C 
HETATM    3  C3  UNL     1      26.741   1.402  51.773  1.00  0.00    -0.102 C 
ENDROOT
BRANCH   3   4
HETATM    4  C4  UNL     1      27.030   0.412  52.797  1.00  0.00     0.132 C 
BRANCH   4   5
HETATM    5  C5  UNL     1      25.763  -0.027  53.419  1.00  0.00    -0.046 A 
HETATM    6  C6  UNL     1      25.718  -0.687  54.640  1.00  0.00     0.010 A 
HETATM    7  C7  UNL     1      24.524  -1.088  55.205  1.00  0.00     0.033 A 
HETATM    8  C8  UNL     1      23.355  -0.818  54.525  1.00  0.00     0.069 A 
HETATM    9  N1  UNL     1      22.178  -1.195  55.046  1.00  0.00    -0.259 NA
HETATM   10  C19 UNL     1      23.411  -0.160  53.311  1.00  0.00     0.021 A 
HETATM   11  C9  UNL     1      21.041  -0.929  54.378  1.00  0.00     0.142 A 
HETATM   12  C10 UNL     1      21.052  -0.268  53.151  1.00  0.00     0.089 A 
HETATM   13  C11 UNL     1      19.790  -0.007  52.475  1.00  0.00     0.103 C 
HETATM   14  C12 UNL     1      22.250   0.130  52.596  1.00  0.00     0.067 A 
HETATM   15  N2  UNL     1      18.791   0.218  51.928  1.00  0.00    -0.191 NA
HETATM   16  C20 UNL     1      24.595   0.253  52.722  1.00  0.00     0.024 A 
BRANCH  14  17
HETATM   17  N3  UNL     1      22.179   0.791  51.355  1.00  0.00    -0.354 N 
HETATM   18  H9  UNL     1      22.056   0.169  50.538  1.00  0.00     0.166 HD
BRANCH  17  19
HETATM   19  C13 UNL     1      22.267   2.204  51.217  1.00  0.00     0.033 A 
HETATM   20  C14 UNL     1      22.135   3.007  52.331  1.00  0.00     0.029 A 
HETATM   21  C15 UNL     1      22.225   4.391  52.171  1.00  0.00     0.004 A 
HETATM   22  C16 UNL     1      22.444   4.891  50.890  1.00  0.00     0.019 A 
HETATM   23  C17 UNL     1      22.581   4.093  49.756  1.00  0.00     0.013 A 
HETATM   24 BR1  UNL     1      22.878   4.878  48.053  1.00  0.00    -0.051 Br
HETATM   25  C18 UNL     1      22.484   2.732  49.961  1.00  0.00     0.048 A 
ENDBRANCH  17  19
ENDBRANCH  14  17
ENDBRANCH   4   5
ENDBRANCH   3   4
TORSDOF 4
ENDMDL
MODEL 3
REMARK VINA RESULT:      -7.9      1.835      4.276
REMARK  4 active torsions:
REMARK  status: ('A' for Active; 'I' for Inactive)
REMARK    1  A    between atoms: C3_3  and  C4_4 
REMARK    2  A    between atoms: C4_4  and  C5_5 
REMARK    3  A    between atoms: C12_14  and  N3_15 
REMARK    4  A    between atoms: N3_15  and  C13_16 
ROOT
HETATM    1  C1  UNL     1      23.998   5.683  50.410  1.00  0.00     0.112 C 
HETATM    2  C2  UNL     1      24.924   4.525  50.432  1.00  0.00    -0.111 C 
HETATM    3  C3  UNL     1      25.695   3.580  50.467  1.00  0.00    -0.102 C 
ENDROOT
BRANCH   3   4
HETATM    4  C4  UNL     1      26.628   2.468  50.492  1.00  0.00     0.132 C 
BRANCH   4   5
HETATM    5  C5  UNL     1      26.440   1.704  51.743  1.00  0.00    -0.046 A 
HETATM    6  C6  UNL     1      27.444   1.564  52.692  1.00  0.00     0.010 A 
HETATM    7  C7  UNL     1      27.248   0.847  53.856  1.00  0.00     0.033 A 
HETATM    8  C8  UNL     1      26.017   0.262  54.064  1.00  0.00     0.069 A 
HETATM    9  N1  UNL     1      25.794  -0.442  55.185  1.00  0.00    -0.259 NA
HETATM   10  C19 UNL     1      25.025   0.408  53.114  1.00  0.00     0.021 A 
HETATM   11  C9  UNL     1      24.591  -1.010  55.383  1.00  0.00     0.142 A 
HETATM   12  C10 UNL     1      23.562  -0.888  54.450  1.00  0.00     0.089 A 
HETATM   13  C11 UNL     1      22.282  -1.525  54.719  1.00  0.00     0.103 C 
HETATM   14  C12 UNL     1      23.768  -0.169  53.291  1.00  0.00     0.067 A 
HETATM   15  N2  UNL     1      21.251  -2.017  54.923  1.00  0.00    -0.191 NA
HETATM   16  C20 UNL     1      25.195   1.121  51.938  1.00  0.00     0.024 A 
BRANCH  14  17
HETATM   17  N3  UNL     1      22.683  -0.091  52.398  1.00  0.00    -0.354 N 
HETATM   18  H9  UNL     1      22.257  -1.001  52.151  1.00  0.00     0.166 HD
BRANCH  17  19
HETATM   19  C13 UNL     1      22.194   1.135  51.867  1.00  0.00     0.033 A 
HETATM   20  C14 UNL     1      21.639   2.072  52.714  1.00  0.00     0.029 A 
HETATM   21  C15 UNL     1      21.166   3.267  52.171  1.00  0.00     0.004 A 
HETATM   22  C16 UNL     1      21.280   3.453  50.795  1.00  0.00     0.019 A 
HETATM   23  C17 UNL     1      21.838   2.517  49.927  1.00  0.00     0.013 A 
HETATM   24 BR1  UNL     1      21.946   2.871  48.065  1.00  0.00    -0.051 Br
HETATM   25  C18 UNL     1      22.292   1.351  50.508  1.00  0.00     0.048 A 
ENDBRANCH  17  19
ENDBRANCH  14  17
ENDBRANCH   4   5
ENDBRANCH   3   4
TORSDOF 4
ENDMDL
MODEL 4
REMARK VINA RESULT:      -7.9      2.830      5.146
REMARK  4 active torsions:
REMARK  status: ('A' for Active; 'I' for Inactive)
REMARK    1  A    between atoms: C3_3  and  C4_4 
REMARK    2  A    between atoms: C4_4  and  C5_5 
REMARK    3  A    between atoms: C12_14  and  N3_15 
REMARK    4  A    between atoms: N3_15  and  C13_16 
ROOT
HETATM    1  C1  UNL     1      24.056  -1.511  55.949  1.00  0.00     0.112 C 
HETATM    2  C2  UNL     1      22.934  -1.075  55.083  1.00  0.00    -0.111 C 
HETATM    3  C3  UNL     1      22.024  -0.707  54.359  1.00  0.00    -0.102 C 
ENDROOT
BRANCH   3   4
HETATM    4  C4  UNL     1      20.937  -0.247  53.512  1.00  0.00     0.132 C 
BRANCH   4   5
HETATM    5  C5  UNL     1      21.322   1.031  52.879  1.00  0.00    -0.046 A 
HETATM    6  C6  UNL     1      20.462   2.119  52.806  1.00  0.00     0.010 A 
HETATM    7  C7  UNL     1      20.841   3.306  52.210  1.00  0.00     0.033 A 
HETATM    8  C8  UNL     1      22.111   3.395  51.681  1.00  0.00     0.069 A 
HETATM    9  N1  UNL     1      22.510   4.535  51.095  1.00  0.00    -0.259 NA
HETATM   10  C19 UNL     1      22.959   2.307  51.760  1.00  0.00     0.021 A 
HETATM   11  C9  UNL     1      23.751   4.617  50.581  1.00  0.00     0.142 A 
HETATM   12  C10 UNL     1      24.638   3.543  50.638  1.00  0.00     0.089 A 
HETATM   13  C11 UNL     1      25.967   3.691  50.064  1.00  0.00     0.103 C 
HETATM   14  C12 UNL     1      24.250   2.362  51.235  1.00  0.00     0.067 A 
HETATM   15  N2  UNL     1      27.034   3.796  49.620  1.00  0.00    -0.191 NA
HETATM   16  C20 UNL     1      22.604   1.106  52.350  1.00  0.00     0.024 A 
BRANCH  14  17
HETATM   17  N3  UNL     1      25.201   1.325  51.254  1.00  0.00    -0.354 N 
HETATM   18  H9  UNL     1      25.300   0.810  50.362  1.00  0.00     0.166 HD
BRANCH  17  19
HETATM   19  C13 UNL     1      25.976   0.996  52.401  1.00  0.00     0.033 A 
HETATM   20  C14 UNL     1      25.720   1.629  53.600  1.00  0.00     0.029 A 
HETATM   21  C15 UNL     1      26.493   1.290  54.712  1.00  0.00     0.004 A 
HETATM   22  C16 UNL     1      27.486   0.327  54.552  1.00  0.00     0.019 A 
HETATM   23  C17 UNL     1      27.755  -0.321  53.349  1.00  0.00     0.013 A 
HETATM   24 BR1  UNL     1      29.134  -1.622  53.240  1.00  0.00    -0.051 Br
HETATM   25  C18 UNL     1      26.968   0.045  52.277  1.00  0.00     0.048 A 
ENDBRANCH  17  19
ENDBRANCH  14  17
ENDBRANCH   4   5
ENDBRANCH   3   4
TORSDOF 4
ENDMDL
MODEL 5
REMARK VINA RESULT:      -7.7      2.149      3.184
REMARK  4 active torsions:
REMARK  status: ('A' for Active; 'I' for Inactive)
REMARK    1  A    between atoms: C3_3  and  C4_4 
REMARK    2  A    between atoms: C4_4  and  C5_5 
REMARK    3  A    between atoms: C12_14  and  N3_15 
REMARK    4  A    between atoms: N3_15  and  C13_16 
ROOT
HETATM    1  C1  UNL     1      15.990   3.693  51.289  1.00  0.00     0.112 C 
HETATM    2  C2  UNL     1      17.021   2.700  50.903  1.00  0.00    -0.111 C 
HETATM    3  C3  UNL     1      17.884   1.894  50.595  1.00  0.00    -0.102 C 
ENDROOT
BRANCH   3   4
HETATM    4  C4  UNL     1      18.914   0.947  50.206  1.00  0.00     0.132 C 
BRANCH   4   5
HETATM    5  C5  UNL     1      19.471   0.311  51.418  1.00  0.00    -0.046 A 
HETATM    6  C6  UNL     1      18.680  -0.361  52.341  1.00  0.00     0.010 A 
HETATM    7  C7  UNL     1      19.219  -0.950  53.467  1.00  0.00     0.033 A 
HETATM    8  C8  UNL     1      20.580  -0.859  53.665  1.00  0.00     0.069 A 
HETATM    9  N1  UNL     1      21.136  -1.421  54.750  1.00  0.00    -0.259 NA
HETATM   10  C19 UNL     1      21.358  -0.188  52.740  1.00  0.00     0.021 A 
HETATM   11  C9  UNL     1      22.465  -1.329  54.937  1.00  0.00     0.142 A 
HETATM   12  C10 UNL     1      23.287  -0.661  54.030  1.00  0.00     0.089 A 
HETATM   13  C11 UNL     1      24.718  -0.594  54.286  1.00  0.00     0.103 C 
HETATM   14  C12 UNL     1      22.738  -0.076  52.908  1.00  0.00     0.067 A 
HETATM   15  N2  UNL     1      25.862  -0.541  54.470  1.00  0.00    -0.191 NA
HETATM   16  C20 UNL     1      20.844   0.412  51.603  1.00  0.00     0.024 A 
BRANCH  14  17
HETATM   17  N3  UNL     1      23.632   0.579  52.040  1.00  0.00    -0.354 N 
HETATM   18  H9  UNL     1      24.270  -0.046  51.520  1.00  0.00     0.166 HD
BRANCH  17  19
HETATM   19  C13 UNL     1      23.668   1.992  51.878  1.00  0.00     0.033 A 
HETATM   20  C14 UNL     1      23.792   2.802  52.989  1.00  0.00     0.029 A 
HETATM   21  C15 UNL     1      23.826   4.186  52.806  1.00  0.00     0.004 A 
HETATM   22  C16 UNL     1      23.732   4.678  51.506  1.00  0.00     0.019 A 
HETATM   23  C17 UNL     1      23.607   3.874  50.376  1.00  0.00     0.013 A 
HETATM   24 BR1  UNL     1      23.487   4.649  48.647  1.00  0.00    -0.051 Br
HETATM   25  C18 UNL     1      23.578   2.514  50.604  1.00  0.00     0.048 A 
ENDBRANCH  17  19
ENDBRANCH  14  17
ENDBRANCH   4   5
ENDBRANCH   3   4
TORSDOF 4
ENDMDL
MODEL 6
REMARK VINA RESULT:      -7.6      2.974      5.301
REMARK  4 active torsions:
REMARK  status: ('A' for Active; 'I' for Inactive)
REMARK    1  A    between atoms: C3_3  and  C4_4 
REMARK    2  A    between atoms: C4_4  and  C5_5 
REMARK    3  A    between atoms: C12_14  and  N3_15 
REMARK    4  A    between atoms: N3_15  and  C13_16 
ROOT
HETATM    1  C1  UNL     1      21.270   3.735  45.613  1.00  0.00     0.112 C 
HETATM    2  C2  UNL     1      22.111   3.463  46.804  1.00  0.00    -0.111 C 
HETATM    3  C3  UNL     1      22.802   3.220  47.779  1.00  0.00    -0.102 C 
ENDROOT
BRANCH   3   4
HETATM    4  C4  UNL     1      23.604   2.930  48.955  1.00  0.00     0.132 C 
BRANCH   4   5
HETATM    5  C5  UNL     1      22.709   2.586  50.080  1.00  0.00    -0.046 A 
HETATM    6  C6  UNL     1      21.477   3.197  50.269  1.00  0.00     0.010 A 
HETATM    7  C7  UNL     1      20.655   2.861  51.326  1.00  0.00     0.033 A 
HETATM    8  C8  UNL     1      21.085   1.891  52.207  1.00  0.00     0.069 A 
HETATM    9  N1  UNL     1      20.309   1.541  53.245  1.00  0.00    -0.259 NA
HETATM   10  C19 UNL     1      22.313   1.289  52.008  1.00  0.00     0.021 A 
HETATM   11  C9  UNL     1      20.734   0.593  54.100  1.00  0.00     0.142 A 
HETATM   12  C10 UNL     1      21.966  -0.039  53.938  1.00  0.00     0.089 A 
HETATM   13  C11 UNL     1      22.373  -1.056  54.896  1.00  0.00     0.103 C 
HETATM   14  C12 UNL     1      22.780   0.304  52.878  1.00  0.00     0.067 A 
HETATM   15  N2  UNL     1      22.706  -1.877  55.644  1.00  0.00    -0.191 NA
HETATM   16  C20 UNL     1      23.157   1.607  50.958  1.00  0.00     0.024 A 
BRANCH  14  17
HETATM   17  N3  UNL     1      24.007  -0.378  52.782  1.00  0.00    -0.354 N 
HETATM   18  H9  UNL     1      23.941  -1.341  52.410  1.00  0.00     0.166 HD
BRANCH  17  19
HETATM   19  C13 UNL     1      25.252   0.197  53.162  1.00  0.00     0.033 A 
HETATM   20  C14 UNL     1      25.300   1.518  53.556  1.00  0.00     0.029 A 
HETATM   21  C15 UNL     1      26.533   2.061  53.924  1.00  0.00     0.004 A 
HETATM   22  C16 UNL     1      27.654   1.236  53.874  1.00  0.00     0.019 A 
HETATM   23  C17 UNL     1      27.621  -0.099  53.479  1.00  0.00     0.013 A 
HETATM   24 BR1  UNL     1      29.211  -1.136  53.446  1.00  0.00    -0.051 Br
HETATM   25  C18 UNL     1      26.383  -0.592  53.124  1.00  0.00     0.048 A 
ENDBRANCH  17  19
ENDBRANCH  14  17
ENDBRANCH   4   5
ENDBRANCH   3   4
TORSDOF 4
ENDMDL
MODEL 7
REMARK VINA RESULT:      -7.6      3.365      6.846
REMARK  4 active torsions:
REMARK  status: ('A' for Active; 'I' for Inactive)
REMARK    1  A    between atoms: C3_3  and  C4_4 
REMARK    2  A    between atoms: C4_4  and  C5_5 
REMARK    3  A    between atoms: C12_14  and  N3_15 
REMARK    4  A    between atoms: N3_15  and  C13_16 
ROOT
HETATM    1  C1  UNL     1      28.746   7.551  47.544  1.00  0.00     0.112 C 
HETATM    2  C2  UNL     1      28.152   6.321  48.121  1.00  0.00    -0.111 C 
HETATM    3  C3  UNL     1      27.657   5.304  48.576  1.00  0.00    -0.102 C 
ENDROOT
BRANCH   3   4
HETATM    4  C4  UNL     1      27.045   4.106  49.124  1.00  0.00     0.132 C 
BRANCH   4   5
HETATM    5  C5  UNL     1      25.759   4.463  49.757  1.00  0.00    -0.046 A 
HETATM    6  C6  UNL     1      25.289   5.768  49.812  1.00  0.00     0.010 A 
HETATM    7  C7  UNL     1      24.083   6.082  50.407  1.00  0.00     0.033 A 
HETATM    8  C8  UNL     1      23.339   5.059  50.956  1.00  0.00     0.069 A 
HETATM    9  N1  UNL     1      22.162   5.330  51.542  1.00  0.00    -0.259 NA
HETATM   10  C19 UNL     1      23.815   3.763  50.895  1.00  0.00     0.021 A 
HETATM   11  C9  UNL     1      21.440   4.327  52.075  1.00  0.00     0.142 A 
HETATM   12  C10 UNL     1      21.884   3.006  52.036  1.00  0.00     0.089 A 
HETATM   13  C11 UNL     1      21.060   1.964  52.630  1.00  0.00     0.103 C 
HETATM   14  C12 UNL     1      23.090   2.704  51.438  1.00  0.00     0.067 A 
HETATM   15  N2  UNL     1      20.410   1.120  53.089  1.00  0.00    -0.191 NA
HETATM   16  C20 UNL     1      25.021   3.421  50.305  1.00  0.00     0.024 A 
BRANCH  14  17
HETATM   17  N3  UNL     1      23.469   1.348  51.439  1.00  0.00    -0.354 N 
HETATM   18  H9  UNL     1      23.093   0.792  50.653  1.00  0.00     0.166 HD
BRANCH  17  19
HETATM   19  C13 UNL     1      24.304   0.772  52.436  1.00  0.00     0.033 A 
HETATM   20  C14 UNL     1      23.775  -0.147  53.320  1.00  0.00     0.029 A 
HETATM   21  C15 UNL     1      24.613  -0.700  54.290  1.00  0.00     0.004 A 
HETATM   22  C16 UNL     1      25.945  -0.293  54.315  1.00  0.00     0.019 A 
HETATM   23  C17 UNL     1      26.494   0.632  53.430  1.00  0.00     0.013 A 
HETATM   24 BR1  UNL     1      28.325   1.117  53.551  1.00  0.00    -0.051 Br
HETATM   25  C18 UNL     1      25.629   1.152  52.489  1.00  0.00     0.048 A 
ENDBRANCH  17  19
ENDBRANCH  14  17
ENDBRANCH   4   5
ENDBRANCH   3   4
TORSDOF 4
ENDMDL
MODEL 8
REMARK VINA RESULT:      -7.5      1.806      2.358
REMARK  4 active torsions:
REMARK  status: ('A' for Active; 'I' for Inactive)
REMARK    1  A    between atoms: C3_3  and  C4_4 
REMARK    2  A    between atoms: C4_4  and  C5_5 
REMARK    3  A    between atoms: C12_14  and  N3_15 
REMARK    4  A    between atoms: N3_15  and  C13_16 
ROOT
HETATM    1  C1  UNL     1      17.049  -0.370  50.246  1.00  0.00     0.112 C 
HETATM    2  C2  UNL     1      18.010   0.528  50.930  1.00  0.00    -0.111 C 
HETATM    3  C3  UNL     1      18.808   1.272  51.475  1.00  0.00    -0.102 C 
ENDROOT
BRANCH   3   4
HETATM    4  C4  UNL     1      19.776   2.138  52.125  1.00  0.00     0.132 C 
BRANCH   4   5
HETATM    5  C5  UNL     1      20.962   1.343  52.505  1.00  0.00    -0.046 A 
HETATM    6  C6  UNL     1      20.908  -0.029  52.710  1.00  0.00     0.010 A 
HETATM    7  C7  UNL     1      22.029  -0.755  53.063  1.00  0.00     0.033 A 
HETATM    8  C8  UNL     1      23.223  -0.083  53.211  1.00  0.00     0.069 A 
HETATM    9  N1  UNL     1      24.331  -0.759  53.554  1.00  0.00    -0.259 NA
HETATM   10  C19 UNL     1      23.266   1.283  53.004  1.00  0.00     0.021 A 
HETATM   11  C9  UNL     1      25.494  -0.098  53.697  1.00  0.00     0.142 A 
HETATM   12  C10 UNL     1      25.581   1.280  53.498  1.00  0.00     0.089 A 
HETATM   13  C11 UNL     1      26.867   1.940  53.667  1.00  0.00     0.103 C 
HETATM   14  C12 UNL     1      24.456   1.995  53.144  1.00  0.00     0.067 A 
HETATM   15  N2  UNL     1      27.886   2.480  53.787  1.00  0.00    -0.191 NA
HETATM   16  C20 UNL     1      22.158   2.034  52.650  1.00  0.00     0.024 A 
BRANCH  14  17
HETATM   17  N3  UNL     1      24.624   3.380  52.962  1.00  0.00    -0.354 N 
HETATM   18  H9  UNL     1      24.873   3.904  53.818  1.00  0.00     0.166 HD
BRANCH  17  19
HETATM   19  C13 UNL     1      24.469   4.027  51.704  1.00  0.00     0.033 A 
HETATM   20  C14 UNL     1      25.045   3.474  50.578  1.00  0.00     0.029 A 
HETATM   21  C15 UNL     1      24.880   4.126  49.355  1.00  0.00     0.004 A 
HETATM   22  C16 UNL     1      24.139   5.306  49.335  1.00  0.00     0.019 A 
HETATM   23  C17 UNL     1      23.551   5.875  50.462  1.00  0.00     0.013 A 
HETATM   24 BR1  UNL     1      22.560   7.488  50.324  1.00  0.00    -0.051 Br
HETATM   25  C18 UNL     1      23.741   5.197  51.648  1.00  0.00     0.048 A 
ENDBRANCH  17  19
ENDBRANCH  14  17
ENDBRANCH   4   5
ENDBRANCH   3   4
TORSDOF 4
ENDMDL
MODEL 9
REMARK VINA RESULT:      -7.0      1.899      2.377
REMARK  4 active torsions:
REMARK  status: ('A' for Active; 'I' for Inactive)
REMARK    1  A    between atoms: C3_3  and  C4_4 
REMARK    2  A    between atoms: C4_4  and  C5_5 
REMARK    3  A    between atoms: C12_14  and  N3_15 
REMARK    4  A    between atoms: N3_15  and  C13_16 
ROOT
HETATM    1  C1  UNL     1      17.985   3.579  50.689  1.00  0.00     0.112 C 
HETATM    2  C2  UNL     1      18.203   2.234  51.275  1.00  0.00    -0.111 C 
HETATM    3  C3  UNL     1      18.401   1.129  51.750  1.00  0.00    -0.102 C 
ENDROOT
BRANCH   3   4
HETATM    4  C4  UNL     1      18.629  -0.198  52.295  1.00  0.00     0.132 C 
BRANCH   4   5
HETATM    5  C5  UNL     1      20.013  -0.281  52.807  1.00  0.00    -0.046 A 
HETATM    6  C6  UNL     1      20.349  -1.011  53.939  1.00  0.00     0.010 A 
HETATM    7  C7  UNL     1      21.648  -1.077  54.402  1.00  0.00     0.033 A 
HETATM    8  C8  UNL     1      22.625  -0.393  53.709  1.00  0.00     0.069 A 
HETATM    9  N1  UNL     1      23.897  -0.437  54.132  1.00  0.00    -0.259 NA
HETATM   10  C19 UNL     1      22.279   0.330  52.583  1.00  0.00     0.021 A 
HETATM   11  C9  UNL     1      24.846   0.232  53.452  1.00  0.00     0.142 A 
HETATM   12  C10 UNL     1      24.541   0.975  52.311  1.00  0.00     0.089 A 
HETATM   13  C11 UNL     1      25.609   1.678  51.617  1.00  0.00     0.103 C 
HETATM   14  C12 UNL     1      23.240   1.033  51.858  1.00  0.00     0.067 A 
HETATM   15  N2  UNL     1      26.451   2.235  51.045  1.00  0.00    -0.191 NA
HETATM   16  C20 UNL     1      20.985   0.413  52.098  1.00  0.00     0.024 A 
BRANCH  14  17
HETATM   17  N3  UNL     1      23.012   1.803  50.701  1.00  0.00    -0.354 N 
HETATM   18  H9  UNL     1      23.326   1.365  49.819  1.00  0.00     0.166 HD
BRANCH  17  19
HETATM   19  C13 UNL     1      22.398   3.086  50.726  1.00  0.00     0.033 A 
HETATM   20  C14 UNL     1      22.330   3.787  51.913  1.00  0.00     0.029 A 
HETATM   21  C15 UNL     1      21.723   5.044  51.913  1.00  0.00     0.004 A 
HETATM   22  C16 UNL     1      21.216   5.527  50.710  1.00  0.00     0.019 A 
HETATM   23  C17 UNL     1      21.277   4.833  49.504  1.00  0.00     0.013 A 
HETATM   24 BR1  UNL     1      20.553   5.585  47.918  1.00  0.00    -0.051 Br
HETATM   25  C18 UNL     1      21.885   3.595  49.551  1.00  0.00     0.048 A 
ENDBRANCH  17  19
ENDBRANCH  14  17
ENDBRANCH   4   5
ENDBRANCH   3   4
TORSDOF 4
ENDMDL
