MODEL 1
REMARK VINA RESULT:      -8.9      0.000      0.000
REMARK  4 active torsions:
REMARK  status: ('A' for Active; 'I' for Inactive)
REMARK    1  A    between atoms: C3_4  and  N2_5 
REMARK    2  A    between atoms: N2_5  and  C4_6 
REMARK    3  A    between atoms: C6_8  and  N3_9 
REMARK       I    between atoms: N3_9  and  C7_10 
REMARK    4  A    between atoms: C7_10  and  C8_12 
ROOT
HETATM    1  C4  UNL     1      24.898   1.358  52.923  1.00  0.00     0.057 A 
HETATM    2  C5  UNL     1      25.423   2.463  52.291  1.00  0.00     0.060 A 
HETATM    3  C6  UNL     1      24.829   3.141  51.257  1.00  0.00     0.037 A 
HETATM    4  C14 UNL     1      23.610   2.711  50.787  1.00  0.00     0.030 A 
HETATM    5  C15 UNL     1      23.039   1.612  51.382  1.00  0.00     0.011 A 
HETATM    6  C16 UNL     1      23.661   0.971  52.403  1.00  0.00    -0.035 A 
HETATM    7  C17 UNL     1      22.991  -0.210  53.003  1.00  0.00     0.050 C 
ENDROOT
BRANCH   3   8
HETATM    8  N3  UNL     1      25.416   4.274  50.641  1.00  0.00    -0.323 N 
HETATM    9  C7  UNL     1      26.339   3.965  49.597  1.00  0.00     0.256 C 
HETATM   10  O1  UNL     1      26.491   2.754  49.383  1.00  0.00    -0.267 OA
HETATM   11  H6  UNL     1      25.163   5.235  50.959  1.00  0.00     0.169 HD
BRANCH   9  12
HETATM   12  C8  UNL     1      26.994   5.070  48.904  1.00  0.00     0.032 A 
HETATM   13  C9  UNL     1      28.337   5.192  48.554  1.00  0.00     0.017 A 
HETATM   14  C10 UNL     1      28.747   6.331  47.898  1.00  0.00     0.001 A 
HETATM   15  C11 UNL     1      27.918   7.353  47.565  1.00  0.00     0.000 A 
HETATM   16  C12 UNL     1      26.578   7.250  47.906  1.00  0.00     0.001 A 
HETATM   17  C13 UNL     1      26.118   6.111  48.573  1.00  0.00     0.017 A 
ENDBRANCH   9  12
ENDBRANCH   3   8
BRANCH   1  18
HETATM   18  N2  UNL     1      25.513   0.655  53.991  1.00  0.00    -0.188 N 
HETATM   19  H4  UNL     1      24.856   0.310  54.752  1.00  0.00     0.184 HD
BRANCH  18  20
HETATM   20  C3  UNL     1      26.881   0.380  54.129  1.00  0.00     0.722 A 
HETATM   21  N1  UNL     1      27.517  -0.761  53.519  1.00  0.00    -0.071 NA
HETATM   22  C2  UNL     1      28.773  -0.701  53.857  1.00  0.00     0.048 A 
HETATM   23  C1  UNL     1      29.870  -1.640  53.490  1.00  0.00     0.068 C 
HETATM   24  C18 UNL     1      28.991   0.498  54.707  1.00  0.00     0.223 A 
HETATM   25  N4  UNL     1      27.677   1.103  54.800  1.00  0.00    -0.100 NA
ENDBRANCH  18  20
ENDBRANCH   1  18
TORSDOF 4
ENDMDL
MODEL 2
REMARK VINA RESULT:      -8.5      1.380      2.081
REMARK  4 active torsions:
REMARK  status: ('A' for Active; 'I' for Inactive)
REMARK    1  A    between atoms: C3_4  and  N2_5 
REMARK    2  A    between atoms: N2_5  and  C4_6 
REMARK    3  A    between atoms: C6_8  and  N3_9 
REMARK       I    between atoms: N3_9  and  C7_10 
REMARK    4  A    between atoms: C7_10  and  C8_12 
ROOT
HETATM    1  C4  UNL     1      24.203   0.183  53.240  1.00  0.00     0.057 A 
HETATM    2  C5  UNL     1      24.598   1.090  52.283  1.00  0.00     0.060 A 
HETATM    3  C6  UNL     1      23.775   1.664  51.348  1.00  0.00     0.037 A 
HETATM    4  C14 UNL     1      22.440   1.330  51.336  1.00  0.00     0.030 A 
HETATM    5  C15 UNL     1      21.991   0.429  52.270  1.00  0.00     0.011 A 
HETATM    6  C16 UNL     1      22.840  -0.115  53.178  1.00  0.00    -0.035 A 
HETATM    7  C17 UNL     1      22.292  -1.082  54.161  1.00  0.00     0.050 C 
ENDROOT
BRANCH   3   8
HETATM    8  N3  UNL     1      24.235   2.593  50.382  1.00  0.00    -0.323 N 
HETATM    9  C7  UNL     1      24.362   3.930  50.867  1.00  0.00     0.256 C 
HETATM   10  O1  UNL     1      24.053   4.081  52.057  1.00  0.00    -0.267 OA
HETATM   11  H6  UNL     1      24.449   2.280  49.411  1.00  0.00     0.169 HD
BRANCH   9  12
HETATM   12  C8  UNL     1      24.830   4.958  49.942  1.00  0.00     0.032 A 
HETATM   13  C9  UNL     1      24.113   6.027  49.409  1.00  0.00     0.017 A 
HETATM   14  C10 UNL     1      24.755   6.887  48.545  1.00  0.00     0.001 A 
HETATM   15  C11 UNL     1      26.054   6.759  48.177  1.00  0.00     0.000 A 
HETATM   16  C12 UNL     1      26.784   5.701  48.697  1.00  0.00     0.001 A 
HETATM   17  C13 UNL     1      26.173   4.803  49.577  1.00  0.00     0.017 A 
ENDBRANCH   9  12
ENDBRANCH   3   8
BRANCH   1  18
HETATM   18  N2  UNL     1      25.054  -0.413  54.206  1.00  0.00    -0.188 N 
HETATM   19  H4  UNL     1      24.575  -1.041  54.916  1.00  0.00     0.184 HD
BRANCH  18  20
HETATM   20  C3  UNL     1      26.444  -0.251  54.305  1.00  0.00     0.722 A 
HETATM   21  N1  UNL     1      27.383  -1.066  53.575  1.00  0.00    -0.071 NA
HETATM   22  C2  UNL     1      28.568  -0.642  53.908  1.00  0.00     0.048 A 
HETATM   23  C1  UNL     1      29.889  -1.144  53.437  1.00  0.00     0.068 C 
HETATM   24  C18 UNL     1      28.430   0.476  54.876  1.00  0.00     0.223 A 
HETATM   25  N4  UNL     1      26.997   0.620  55.042  1.00  0.00    -0.100 NA
ENDBRANCH  18  20
ENDBRANCH   1  18
TORSDOF 4
ENDMDL
MODEL 3
REMARK VINA RESULT:      -8.3      1.029      1.459
REMARK  4 active torsions:
REMARK  status: ('A' for Active; 'I' for Inactive)
REMARK    1  A    between atoms: C3_4  and  N2_5 
REMARK    2  A    between atoms: N2_5  and  C4_6 
REMARK    3  A    between atoms: C6_8  and  N3_9 
REMARK       I    between atoms: N3_9  and  C7_10 
REMARK    4  A    between atoms: C7_10  and  C8_12 
ROOT
HETATM    1  C4  UNL     1      24.962   1.470  52.113  1.00  0.00     0.057 A 
HETATM    2  C5  UNL     1      25.789   2.193  51.282  1.00  0.00     0.060 A 
HETATM    3  C6  UNL     1      25.381   2.906  50.184  1.00  0.00     0.037 A 
HETATM    4  C14 UNL     1      24.045   2.924  49.855  1.00  0.00     0.030 A 
HETATM    5  C15 UNL     1      23.175   2.219  50.651  1.00  0.00     0.011 A 
HETATM    6  C16 UNL     1      23.621   1.527  51.728  1.00  0.00    -0.035 A 
HETATM    7  C17 UNL     1      22.629   0.786  52.547  1.00  0.00     0.050 C 
ENDROOT
BRANCH   3   8
HETATM    8  N3  UNL     1      26.276   3.634  49.361  1.00  0.00    -0.323 N 
HETATM    9  C7  UNL     1      26.149   5.052  49.463  1.00  0.00     0.256 C 
HETATM   10  O1  UNL     1      25.277   5.437  50.254  1.00  0.00    -0.267 OA
HETATM   11  H6  UNL     1      26.954   3.131  48.748  1.00  0.00     0.169 HD
BRANCH   9  12
HETATM   12  C8  UNL     1      27.031   5.885  48.650  1.00  0.00     0.032 A 
HETATM   13  C9  UNL     1      26.732   7.087  48.012  1.00  0.00     0.017 A 
HETATM   14  C10 UNL     1      27.723   7.713  47.289  1.00  0.00     0.001 A 
HETATM   15  C11 UNL     1      28.985   7.231  47.158  1.00  0.00     0.000 A 
HETATM   16  C12 UNL     1      29.300   6.035  47.786  1.00  0.00     0.001 A 
HETATM   17  C13 UNL     1      28.325   5.365  48.531  1.00  0.00     0.017 A 
ENDBRANCH   9  12
ENDBRANCH   3   8
BRANCH   1  18
HETATM   18  N2  UNL     1      25.384   0.731  53.247  1.00  0.00    -0.188 N 
HETATM   19  H4  UNL     1      24.607   0.290  53.824  1.00  0.00     0.184 HD
BRANCH  18  20
HETATM   20  C3  UNL     1      26.707   0.531  53.668  1.00  0.00     0.722 A 
HETATM   21  N1  UNL     1      27.553  -0.506  53.131  1.00  0.00    -0.071 NA
HETATM   22  C2  UNL     1      28.696  -0.396  53.746  1.00  0.00     0.048 A 
HETATM   23  C1  UNL     1      29.920  -1.226  53.563  1.00  0.00     0.068 C 
HETATM   24  C18 UNL     1      28.624   0.730  54.711  1.00  0.00     0.223 A 
HETATM   25  N4  UNL     1      27.275   1.239  54.553  1.00  0.00    -0.100 NA
ENDBRANCH  18  20
ENDBRANCH   1  18
TORSDOF 4
ENDMDL
MODEL 4
REMARK VINA RESULT:      -7.9      3.248      6.978
REMARK  4 active torsions:
REMARK  status: ('A' for Active; 'I' for Inactive)
REMARK    1  A    between atoms: C3_4  and  N2_5 
REMARK    2  A    between atoms: N2_5  and  C4_6 
REMARK    3  A    between atoms: C6_8  and  N3_9 
REMARK       I    between atoms: N3_9  and  C7_10 
REMARK    4  A    between atoms: C7_10  and  C8_12 
ROOT
HETATM    1  C4  UNL     1      24.765   2.606  51.723  1.00  0.00     0.057 A 
HETATM    2  C5  UNL     1      23.728   1.721  51.911  1.00  0.00     0.060 A 
HETATM    3  C6  UNL     1      22.746   1.445  50.995  1.00  0.00     0.037 A 
HETATM    4  C14 UNL     1      22.766   2.086  49.778  1.00  0.00     0.030 A 
HETATM    5  C15 UNL     1      23.780   2.981  49.536  1.00  0.00     0.011 A 
HETATM    6  C16 UNL     1      24.732   3.223  50.471  1.00  0.00    -0.035 A 
HETATM    7  C17 UNL     1      25.801   4.202  50.147  1.00  0.00     0.050 C 
ENDROOT
BRANCH   3   8
HETATM    8  N3  UNL     1      21.698   0.523  51.242  1.00  0.00    -0.323 N 
HETATM    9  C7  UNL     1      20.582   1.074  51.940  1.00  0.00     0.256 C 
HETATM   10  O1  UNL     1      20.692   2.274  52.228  1.00  0.00    -0.267 OA
HETATM   11  H6  UNL     1      21.781  -0.466  50.921  1.00  0.00     0.169 HD
BRANCH   9  12
HETATM   12  C8  UNL     1      19.454   0.197  52.240  1.00  0.00     0.032 A 
HETATM   13  C9  UNL     1      19.313  -0.690  53.305  1.00  0.00     0.017 A 
HETATM   14  C10 UNL     1      18.154  -1.429  53.398  1.00  0.00     0.001 A 
HETATM   15  C11 UNL     1      17.130  -1.347  52.512  1.00  0.00     0.000 A 
HETATM   16  C12 UNL     1      17.253  -0.469  51.445  1.00  0.00     0.001 A 
HETATM   17  C13 UNL     1      18.412   0.301  51.311  1.00  0.00     0.017 A 
ENDBRANCH   9  12
ENDBRANCH   3   8
BRANCH   1  18
HETATM   18  N2  UNL     1      25.780   2.893  52.671  1.00  0.00    -0.188 N 
HETATM   19  H4  UNL     1      25.888   3.918  52.933  1.00  0.00     0.184 HD
BRANCH  18  20
HETATM   20  C3  UNL     1      26.636   1.966  53.283  1.00  0.00     0.722 A 
HETATM   21  N1  UNL     1      27.936   1.631  52.755  1.00  0.00    -0.071 NA
HETATM   22  C2  UNL     1      28.441   0.748  53.568  1.00  0.00     0.048 A 
HETATM   23  C1  UNL     1      29.766   0.073  53.482  1.00  0.00     0.068 C 
HETATM   24  C18 UNL     1      27.472   0.483  54.662  1.00  0.00     0.223 A 
HETATM   25  N4  UNL     1      26.347   1.343  54.348  1.00  0.00    -0.100 NA
ENDBRANCH  18  20
ENDBRANCH   1  18
TORSDOF 4
ENDMDL
MODEL 5
REMARK VINA RESULT:      -7.9      2.007      6.991
REMARK  4 active torsions:
REMARK  status: ('A' for Active; 'I' for Inactive)
REMARK    1  A    between atoms: C3_4  and  N2_5 
REMARK    2  A    between atoms: N2_5  and  C4_6 
REMARK    3  A    between atoms: C6_8  and  N3_9 
REMARK       I    between atoms: N3_9  and  C7_10 
REMARK    4  A    between atoms: C7_10  and  C8_12 
ROOT
HETATM    1  C4  UNL     1      24.846   4.488  50.289  1.00  0.00     0.057 A 
HETATM    2  C5  UNL     1      25.314   3.219  50.545  1.00  0.00     0.060 A 
HETATM    3  C6  UNL     1      24.997   2.465  51.646  1.00  0.00     0.037 A 
HETATM    4  C14 UNL     1      24.145   2.985  52.592  1.00  0.00     0.030 A 
HETATM    5  C15 UNL     1      23.646   4.249  52.386  1.00  0.00     0.011 A 
HETATM    6  C16 UNL     1      23.986   4.960  51.282  1.00  0.00    -0.035 A 
HETATM    7  C17 UNL     1      23.413   6.320  51.119  1.00  0.00     0.050 C 
ENDROOT
BRANCH   3   8
HETATM    8  N3  UNL     1      25.510   1.161  51.861  1.00  0.00    -0.323 N 
HETATM    9  C7  UNL     1      26.827   1.131  52.412  1.00  0.00     0.256 C 
HETATM   10  O1  UNL     1      27.326   2.245  52.620  1.00  0.00    -0.267 OA
HETATM   11  H6  UNL     1      24.936   0.324  51.621  1.00  0.00     0.169 HD
BRANCH   9  12
HETATM   12  C8  UNL     1      27.438  -0.170  52.668  1.00  0.00     0.032 A 
HETATM   13  C9  UNL     1      26.888  -1.434  52.464  1.00  0.00     0.017 A 
HETATM   14  C10 UNL     1      27.647  -2.541  52.777  1.00  0.00     0.001 A 
HETATM   15  C11 UNL     1      28.908  -2.479  53.272  1.00  0.00     0.000 A 
HETATM   16  C12 UNL     1      29.472  -1.229  53.481  1.00  0.00     0.001 A 
HETATM   17  C13 UNL     1      28.738  -0.078  53.178  1.00  0.00     0.017 A 
ENDBRANCH   9  12
ENDBRANCH   3   8
BRANCH   1  18
HETATM   18  N2  UNL     1      25.175   5.269  49.151  1.00  0.00    -0.188 N 
HETATM   19  H4  UNL     1      24.380   5.444  48.468  1.00  0.00     0.184 HD
BRANCH  18  20
HETATM   20  C3  UNL     1      26.429   5.820  48.853  1.00  0.00     0.722 A 
HETATM   21  N1  UNL     1      27.580   5.018  48.520  1.00  0.00    -0.071 NA
HETATM   22  C2  UNL     1      28.556   5.854  48.309  1.00  0.00     0.048 A 
HETATM   23  C1  UNL     1      29.965   5.545  47.932  1.00  0.00     0.068 C 
HETATM   24  C18 UNL     1      28.060   7.241  48.500  1.00  0.00     0.223 A 
HETATM   25  N4  UNL     1      26.664   7.066  48.851  1.00  0.00    -0.100 NA
ENDBRANCH  18  20
ENDBRANCH   1  18
TORSDOF 4
ENDMDL
MODEL 6
REMARK VINA RESULT:      -7.8      1.790      6.565
REMARK  4 active torsions:
REMARK  status: ('A' for Active; 'I' for Inactive)
REMARK    1  A    between atoms: C3_4  and  N2_5 
REMARK    2  A    between atoms: N2_5  and  C4_6 
REMARK    3  A    between atoms: C6_8  and  N3_9 
REMARK       I    between atoms: N3_9  and  C7_10 
REMARK    4  A    between atoms: C7_10  and  C8_12 
ROOT
HETATM    1  C4  UNL     1      23.003   3.604  52.131  1.00  0.00     0.057 A 
HETATM    2  C5  UNL     1      24.147   3.004  52.606  1.00  0.00     0.060 A 
HETATM    3  C6  UNL     1      24.219   1.736  53.124  1.00  0.00     0.037 A 
HETATM    4  C14 UNL     1      23.077   0.973  53.190  1.00  0.00     0.030 A 
HETATM    5  C15 UNL     1      21.906   1.523  52.729  1.00  0.00     0.011 A 
HETATM    6  C16 UNL     1      21.879   2.782  52.224  1.00  0.00    -0.035 A 
HETATM    7  C17 UNL     1      20.581   3.317  51.742  1.00  0.00     0.050 C 
ENDROOT
BRANCH   3   8
HETATM    8  N3  UNL     1      25.426   1.166  53.601  1.00  0.00    -0.323 N 
HETATM    9  C7  UNL     1      26.352   0.807  52.576  1.00  0.00     0.256 C 
HETATM   10  O1  UNL     1      25.967   1.045  51.423  1.00  0.00    -0.267 OA
HETATM   11  H6  UNL     1      25.580   1.039  54.625  1.00  0.00     0.169 HD
BRANCH   9  12
HETATM   12  C8  UNL     1      27.625   0.211  52.973  1.00  0.00     0.032 A 
HETATM   13  C9  UNL     1      28.773   0.857  53.425  1.00  0.00     0.017 A 
HETATM   14  C10 UNL     1      29.875   0.095  53.748  1.00  0.00     0.001 A 
HETATM   15  C11 UNL     1      29.912  -1.258  53.656  1.00  0.00     0.000 A 
HETATM   16  C12 UNL     1      28.778  -1.918  53.207  1.00  0.00     0.001 A 
HETATM   17  C13 UNL     1      27.637  -1.185  52.868  1.00  0.00     0.017 A 
ENDBRANCH   9  12
ENDBRANCH   3   8
BRANCH   1  18
HETATM   18  N2  UNL     1      22.927   4.916  51.597  1.00  0.00    -0.188 N 
HETATM   19  H4  UNL     1      21.975   5.386  51.666  1.00  0.00     0.184 HD
BRANCH  18  20
HETATM   20  C3  UNL     1      23.972   5.636  51.001  1.00  0.00     0.722 A 
HETATM   21  N1  UNL     1      24.801   5.092  49.954  1.00  0.00    -0.071 NA
HETATM   22  C2  UNL     1      25.656   6.025  49.646  1.00  0.00     0.048 A 
HETATM   23  C1  UNL     1      26.737   5.979  48.622  1.00  0.00     0.068 C 
HETATM   24  C18 UNL     1      25.402   7.217  50.495  1.00  0.00     0.223 A 
HETATM   25  N4  UNL     1      24.282   6.821  51.327  1.00  0.00    -0.100 NA
ENDBRANCH  18  20
ENDBRANCH   1  18
TORSDOF 4
ENDMDL
MODEL 7
REMARK VINA RESULT:      -7.5      3.113      6.815
REMARK  4 active torsions:
REMARK  status: ('A' for Active; 'I' for Inactive)
REMARK    1  A    between atoms: C3_4  and  N2_5 
REMARK    2  A    between atoms: N2_5  and  C4_6 
REMARK    3  A    between atoms: C6_8  and  N3_9 
REMARK       I    between atoms: N3_9  and  C7_10 
REMARK    4  A    between atoms: C7_10  and  C8_12 
ROOT
HETATM    1  C4  UNL     1      24.834   2.849  51.535  1.00  0.00     0.057 A 
HETATM    2  C5  UNL     1      23.535   2.483  51.811  1.00  0.00     0.060 A 
HETATM    3  C6  UNL     1      22.501   2.493  50.909  1.00  0.00     0.037 A 
HETATM    4  C14 UNL     1      22.744   2.894  49.616  1.00  0.00     0.030 A 
HETATM    5  C15 UNL     1      24.023   3.269  49.285  1.00  0.00     0.011 A 
HETATM    6  C16 UNL     1      25.017   3.244  50.209  1.00  0.00    -0.035 A 
HETATM    7  C17 UNL     1      26.378   3.662  49.787  1.00  0.00     0.050 C 
ENDROOT
BRANCH   3   8
HETATM    8  N3  UNL     1      21.180   2.107  51.247  1.00  0.00    -0.323 N 
HETATM    9  C7  UNL     1      20.973   0.696  51.291  1.00  0.00     0.256 C 
HETATM   10  O1  UNL     1      21.975   0.017  51.028  1.00  0.00    -0.267 OA
HETATM   11  H6  UNL     1      20.453   2.831  51.439  1.00  0.00     0.169 HD
BRANCH   9  12
HETATM   12  C8  UNL     1      19.641   0.203  51.631  1.00  0.00     0.032 A 
HETATM   13  C9  UNL     1      18.456   0.363  50.915  1.00  0.00     0.017 A 
HETATM   14  C10 UNL     1      17.300  -0.188  51.422  1.00  0.00     0.001 A 
HETATM   15  C11 UNL     1      17.241  -0.885  52.585  1.00  0.00     0.000 A 
HETATM   16  C12 UNL     1      18.410  -1.054  53.311  1.00  0.00     0.001 A 
HETATM   17  C13 UNL     1      19.607  -0.511  52.834  1.00  0.00     0.017 A 
ENDBRANCH   9  12
ENDBRANCH   3   8
BRANCH   1  18
HETATM   18  N2  UNL     1      25.902   2.841  52.467  1.00  0.00    -0.188 N 
HETATM   19  H4  UNL     1      26.296   3.795  52.723  1.00  0.00     0.184 HD
BRANCH  18  20
HETATM   20  C3  UNL     1      26.474   1.712  53.071  1.00  0.00     0.722 A 
HETATM   21  N1  UNL     1      26.788   0.507  52.343  1.00  0.00    -0.071 NA
HETATM   22  C2  UNL     1      27.296  -0.319  53.211  1.00  0.00     0.048 A 
HETATM   23  C1  UNL     1      27.788  -1.707  52.979  1.00  0.00     0.068 C 
HETATM   24  C18 UNL     1      27.330   0.334  54.544  1.00  0.00     0.223 A 
HETATM   25  N4  UNL     1      26.765   1.648  54.303  1.00  0.00    -0.100 NA
ENDBRANCH  18  20
ENDBRANCH   1  18
TORSDOF 4
ENDMDL
MODEL 8
REMARK VINA RESULT:      -7.5      3.226      6.950
REMARK  4 active torsions:
REMARK  status: ('A' for Active; 'I' for Inactive)
REMARK    1  A    between atoms: C3_4  and  N2_5 
REMARK    2  A    between atoms: N2_5  and  C4_6 
REMARK    3  A    between atoms: C6_8  and  N3_9 
REMARK       I    between atoms: N3_9  and  C7_10 
REMARK    4  A    between atoms: C7_10  and  C8_12 
ROOT
HETATM    1  C4  UNL     1      22.360   2.474  52.134  1.00  0.00     0.057 A 
HETATM    2  C5  UNL     1      23.412   1.586  52.143  1.00  0.00     0.060 A 
HETATM    3  C6  UNL     1      24.701   1.880  51.778  1.00  0.00     0.037 A 
HETATM    4  C14 UNL     1      25.005   3.156  51.365  1.00  0.00     0.030 A 
HETATM    5  C15 UNL     1      23.992   4.085  51.336  1.00  0.00     0.011 A 
HETATM    6  C16 UNL     1      22.731   3.750  51.706  1.00  0.00    -0.035 A 
HETATM    7  C17 UNL     1      21.683   4.800  51.653  1.00  0.00     0.050 C 
ENDROOT
BRANCH   3   8
HETATM    8  N3  UNL     1      25.747   0.925  51.806  1.00  0.00    -0.323 N 
HETATM    9  C7  UNL     1      26.463   0.873  53.040  1.00  0.00     0.256 C 
HETATM   10  O1  UNL     1      26.066   1.668  53.903  1.00  0.00    -0.267 OA
HETATM   11  H6  UNL     1      25.940   0.332  50.970  1.00  0.00     0.169 HD
BRANCH   9  12
HETATM   12  C8  UNL     1      27.561  -0.083  53.161  1.00  0.00     0.032 A 
HETATM   13  C9  UNL     1      28.875   0.162  53.554  1.00  0.00     0.017 A 
HETATM   14  C10 UNL     1      29.757  -0.896  53.600  1.00  0.00     0.001 A 
HETATM   15  C11 UNL     1      29.424  -2.173  53.285  1.00  0.00     0.000 A 
HETATM   16  C12 UNL     1      28.120  -2.435  52.892  1.00  0.00     0.001 A 
HETATM   17  C13 UNL     1      27.191  -1.392  52.831  1.00  0.00     0.017 A 
ENDBRANCH   9  12
ENDBRANCH   3   8
BRANCH   1  18
HETATM   18  N2  UNL     1      21.027   2.170  52.509  1.00  0.00    -0.188 N 
HETATM   19  H4  UNL     1      20.327   2.963  52.405  1.00  0.00     0.184 HD
BRANCH  18  20
HETATM   20  C3  UNL     1      20.557   0.941  52.994  1.00  0.00     0.722 A 
HETATM   21  N1  UNL     1      19.263   0.404  52.649  1.00  0.00    -0.071 NA
HETATM   22  C2  UNL     1      19.165  -0.735  53.273  1.00  0.00     0.048 A 
HETATM   23  C1  UNL     1      18.026  -1.696  53.257  1.00  0.00     0.068 C 
HETATM   24  C18 UNL     1      20.409  -0.974  54.049  1.00  0.00     0.223 A 
HETATM   25  N4  UNL     1      21.221   0.195  53.775  1.00  0.00    -0.100 NA
ENDBRANCH  18  20
ENDBRANCH   1  18
TORSDOF 4
ENDMDL
MODEL 9
REMARK VINA RESULT:      -7.4      3.572      6.925
REMARK  4 active torsions:
REMARK  status: ('A' for Active; 'I' for Inactive)
REMARK    1  A    between atoms: C3_4  and  N2_5 
REMARK    2  A    between atoms: N2_5  and  C4_6 
REMARK    3  A    between atoms: C6_8  and  N3_9 
REMARK       I    between atoms: N3_9  and  C7_10 
REMARK    4  A    between atoms: C7_10  and  C8_12 
ROOT
HETATM    1  C4  UNL     1      21.275   0.067  52.090  1.00  0.00     0.057 A 
HETATM    2  C5  UNL     1      22.622   0.047  52.372  1.00  0.00     0.060 A 
HETATM    3  C6  UNL     1      23.179  -0.394  53.545  1.00  0.00     0.037 A 
HETATM    4  C14 UNL     1      22.356  -0.860  54.544  1.00  0.00     0.030 A 
HETATM    5  C15 UNL     1      21.001  -0.862  54.316  1.00  0.00     0.011 A 
HETATM    6  C16 UNL     1      20.492  -0.418  53.139  1.00  0.00    -0.035 A 
HETATM    7  C17 UNL     1      19.019  -0.447  52.956  1.00  0.00     0.050 C 
ENDROOT
BRANCH   3   8
HETATM    8  N3  UNL     1      24.576  -0.392  53.784  1.00  0.00    -0.323 N 
HETATM    9  C7  UNL     1      25.184   0.897  53.710  1.00  0.00     0.256 C 
HETATM   10  O1  UNL     1      24.403   1.823  53.448  1.00  0.00    -0.267 OA
HETATM   11  H6  UNL     1      25.075  -1.284  53.992  1.00  0.00     0.169 HD
BRANCH   9  12
HETATM   12  C8  UNL     1      26.622   0.997  53.941  1.00  0.00     0.032 A 
HETATM   13  C9  UNL     1      27.450   0.098  54.610  1.00  0.00     0.017 A 
HETATM   14  C10 UNL     1      28.792   0.391  54.714  1.00  0.00     0.001 A 
HETATM   15  C11 UNL     1      29.365   1.509  54.202  1.00  0.00     0.000 A 
HETATM   16  C12 UNL     1      28.556   2.415  53.533  1.00  0.00     0.001 A 
HETATM   17  C13 UNL     1      27.188   2.159  53.403  1.00  0.00     0.017 A 
ENDBRANCH   9  12
ENDBRANCH   3   8
BRANCH   1  18
HETATM   18  N2  UNL     1      20.698   0.525  50.877  1.00  0.00    -0.188 N 
HETATM   19  H4  UNL     1      20.072  -0.172  50.374  1.00  0.00     0.184 HD
BRANCH  18  20
HETATM   20  C3  UNL     1      20.875   1.788  50.294  1.00  0.00     0.722 A 
HETATM   21  N1  UNL     1      21.941   2.084  49.369  1.00  0.00    -0.071 NA
HETATM   22  C2  UNL     1      21.798   3.335  49.039  1.00  0.00     0.048 A 
HETATM   23  C1  UNL     1      22.638   4.140  48.108  1.00  0.00     0.068 C 
HETATM   24  C18 UNL     1      20.619   3.894  49.748  1.00  0.00     0.223 A 
HETATM   25  N4  UNL     1      20.119   2.779  50.527  1.00  0.00    -0.100 NA
ENDBRANCH  18  20
ENDBRANCH   1  18
TORSDOF 4
ENDMDL
