MODEL 1
REMARK VINA RESULT:      -8.4      0.000      0.000
REMARK  8 active torsions:
REMARK  status: ('A' for Active; 'I' for Inactive)
REMARK    1  A    between atoms: C2_2  and  N1_3 
REMARK    2  A    between atoms: N1_3  and  C3_4 
REMARK    3  A    between atoms: C6_7  and  N2_8 
REMARK       I    between atoms: N2_8  and  C7_9 
REMARK    4  A    between atoms: C7_9  and  C8_11 
REMARK    5  A    between atoms: C15_18  and  C16_19 
REMARK    6  A    between atoms: C16_19  and  N3_20 
REMARK    7  A    between atoms: C16_19  and  N4_21 
REMARK    8  A    between atoms: C17_22  and  C18_23 
ROOT
HETATM    1  C3  UNL     1      22.680   3.791  51.075  1.00  0.00     0.042 A 
HETATM    2  C4  UNL     1      22.321   2.488  51.330  1.00  0.00     0.032 A 
HETATM    3  C5  UNL     1      23.333   1.610  51.731  1.00  0.00     0.032 A 
HETATM    4  C6  UNL     1      24.639   2.050  51.861  1.00  0.00     0.035 A 
HETATM    5  C14 UNL     1      24.900   3.381  51.581  1.00  0.00     0.043 A 
HETATM    6  C15 UNL     1      23.954   4.299  51.183  1.00  0.00     0.024 A 
ENDROOT
BRANCH   6   7
HETATM    7  C16 UNL     1      24.284   5.719  50.893  1.00  0.00     0.374 C 
BRANCH   7   8
HETATM    8  N3  UNL     1      24.190   6.572  52.051  1.00  0.00     0.107 N 
HETATM    9  H15 UNL     1      25.101   6.972  52.340  1.00  0.00     0.316 HD
HETATM   10  H16 UNL     1      23.735   6.104  52.857  1.00  0.00     0.316 HD
ENDBRANCH   7   8
BRANCH   7  11
HETATM   11  N4  UNL     1      25.528   5.860  50.190  1.00  0.00    -0.261 NA
HETATM   12  C17 UNL     1      25.689   5.854  48.923  1.00  0.00     0.126 C 
BRANCH  12  13
HETATM   13  C18 UNL     1      27.085   6.020  48.499  1.00  0.00    -0.002 A 
HETATM   14  C19 UNL     1      27.537   7.220  47.987  1.00  0.00     0.016 A 
HETATM   15  C20 UNL     1      28.849   7.434  47.569  1.00  0.00     0.020 A 
HETATM   16  C21 UNL     1      29.728   6.363  47.687  1.00  0.00     0.116 A 
HETATM   17  N5  UNL     1      29.299   5.188  48.185  1.00  0.00    -0.272 NA
HETATM   18  C22 UNL     1      28.021   5.000  48.585  1.00  0.00     0.129 A 
ENDBRANCH  12  13
ENDBRANCH   7  11
ENDBRANCH   6   7
BRANCH   1  19
HETATM   19  N1  UNL     1      21.612   4.623  50.676  1.00  0.00    -0.366 N 
HETATM   20  H4  UNL     1      21.150   5.487  51.031  1.00  0.00     0.165 HD
BRANCH  19  21
HETATM   21  C2  UNL     1      20.858   4.357  49.502  1.00  0.00     0.078 C 
HETATM   22  C1  UNL     1      20.600   5.296  48.594  1.00  0.00     0.029 C 
ENDBRANCH  19  21
ENDBRANCH   1  19
BRANCH   4  23
HETATM   23  N2  UNL     1      25.683   1.173  52.266  1.00  0.00    -0.323 N 
HETATM   24  C7  UNL     1      26.554   1.023  53.353  1.00  0.00     0.256 C 
HETATM   25  O1  UNL     1      26.389   1.898  54.241  1.00  0.00    -0.267 OA
HETATM   26  H7  UNL     1      25.624   0.579  51.412  1.00  0.00     0.169 HD
BRANCH  24  27
HETATM   27  C8  UNL     1      27.501  -0.086  53.317  1.00  0.00     0.032 A 
HETATM   28  C9  UNL     1      28.828  -0.092  53.687  1.00  0.00     0.017 A 
HETATM   29  C10 UNL     1      29.540  -1.267  53.567  1.00  0.00     0.001 A 
HETATM   30  C11 UNL     1      28.951  -2.422  53.086  1.00  0.00     0.000 A 
HETATM   31  C12 UNL     1      27.612  -2.436  52.707  1.00  0.00     0.001 A 
HETATM   32  C13 UNL     1      26.910  -1.243  52.835  1.00  0.00     0.017 A 
ENDBRANCH  24  27
ENDBRANCH   4  23
TORSDOF 8
ENDMDL
MODEL 2
REMARK VINA RESULT:      -8.3      3.403      6.111
REMARK  8 active torsions:
REMARK  status: ('A' for Active; 'I' for Inactive)
REMARK    1  A    between atoms: C2_2  and  N1_3 
REMARK    2  A    between atoms: N1_3  and  C3_4 
REMARK    3  A    between atoms: C6_7  and  N2_8 
REMARK       I    between atoms: N2_8  and  C7_9 
REMARK    4  A    between atoms: C7_9  and  C8_11 
REMARK    5  A    between atoms: C15_18  and  C16_19 
REMARK    6  A    between atoms: C16_19  and  N3_20 
REMARK    7  A    between atoms: C16_19  and  N4_21 
REMARK    8  A    between atoms: C17_22  and  C18_23 
ROOT
HETATM    1  C3  UNL     1      24.674   2.363  52.551  1.00  0.00     0.042 A 
HETATM    2  C4  UNL     1      24.621   1.012  52.805  1.00  0.00     0.032 A 
HETATM    3  C5  UNL     1      23.362   0.402  52.772  1.00  0.00     0.032 A 
HETATM    4  C6  UNL     1      22.226   1.143  52.496  1.00  0.00     0.035 A 
HETATM    5  C14 UNL     1      22.383   2.497  52.254  1.00  0.00     0.043 A 
HETATM    6  C15 UNL     1      23.589   3.161  52.269  1.00  0.00     0.024 A 
ENDROOT
BRANCH   6   7
HETATM    7  C16 UNL     1      23.708   4.618  52.004  1.00  0.00     0.374 C 
BRANCH   7   8
HETATM    8  N3  UNL     1      23.706   5.417  53.203  1.00  0.00     0.107 N 
HETATM    9  H15 UNL     1      22.795   5.413  53.698  1.00  0.00     0.316 HD
HETATM   10  H16 UNL     1      24.015   6.393  53.035  1.00  0.00     0.316 HD
ENDBRANCH   7   8
BRANCH   7  11
HETATM   11  N4  UNL     1      24.799   4.928  51.124  1.00  0.00    -0.261 NA
HETATM   12  C17 UNL     1      24.795   4.842  49.849  1.00  0.00     0.126 C 
BRANCH  12  13
HETATM   13  C18 UNL     1      26.065   5.229  49.222  1.00  0.00    -0.002 A 
HETATM   14  C19 UNL     1      26.247   6.495  48.702  1.00  0.00     0.016 A 
HETATM   15  C20 UNL     1      27.429   6.916  48.096  1.00  0.00     0.020 A 
HETATM   16  C21 UNL     1      28.464   5.989  48.025  1.00  0.00     0.116 A 
HETATM   17  N5  UNL     1      28.297   4.752  48.529  1.00  0.00    -0.272 NA
HETATM   18  C22 UNL     1      27.143   4.361  49.113  1.00  0.00     0.129 A 
ENDBRANCH  12  13
ENDBRANCH   7  11
ENDBRANCH   6   7
BRANCH   1  19
HETATM   19  N1  UNL     1      25.972   2.914  52.599  1.00  0.00    -0.366 N 
HETATM   20  H4  UNL     1      26.390   3.867  52.654  1.00  0.00     0.165 HD
BRANCH  19  21
HETATM   21  C2  UNL     1      27.132   2.095  52.574  1.00  0.00     0.078 C 
HETATM   22  C1  UNL     1      28.122   2.236  53.452  1.00  0.00     0.029 C 
ENDBRANCH  19  21
ENDBRANCH   1  19
BRANCH   4  23
HETATM   23  N2  UNL     1      20.936   0.542  52.459  1.00  0.00    -0.323 N 
HETATM   24  C7  UNL     1      20.081  -0.144  53.332  1.00  0.00     0.256 C 
HETATM   25  O1  UNL     1      20.564  -0.285  54.484  1.00  0.00    -0.267 OA
HETATM   26  H7  UNL     1      20.765   0.783  51.459  1.00  0.00     0.169 HD
BRANCH  24  27
HETATM   27  C8  UNL     1      18.793  -0.588  52.811  1.00  0.00     0.032 A 
HETATM   28  C9  UNL     1      17.921  -1.507  53.352  1.00  0.00     0.017 A 
HETATM   29  C10 UNL     1      16.747  -1.774  52.681  1.00  0.00     0.001 A 
HETATM   30  C11 UNL     1      16.436  -1.146  51.490  1.00  0.00     0.000 A 
HETATM   31  C12 UNL     1      17.304  -0.215  50.927  1.00  0.00     0.001 A 
HETATM   32  C13 UNL     1      18.483   0.044  51.618  1.00  0.00     0.017 A 
ENDBRANCH  24  27
ENDBRANCH   4  23
TORSDOF 8
ENDMDL
MODEL 3
REMARK VINA RESULT:      -8.2      0.972      1.518
REMARK  8 active torsions:
REMARK  status: ('A' for Active; 'I' for Inactive)
REMARK    1  A    between atoms: C2_2  and  N1_3 
REMARK    2  A    between atoms: N1_3  and  C3_4 
REMARK    3  A    between atoms: C6_7  and  N2_8 
REMARK       I    between atoms: N2_8  and  C7_9 
REMARK    4  A    between atoms: C7_9  and  C8_11 
REMARK    5  A    between atoms: C15_18  and  C16_19 
REMARK    6  A    between atoms: C16_19  and  N3_20 
REMARK    7  A    between atoms: C16_19  and  N4_21 
REMARK    8  A    between atoms: C17_22  and  C18_23 
ROOT
HETATM    1  C3  UNL     1      22.547   3.598  50.749  1.00  0.00     0.042 A 
HETATM    2  C4  UNL     1      22.189   2.271  50.796  1.00  0.00     0.032 A 
HETATM    3  C5  UNL     1      23.159   1.360  51.228  1.00  0.00     0.032 A 
HETATM    4  C6  UNL     1      24.423   1.793  51.589  1.00  0.00     0.035 A 
HETATM    5  C14 UNL     1      24.686   3.150  51.507  1.00  0.00     0.043 A 
HETATM    6  C15 UNL     1      23.780   4.101  51.091  1.00  0.00     0.024 A 
ENDROOT
BRANCH   6   7
HETATM    7  C16 UNL     1      24.110   5.548  51.019  1.00  0.00     0.374 C 
BRANCH   7   8
HETATM    8  N3  UNL     1      24.067   6.205  52.301  1.00  0.00     0.107 N 
HETATM    9  H15 UNL     1      24.971   6.178  52.806  1.00  0.00     0.316 HD
HETATM   10  H16 UNL     1      23.308   5.846  52.910  1.00  0.00     0.316 HD
ENDBRANCH   7   8
BRANCH   7  11
HETATM   11  N4  UNL     1      25.327   5.797  50.300  1.00  0.00    -0.261 NA
HETATM   12  C17 UNL     1      25.494   5.708  49.037  1.00  0.00     0.126 C 
BRANCH  12  13
HETATM   13  C18 UNL     1      26.857   6.026  48.593  1.00  0.00    -0.002 A 
HETATM   14  C19 UNL     1      27.840   5.057  48.558  1.00  0.00     0.016 A 
HETATM   15  C20 UNL     1      29.149   5.301  48.147  1.00  0.00     0.020 A 
HETATM   16  C21 UNL     1      29.452   6.600  47.755  1.00  0.00     0.116 A 
HETATM   17  N5  UNL     1      28.502   7.553  47.785  1.00  0.00    -0.272 NA
HETATM   18  C22 UNL     1      27.238   7.297  48.187  1.00  0.00     0.129 A 
ENDBRANCH  12  13
ENDBRANCH   7  11
ENDBRANCH   6   7
BRANCH   1  19
HETATM   19  N1  UNL     1      21.522   4.462  50.305  1.00  0.00    -0.366 N 
HETATM   20  H4  UNL     1      21.381   5.491  50.223  1.00  0.00     0.165 HD
BRANCH  19  21
HETATM   21  C2  UNL     1      20.290   3.963  49.807  1.00  0.00     0.078 C 
HETATM   22  C1  UNL     1      19.114   4.447  50.202  1.00  0.00     0.029 C 
ENDBRANCH  19  21
ENDBRANCH   1  19
BRANCH   4  23
HETATM   23  N2  UNL     1      25.424   0.884  52.030  1.00  0.00    -0.323 N 
HETATM   24  C7  UNL     1      25.586  -0.084  53.031  1.00  0.00     0.256 C 
HETATM   25  O1  UNL     1      24.572  -0.205  53.765  1.00  0.00    -0.267 OA
HETATM   26  H7  UNL     1      26.115   1.167  51.302  1.00  0.00     0.169 HD
BRANCH  24  27
HETATM   27  C8  UNL     1      26.857  -0.796  53.089  1.00  0.00     0.032 A 
HETATM   28  C9  UNL     1      27.137  -2.084  52.686  1.00  0.00     0.017 A 
HETATM   29  C10 UNL     1      28.423  -2.555  52.835  1.00  0.00     0.001 A 
HETATM   30  C11 UNL     1      29.422  -1.769  53.377  1.00  0.00     0.000 A 
HETATM   31  C12 UNL     1      29.160  -0.466  53.790  1.00  0.00     0.001 A 
HETATM   32  C13 UNL     1      27.857  -0.006  53.631  1.00  0.00     0.017 A 
ENDBRANCH  24  27
ENDBRANCH   4  23
TORSDOF 8
ENDMDL
MODEL 4
REMARK VINA RESULT:      -8.1      3.035      7.127
REMARK  8 active torsions:
REMARK  status: ('A' for Active; 'I' for Inactive)
REMARK    1  A    between atoms: C2_2  and  N1_3 
REMARK    2  A    between atoms: N1_3  and  C3_4 
REMARK    3  A    between atoms: C6_7  and  N2_8 
REMARK       I    between atoms: N2_8  and  C7_9 
REMARK    4  A    between atoms: C7_9  and  C8_11 
REMARK    5  A    between atoms: C15_18  and  C16_19 
REMARK    6  A    between atoms: C16_19  and  N3_20 
REMARK    7  A    between atoms: C16_19  and  N4_21 
REMARK    8  A    between atoms: C17_22  and  C18_23 
ROOT
HETATM    1  C3  UNL     1      26.049   6.393  48.624  1.00  0.00     0.042 A 
HETATM    2  C4  UNL     1      26.878   7.250  47.938  1.00  0.00     0.032 A 
HETATM    3  C5  UNL     1      28.191   6.825  47.709  1.00  0.00     0.032 A 
HETATM    4  C6  UNL     1      28.622   5.590  48.161  1.00  0.00     0.035 A 
HETATM    5  C14 UNL     1      27.711   4.800  48.842  1.00  0.00     0.043 A 
HETATM    6  C15 UNL     1      26.407   5.154  49.103  1.00  0.00     0.024 A 
ENDROOT
BRANCH   6   7
HETATM    7  C16 UNL     1      25.466   4.271  49.839  1.00  0.00     0.374 C 
BRANCH   7   8
HETATM    8  N3  UNL     1      24.440   3.706  48.999  1.00  0.00     0.107 N 
HETATM    9  H15 UNL     1      24.734   2.833  48.524  1.00  0.00     0.316 HD
HETATM   10  H16 UNL     1      24.075   4.383  48.303  1.00  0.00     0.316 HD
ENDBRANCH   7   8
BRANCH   7  11
HETATM   11  N4  UNL     1      26.146   3.288  50.634  1.00  0.00    -0.261 NA
HETATM   12  C17 UNL     1      25.608   2.469  51.454  1.00  0.00     0.126 C 
BRANCH  12  13
HETATM   13  C18 UNL     1      26.566   1.581  52.123  1.00  0.00    -0.002 A 
HETATM   14  C19 UNL     1      26.412   0.209  52.087  1.00  0.00     0.016 A 
HETATM   15  C20 UNL     1      27.289  -0.681  52.704  1.00  0.00     0.020 A 
HETATM   16  C21 UNL     1      28.368  -0.130  53.386  1.00  0.00     0.116 A 
HETATM   17  N5  UNL     1      28.528   1.206  53.428  1.00  0.00    -0.272 NA
HETATM   18  C22 UNL     1      27.666   2.054  52.824  1.00  0.00     0.129 A 
ENDBRANCH  12  13
ENDBRANCH   7  11
ENDBRANCH   6   7
BRANCH   1  19
HETATM   19  N1  UNL     1      24.739   6.883  48.821  1.00  0.00    -0.366 N 
HETATM   20  H4  UNL     1      23.794   6.702  48.422  1.00  0.00     0.165 HD
BRANCH  19  21
HETATM   21  C2  UNL     1      24.456   7.892  49.779  1.00  0.00     0.078 C 
HETATM   22  C1  UNL     1      23.617   7.696  50.793  1.00  0.00     0.029 C 
ENDBRANCH  19  21
ENDBRANCH   1  19
BRANCH   4  23
HETATM   23  N2  UNL     1      29.953   5.139  47.939  1.00  0.00    -0.323 N 
HETATM   24  C7  UNL     1      31.248   5.464  48.365  1.00  0.00     0.256 C 
HETATM   25  O1  UNL     1      31.273   6.425  49.175  1.00  0.00    -0.267 OA
HETATM   26  H7  UNL     1      29.673   4.387  47.274  1.00  0.00     0.169 HD
BRANCH  24  27
HETATM   27  C8  UNL     1      32.355   4.677  47.834  1.00  0.00     0.032 A 
HETATM   28  C9  UNL     1      32.304   3.565  47.022  1.00  0.00     0.017 A 
HETATM   29  C10 UNL     1      33.489   2.975  46.638  1.00  0.00     0.001 A 
HETATM   30  C11 UNL     1      34.711   3.474  47.050  1.00  0.00     0.000 A 
HETATM   31  C12 UNL     1      34.784   4.596  47.870  1.00  0.00     0.001 A 
HETATM   32  C13 UNL     1      33.579   5.179  48.247  1.00  0.00     0.017 A 
ENDBRANCH  24  27
ENDBRANCH   4  23
TORSDOF 8
ENDMDL
MODEL 5
REMARK VINA RESULT:      -8.1      1.715      2.621
REMARK  8 active torsions:
REMARK  status: ('A' for Active; 'I' for Inactive)
REMARK    1  A    between atoms: C2_2  and  N1_3 
REMARK    2  A    between atoms: N1_3  and  C3_4 
REMARK    3  A    between atoms: C6_7  and  N2_8 
REMARK       I    between atoms: N2_8  and  C7_9 
REMARK    4  A    between atoms: C7_9  and  C8_11 
REMARK    5  A    between atoms: C15_18  and  C16_19 
REMARK    6  A    between atoms: C16_19  and  N3_20 
REMARK    7  A    between atoms: C16_19  and  N4_21 
REMARK    8  A    between atoms: C17_22  and  C18_23 
ROOT
HETATM    1  C3  UNL     1      21.520   1.613  52.517  1.00  0.00     0.042 A 
HETATM    2  C4  UNL     1      21.673   0.378  53.104  1.00  0.00     0.032 A 
HETATM    3  C5  UNL     1      22.979  -0.086  53.290  1.00  0.00     0.032 A 
HETATM    4  C6  UNL     1      24.063   0.679  52.894  1.00  0.00     0.035 A 
HETATM    5  C14 UNL     1      23.805   1.909  52.313  1.00  0.00     0.043 A 
HETATM    6  C15 UNL     1      22.547   2.427  52.100  1.00  0.00     0.024 A 
ENDROOT
BRANCH   6   7
HETATM    7  C16 UNL     1      22.321   3.754  51.471  1.00  0.00     0.374 C 
BRANCH   7   8
HETATM    8  N3  UNL     1      21.724   4.713  52.366  1.00  0.00     0.107 N 
HETATM    9  H15 UNL     1      21.371   5.560  51.884  1.00  0.00     0.316 HD
HETATM   10  H16 UNL     1      22.357   4.984  53.143  1.00  0.00     0.316 HD
ENDBRANCH   7   8
BRANCH   7  11
HETATM   11  N4  UNL     1      23.493   4.255  50.811  1.00  0.00    -0.261 NA
HETATM   12  C17 UNL     1      23.895   3.945  49.638  1.00  0.00     0.126 C 
BRANCH  12  13
HETATM   13  C18 UNL     1      25.133   4.623  49.235  1.00  0.00    -0.002 A 
HETATM   14  C19 UNL     1      26.341   3.955  49.224  1.00  0.00     0.016 A 
HETATM   15  C20 UNL     1      27.546   4.548  48.851  1.00  0.00     0.020 A 
HETATM   16  C21 UNL     1      27.498   5.885  48.474  1.00  0.00     0.116 A 
HETATM   17  N5  UNL     1      26.326   6.547  48.481  1.00  0.00    -0.272 NA
HETATM   18  C22 UNL     1      25.167   5.955  48.846  1.00  0.00     0.129 A 
ENDBRANCH  12  13
ENDBRANCH   7  11
ENDBRANCH   6   7
BRANCH   1  19
HETATM   19  N1  UNL     1      20.178   2.021  52.359  1.00  0.00    -0.366 N 
HETATM   20  H4  UNL     1      19.535   2.707  52.809  1.00  0.00     0.165 HD
BRANCH  19  21
HETATM   21  C2  UNL     1      19.334   1.446  51.372  1.00  0.00     0.078 C 
HETATM   22  C1  UNL     1      18.756   0.258  51.534  1.00  0.00     0.029 C 
ENDBRANCH  19  21
ENDBRANCH   1  19
BRANCH   4  23
HETATM   23  N2  UNL     1      25.399   0.225  53.074  1.00  0.00    -0.323 N 
HETATM   24  C7  UNL     1      26.570   0.658  53.710  1.00  0.00     0.256 C 
HETATM   25  O1  UNL     1      26.431   1.760  54.300  1.00  0.00    -0.267 OA
HETATM   26  H7  UNL     1      25.261  -0.650  52.524  1.00  0.00     0.169 HD
BRANCH  24  27
HETATM   27  C8  UNL     1      27.751  -0.192  53.610  1.00  0.00     0.032 A 
HETATM   28  C9  UNL     1      29.057   0.115  53.929  1.00  0.00     0.017 A 
HETATM   29  C10 UNL     1      30.022  -0.854  53.753  1.00  0.00     0.001 A 
HETATM   30  C11 UNL     1      29.705  -2.109  53.268  1.00  0.00     0.000 A 
HETATM   31  C12 UNL     1      28.393  -2.438  52.941  1.00  0.00     0.001 A 
HETATM   32  C13 UNL     1      27.433  -1.449  53.125  1.00  0.00     0.017 A 
ENDBRANCH  24  27
ENDBRANCH   4  23
TORSDOF 8
ENDMDL
MODEL 6
REMARK VINA RESULT:      -8.0      3.550      7.317
REMARK  8 active torsions:
REMARK  status: ('A' for Active; 'I' for Inactive)
REMARK    1  A    between atoms: C2_2  and  N1_3 
REMARK    2  A    between atoms: N1_3  and  C3_4 
REMARK    3  A    between atoms: C6_7  and  N2_8 
REMARK       I    between atoms: N2_8  and  C7_9 
REMARK    4  A    between atoms: C7_9  and  C8_11 
REMARK    5  A    between atoms: C15_18  and  C16_19 
REMARK    6  A    between atoms: C16_19  and  N3_20 
REMARK    7  A    between atoms: C16_19  and  N4_21 
REMARK    8  A    between atoms: C17_22  and  C18_23 
ROOT
HETATM    1  C3  UNL     1      24.076   2.793  49.996  1.00  0.00     0.042 A 
HETATM    2  C4  UNL     1      23.045   2.592  49.108  1.00  0.00     0.032 A 
HETATM    3  C5  UNL     1      21.923   1.898  49.574  1.00  0.00     0.032 A 
HETATM    4  C6  UNL     1      21.869   1.438  50.878  1.00  0.00     0.035 A 
HETATM    5  C14 UNL     1      22.958   1.691  51.695  1.00  0.00     0.043 A 
HETATM    6  C15 UNL     1      24.092   2.366  51.303  1.00  0.00     0.024 A 
ENDROOT
BRANCH   6   7
HETATM    7  C16 UNL     1      25.237   2.612  52.218  1.00  0.00     0.374 C 
BRANCH   7   8
HETATM    8  N3  UNL     1      24.849   3.222  53.465  1.00  0.00     0.107 N 
HETATM    9  H15 UNL     1      24.131   3.962  53.353  1.00  0.00     0.316 HD
HETATM   10  H16 UNL     1      25.658   3.590  54.000  1.00  0.00     0.316 HD
ENDBRANCH   7   8
BRANCH   7  11
HETATM   11  N4  UNL     1      26.058   1.448  52.393  1.00  0.00    -0.261 NA
HETATM   12  C17 UNL     1      26.518   1.002  53.499  1.00  0.00     0.126 C 
BRANCH  12  13
HETATM   13  C18 UNL     1      27.329  -0.213  53.359  1.00  0.00    -0.002 A 
HETATM   14  C19 UNL     1      28.688  -0.196  53.605  1.00  0.00     0.016 A 
HETATM   15  C20 UNL     1      29.507  -1.317  53.489  1.00  0.00     0.020 A 
HETATM   16  C21 UNL     1      28.895  -2.504  53.102  1.00  0.00     0.116 A 
HETATM   17  N5  UNL     1      27.571  -2.534  52.859  1.00  0.00    -0.272 NA
HETATM   18  C22 UNL     1      26.793  -1.435  52.977  1.00  0.00     0.129 A 
ENDBRANCH  12  13
ENDBRANCH   7  11
ENDBRANCH   6   7
BRANCH   1  19
HETATM   19  N1  UNL     1      25.175   3.499  49.462  1.00  0.00    -0.366 N 
HETATM   20  H4  UNL     1      26.149   3.275  49.167  1.00  0.00     0.165 HD
BRANCH  19  21
HETATM   21  C2  UNL     1      25.108   4.892  49.193  1.00  0.00     0.078 C 
HETATM   22  C1  UNL     1      25.122   5.805  50.161  1.00  0.00     0.029 C 
ENDBRANCH  19  21
ENDBRANCH   1  19
BRANCH   4  23
HETATM   23  N2  UNL     1      20.738   0.729  51.372  1.00  0.00    -0.323 N 
HETATM   24  C7  UNL     1      19.439   1.016  51.812  1.00  0.00     0.256 C 
HETATM   25  O1  UNL     1      19.166   2.243  51.772  1.00  0.00    -0.267 OA
HETATM   26  H7  UNL     1      21.198  -0.205  51.311  1.00  0.00     0.169 HD
BRANCH  24  27
HETATM   27  C8  UNL     1      18.607  -0.100  52.244  1.00  0.00     0.032 A 
HETATM   28  C9  UNL     1      17.331  -0.426  51.836  1.00  0.00     0.017 A 
HETATM   29  C10 UNL     1      16.729  -1.538  52.383  1.00  0.00     0.001 A 
HETATM   30  C11 UNL     1      17.374  -2.321  53.322  1.00  0.00     0.000 A 
HETATM   31  C12 UNL     1      18.662  -2.009  53.747  1.00  0.00     0.001 A 
HETATM   32  C13 UNL     1      19.255  -0.884  53.184  1.00  0.00     0.017 A 
ENDBRANCH  24  27
ENDBRANCH   4  23
TORSDOF 8
ENDMDL
MODEL 7
REMARK VINA RESULT:      -7.8      2.192      6.871
REMARK  8 active torsions:
REMARK  status: ('A' for Active; 'I' for Inactive)
REMARK    1  A    between atoms: C2_2  and  N1_3 
REMARK    2  A    between atoms: N1_3  and  C3_4 
REMARK    3  A    between atoms: C6_7  and  N2_8 
REMARK       I    between atoms: N2_8  and  C7_9 
REMARK    4  A    between atoms: C7_9  and  C8_11 
REMARK    5  A    between atoms: C15_18  and  C16_19 
REMARK    6  A    between atoms: C16_19  and  N3_20 
REMARK    7  A    between atoms: C16_19  and  N4_21 
REMARK    8  A    between atoms: C17_22  and  C18_23 
ROOT
HETATM    1  C3  UNL     1      21.090   2.890  51.804  1.00  0.00     0.042 A 
HETATM    2  C4  UNL     1      20.896   4.101  51.180  1.00  0.00     0.032 A 
HETATM    3  C5  UNL     1      22.006   4.690  50.564  1.00  0.00     0.032 A 
HETATM    4  C6  UNL     1      23.241   4.066  50.590  1.00  0.00     0.035 A 
HETATM    5  C14 UNL     1      23.334   2.848  51.243  1.00  0.00     0.043 A 
HETATM    6  C15 UNL     1      22.285   2.213  51.869  1.00  0.00     0.024 A 
ENDROOT
BRANCH   6   7
HETATM    7  C16 UNL     1      22.434   0.905  52.559  1.00  0.00     0.374 C 
BRANCH   7   8
HETATM    8  N3  UNL     1      21.762  -0.175  51.881  1.00  0.00     0.107 N 
HETATM    9  H15 UNL     1      22.395  -0.747  51.293  1.00  0.00     0.316 HD
HETATM   10  H16 UNL     1      20.951   0.147  51.321  1.00  0.00     0.316 HD
ENDBRANCH   7   8
BRANCH   7  11
HETATM   11  N4  UNL     1      23.802   0.606  52.875  1.00  0.00    -0.261 NA
HETATM   12  C17 UNL     1      24.214  -0.208  53.770  1.00  0.00     0.126 C 
BRANCH  12  13
HETATM   13  C18 UNL     1      25.677  -0.303  53.860  1.00  0.00    -0.002 A 
HETATM   14  C19 UNL     1      26.431  -0.731  52.785  1.00  0.00     0.016 A 
HETATM   15  C20 UNL     1      27.820  -0.841  52.814  1.00  0.00     0.020 A 
HETATM   16  C21 UNL     1      28.453  -0.495  54.002  1.00  0.00     0.116 A 
HETATM   17  N5  UNL     1      27.728  -0.077  55.057  1.00  0.00    -0.272 NA
HETATM   18  C22 UNL     1      26.381   0.024  55.010  1.00  0.00     0.129 A 
ENDBRANCH  12  13
ENDBRANCH   7  11
ENDBRANCH   6   7
BRANCH   1  19
HETATM   19  N1  UNL     1      19.931   2.353  52.405  1.00  0.00    -0.366 N 
HETATM   20  H4  UNL     1      19.653   2.021  53.352  1.00  0.00     0.165 HD
BRANCH  19  21
HETATM   21  C2  UNL     1      18.738   2.140  51.665  1.00  0.00     0.078 C 
HETATM   22  C1  UNL     1      18.455   0.972  51.092  1.00  0.00     0.029 C 
ENDBRANCH  19  21
ENDBRANCH   1  19
BRANCH   4  23
HETATM   23  N2  UNL     1      24.382   4.648  49.970  1.00  0.00    -0.323 N 
HETATM   24  C7  UNL     1      25.636   4.235  49.499  1.00  0.00     0.256 C 
HETATM   25  O1  UNL     1      25.840   3.005  49.656  1.00  0.00    -0.267 OA
HETATM   26  H7  UNL     1      23.981   5.610  49.953  1.00  0.00     0.169 HD
BRANCH  24  27
HETATM   27  C8  UNL     1      26.507   5.247  48.912  1.00  0.00     0.032 A 
HETATM   28  C9  UNL     1      26.204   6.550  48.579  1.00  0.00     0.017 A 
HETATM   29  C10 UNL     1      27.194   7.336  48.030  1.00  0.00     0.001 A 
HETATM   30  C11 UNL     1      28.467   6.844  47.809  1.00  0.00     0.000 A 
HETATM   31  C12 UNL     1      28.793   5.532  48.137  1.00  0.00     0.001 A 
HETATM   32  C13 UNL     1      27.782   4.753  48.691  1.00  0.00     0.017 A 
ENDBRANCH  24  27
ENDBRANCH   4  23
TORSDOF 8
ENDMDL
MODEL 8
REMARK VINA RESULT:      -7.6      2.810      4.518
REMARK  8 active torsions:
REMARK  status: ('A' for Active; 'I' for Inactive)
REMARK    1  A    between atoms: C2_2  and  N1_3 
REMARK    2  A    between atoms: N1_3  and  C3_4 
REMARK    3  A    between atoms: C6_7  and  N2_8 
REMARK       I    between atoms: N2_8  and  C7_9 
REMARK    4  A    between atoms: C7_9  and  C8_11 
REMARK    5  A    between atoms: C15_18  and  C16_19 
REMARK    6  A    between atoms: C16_19  and  N3_20 
REMARK    7  A    between atoms: C16_19  and  N4_21 
REMARK    8  A    between atoms: C17_22  and  C18_23 
ROOT
HETATM    1  C3  UNL     1      26.120   4.768  49.653  1.00  0.00     0.042 A 
HETATM    2  C4  UNL     1      26.531   3.465  49.493  1.00  0.00     0.032 A 
HETATM    3  C5  UNL     1      25.869   2.487  50.244  1.00  0.00     0.032 A 
HETATM    4  C6  UNL     1      24.845   2.834  51.108  1.00  0.00     0.035 A 
HETATM    5  C14 UNL     1      24.505   4.173  51.199  1.00  0.00     0.043 A 
HETATM    6  C15 UNL     1      25.113   5.186  50.491  1.00  0.00     0.024 A 
ENDROOT
BRANCH   6   7
HETATM    7  C16 UNL     1      24.713   6.611  50.623  1.00  0.00     0.374 C 
BRANCH   7   8
HETATM    8  N3  UNL     1      24.275   6.958  51.952  1.00  0.00     0.107 N 
HETATM    9  H15 UNL     1      23.370   7.462  51.967  1.00  0.00     0.316 HD
HETATM   10  H16 UNL     1      24.989   7.493  52.482  1.00  0.00     0.316 HD
ENDBRANCH   7   8
BRANCH   7  11
HETATM   11  N4  UNL     1      25.706   7.509  50.106  1.00  0.00    -0.261 NA
HETATM   12  C17 UNL     1      25.558   8.758  49.885  1.00  0.00     0.126 C 
BRANCH  12  13
HETATM   13  C18 UNL     1      26.759   9.414  49.352  1.00  0.00    -0.002 A 
HETATM   14  C19 UNL     1      26.687  10.253  48.257  1.00  0.00     0.016 A 
HETATM   15  C20 UNL     1      27.792  10.901  47.709  1.00  0.00     0.020 A 
HETATM   16  C21 UNL     1      29.021  10.672  48.318  1.00  0.00     0.116 A 
HETATM   17  N5  UNL     1      29.103   9.856  49.386  1.00  0.00    -0.272 NA
HETATM   18  C22 UNL     1      28.020   9.235  49.903  1.00  0.00     0.129 A 
ENDBRANCH  12  13
ENDBRANCH   7  11
ENDBRANCH   6   7
BRANCH   1  19
HETATM   19  N1  UNL     1      26.829   5.702  48.868  1.00  0.00    -0.366 N 
HETATM   20  H4  UNL     1      26.643   6.639  48.452  1.00  0.00     0.165 HD
BRANCH  19  21
HETATM   21  C2  UNL     1      28.162   5.461  48.441  1.00  0.00     0.078 C 
HETATM   22  C1  UNL     1      28.884   6.382  47.808  1.00  0.00     0.029 C 
ENDBRANCH  19  21
ENDBRANCH   1  19
BRANCH   4  23
HETATM   23  N2  UNL     1      24.159   1.855  51.881  1.00  0.00    -0.323 N 
HETATM   24  C7  UNL     1      24.477   0.822  52.772  1.00  0.00     0.256 C 
HETATM   25  O1  UNL     1      25.713   0.700  52.964  1.00  0.00    -0.267 OA
HETATM   26  H7  UNL     1      23.212   2.152  51.562  1.00  0.00     0.169 HD
BRANCH  24  27
HETATM   27  C8  UNL     1      23.376   0.053  53.340  1.00  0.00     0.032 A 
HETATM   28  C9  UNL     1      23.400  -0.819  54.407  1.00  0.00     0.017 A 
HETATM   29  C10 UNL     1      22.226  -1.443  54.774  1.00  0.00     0.001 A 
HETATM   30  C11 UNL     1      21.043  -1.213  54.097  1.00  0.00     0.000 A 
HETATM   31  C12 UNL     1      20.998  -0.336  53.016  1.00  0.00     0.001 A 
HETATM   32  C13 UNL     1      22.191   0.285  52.661  1.00  0.00     0.017 A 
ENDBRANCH  24  27
ENDBRANCH   4  23
TORSDOF 8
ENDMDL
MODEL 9
REMARK VINA RESULT:      -7.5      2.260      2.822
REMARK  8 active torsions:
REMARK  status: ('A' for Active; 'I' for Inactive)
REMARK    1  A    between atoms: C2_2  and  N1_3 
REMARK    2  A    between atoms: N1_3  and  C3_4 
REMARK    3  A    between atoms: C6_7  and  N2_8 
REMARK       I    between atoms: N2_8  and  C7_9 
REMARK    4  A    between atoms: C7_9  and  C8_11 
REMARK    5  A    between atoms: C15_18  and  C16_19 
REMARK    6  A    between atoms: C16_19  and  N3_20 
REMARK    7  A    between atoms: C16_19  and  N4_21 
REMARK    8  A    between atoms: C17_22  and  C18_23 
ROOT
HETATM    1  C3  UNL     1      21.807   2.802  51.949  1.00  0.00     0.042 A 
HETATM    2  C4  UNL     1      21.708   1.440  51.789  1.00  0.00     0.032 A 
HETATM    3  C5  UNL     1      22.857   0.680  52.039  1.00  0.00     0.032 A 
HETATM    4  C6  UNL     1      24.036   1.291  52.430  1.00  0.00     0.035 A 
HETATM    5  C14 UNL     1      24.033   2.669  52.563  1.00  0.00     0.043 A 
HETATM    6  C15 UNL     1      22.942   3.477  52.334  1.00  0.00     0.024 A 
ENDROOT
BRANCH   6   7
HETATM    7  C16 UNL     1      22.988   4.954  52.490  1.00  0.00     0.374 C 
BRANCH   7   8
HETATM    8  N3  UNL     1      23.870   5.387  53.544  1.00  0.00     0.107 N 
HETATM    9  H15 UNL     1      24.787   5.727  53.199  1.00  0.00     0.316 HD
HETATM   10  H16 UNL     1      24.011   4.661  54.272  1.00  0.00     0.316 HD
ENDBRANCH   7   8
BRANCH   7  11
HETATM   11  N4  UNL     1      23.226   5.629  51.245  1.00  0.00    -0.261 NA
HETATM   12  C17 UNL     1      24.105   6.529  51.025  1.00  0.00     0.126 C 
BRANCH  12  13
HETATM   13  C18 UNL     1      24.109   7.034  49.646  1.00  0.00    -0.002 A 
HETATM   14  C19 UNL     1      25.262   7.027  48.887  1.00  0.00     0.016 A 
HETATM   15  C20 UNL     1      25.324   7.493  47.575  1.00  0.00     0.020 A 
HETATM   16  C21 UNL     1      24.145   7.986  47.028  1.00  0.00     0.116 A 
HETATM   17  N5  UNL     1      23.014   7.998  47.759  1.00  0.00    -0.272 NA
HETATM   18  C22 UNL     1      22.974   7.542  49.030  1.00  0.00     0.129 A 
ENDBRANCH  12  13
ENDBRANCH   7  11
ENDBRANCH   6   7
BRANCH   1  19
HETATM   19  N1  UNL     1      20.613   3.508  51.682  1.00  0.00    -0.366 N 
HETATM   20  H4  UNL     1      19.929   4.074  52.226  1.00  0.00     0.165 HD
BRANCH  19  21
HETATM   21  C2  UNL     1      20.056   3.563  50.377  1.00  0.00     0.078 C 
HETATM   22  C1  UNL     1      20.760   3.956  49.318  1.00  0.00     0.029 C 
ENDBRANCH  19  21
ENDBRANCH   1  19
BRANCH   4  23
HETATM   23  N2  UNL     1      25.215   0.538  52.687  1.00  0.00    -0.323 N 
HETATM   24  C7  UNL     1      25.658  -0.421  53.609  1.00  0.00     0.256 C 
HETATM   25  O1  UNL     1      24.787  -0.721  54.464  1.00  0.00    -0.267 OA
HETATM   26  H7  UNL     1      25.746   0.946  51.889  1.00  0.00     0.169 HD
BRANCH  24  27
HETATM   27  C8  UNL     1      27.018  -0.926  53.461  1.00  0.00     0.032 A 
HETATM   28  C9  UNL     1      27.431  -2.137  52.949  1.00  0.00     0.017 A 
HETATM   29  C10 UNL     1      28.782  -2.406  52.905  1.00  0.00     0.001 A 
HETATM   30  C11 UNL     1      29.716  -1.495  53.361  1.00  0.00     0.000 A 
HETATM   31  C12 UNL     1      29.319  -0.266  53.881  1.00  0.00     0.001 A 
HETATM   32  C13 UNL     1      27.952  -0.011  53.918  1.00  0.00     0.017 A 
ENDBRANCH  24  27
ENDBRANCH   4  23
TORSDOF 8
ENDMDL
