MODEL 1
REMARK VINA RESULT:      -7.2      0.000      0.000
REMARK  6 active torsions:
REMARK  status: ('A' for Active; 'I' for Inactive)
REMARK    1  A    between atoms: C2_2  and  S1_3 
REMARK    2  A    between atoms: S1_3  and  N1_6 
REMARK    3  A    between atoms: N4_17  and  C10_18 
REMARK    4  A    between atoms: C10_18  and  C11_19 
REMARK    5  A    between atoms: C10_18  and  C12_21 
REMARK    6  A    between atoms: C11_19  and  O3_20 
ROOT
HETATM    1  N1  UNL     1      26.393   1.211  53.352  1.00  0.00    -0.202 NA
HETATM    2  C3  UNL     1      25.265   0.457  52.838  1.00  0.00     0.112 C 
HETATM    3  C4  UNL     1      24.282   1.477  52.329  1.00  0.00     0.055 C 
HETATM    4  C5  UNL     1      24.880   2.365  51.286  1.00  0.00    -0.010 C 
HETATM    5  C6  UNL     1      26.208   2.401  51.269  1.00  0.00     0.020 C 
HETATM    6  C7  UNL     1      27.118   1.654  52.175  1.00  0.00     0.155 C 
HETATM    7  S2  UNL     1      26.552   3.558  49.910  1.00  0.00    -0.012 SA
HETATM    8  N2  UNL     1      25.001   4.396  50.047  1.00  0.00    -0.275 N 
HETATM    9  C8  UNL     1      24.435   5.725  49.993  1.00  0.00     0.214 C 
HETATM   10  N3  UNL     1      23.485   5.934  50.879  1.00  0.00    -0.254 NA
HETATM   11  C9  UNL     1      23.224   4.769  51.713  1.00  0.00     0.425 C 
HETATM   12  N4  UNL     1      22.929   3.661  50.846  1.00  0.00     0.143 N 
HETATM   13  C17 UNL     1      24.189   3.191  50.285  1.00  0.00     0.369 C 
ENDROOT
BRANCH  12  14
HETATM   14  C10 UNL     1      21.962   3.986  49.883  1.00  0.00     0.262 C 
BRANCH  14  15
HETATM   15  C11 UNL     1      20.568   4.270  50.365  1.00  0.00     0.201 C 
BRANCH  15  16
HETATM   16  O3  UNL     1      20.197   5.603  50.305  1.00  0.00    -0.399 OA
HETATM   17  H16 UNL     1      19.226   5.693  50.136  1.00  0.00     0.209 HD
ENDBRANCH  15  16
ENDBRANCH  14  15
BRANCH  14  18
HETATM   18  C12 UNL     1      21.817   2.946  48.783  1.00  0.00     0.066 A 
HETATM   19  C13 UNL     1      20.405   2.585  48.526  1.00  0.00    -0.016 A 
HETATM   20  C14 UNL     1      20.001   2.996  47.322  1.00  0.00    -0.004 A 
HETATM   21  C15 UNL     1      21.116   3.670  46.669  1.00  0.00    -0.004 A 
HETATM   22  C16 UNL     1      22.154   3.648  47.490  1.00  0.00    -0.016 A 
ENDBRANCH  14  18
ENDBRANCH  12  14
BRANCH   1  23
HETATM   23  S1  UNL     1      27.449   0.234  54.291  1.00  0.00     0.233 S 
HETATM   24  O1  UNL     1      28.417   1.193  54.970  1.00  0.00    -0.207 OA
HETATM   25  O2  UNL     1      26.739  -0.523  55.358  1.00  0.00    -0.207 OA
BRANCH  23  26
HETATM   26  C2  UNL     1      28.432  -0.837  53.311  1.00  0.00     0.115 C 
HETATM   27  C1  UNL     1      29.757  -0.939  53.499  1.00  0.00     0.024 C 
ENDBRANCH  23  26
ENDBRANCH   1  23
TORSDOF 6
ENDMDL
MODEL 2
REMARK VINA RESULT:      -6.9      2.094      3.458
REMARK  6 active torsions:
REMARK  status: ('A' for Active; 'I' for Inactive)
REMARK    1  A    between atoms: C2_2  and  S1_3 
REMARK    2  A    between atoms: S1_3  and  N1_6 
REMARK    3  A    between atoms: N4_17  and  C10_18 
REMARK    4  A    between atoms: C10_18  and  C11_19 
REMARK    5  A    between atoms: C10_18  and  C12_21 
REMARK    6  A    between atoms: C11_19  and  O3_20 
ROOT
HETATM    1  N1  UNL     1      26.194   0.425  52.579  1.00  0.00    -0.202 NA
HETATM    2  C3  UNL     1      26.630   1.806  52.633  1.00  0.00     0.112 C 
HETATM    3  C4  UNL     1      25.843   2.531  51.574  1.00  0.00     0.055 C 
HETATM    4  C5  UNL     1      24.369   2.404  51.782  1.00  0.00    -0.010 C 
HETATM    5  C6  UNL     1      23.992   1.396  52.560  1.00  0.00     0.020 C 
HETATM    6  C7  UNL     1      24.892   0.414  53.220  1.00  0.00     0.155 C 
HETATM    7  S2  UNL     1      22.182   1.560  52.570  1.00  0.00    -0.012 SA
HETATM    8  N2  UNL     1      22.113   2.401  51.016  1.00  0.00    -0.275 N 
HETATM    9  C8  UNL     1      21.329   2.452  49.803  1.00  0.00     0.214 C 
HETATM   10  N3  UNL     1      22.048   2.600  48.711  1.00  0.00    -0.254 NA
HETATM   11  C9  UNL     1      23.477   2.676  48.982  1.00  0.00     0.425 C 
HETATM   12  N4  UNL     1      23.692   3.739  49.926  1.00  0.00     0.143 N 
HETATM   13  C17 UNL     1      23.295   3.250  51.240  1.00  0.00     0.369 C 
ENDROOT
BRANCH  12  14
HETATM   14  C10 UNL     1      23.051   4.926  49.541  1.00  0.00     0.262 C 
BRANCH  14  15
HETATM   15  C11 UNL     1      23.556   5.623  48.310  1.00  0.00     0.201 C 
BRANCH  15  16
HETATM   16  O3  UNL     1      22.733   5.506  47.203  1.00  0.00    -0.399 OA
HETATM   17  H16 UNL     1      22.727   4.577  46.862  1.00  0.00     0.209 HD
ENDBRANCH  15  16
ENDBRANCH  14  15
BRANCH  14  18
HETATM   18  C12 UNL     1      23.014   5.985  50.632  1.00  0.00     0.066 A 
HETATM   19  C13 UNL     1      23.563   7.284  50.181  1.00  0.00    -0.016 A 
HETATM   20  C14 UNL     1      22.617   8.223  50.113  1.00  0.00    -0.004 A 
HETATM   21  C15 UNL     1      21.349   7.628  50.515  1.00  0.00    -0.004 A 
HETATM   22  C16 UNL     1      21.562   6.355  50.813  1.00  0.00    -0.016 A 
ENDBRANCH  14  18
ENDBRANCH  12  14
BRANCH   1  23
HETATM   23  S1  UNL     1      27.233  -0.617  53.467  1.00  0.00     0.233 S 
HETATM   24  O1  UNL     1      26.758  -0.553  54.912  1.00  0.00    -0.207 OA
HETATM   25  O2  UNL     1      27.146  -2.034  53.022  1.00  0.00    -0.207 OA
BRANCH  23  26
HETATM   26  C2  UNL     1      28.898  -0.065  53.477  1.00  0.00     0.115 C 
HETATM   27  C1  UNL     1      29.918  -0.921  53.643  1.00  0.00     0.024 C 
ENDBRANCH  23  26
ENDBRANCH   1  23
TORSDOF 6
ENDMDL
MODEL 3
REMARK VINA RESULT:      -6.9      3.813      6.421
REMARK  6 active torsions:
REMARK  status: ('A' for Active; 'I' for Inactive)
REMARK    1  A    between atoms: C2_2  and  S1_3 
REMARK    2  A    between atoms: S1_3  and  N1_6 
REMARK    3  A    between atoms: N4_17  and  C10_18 
REMARK    4  A    between atoms: C10_18  and  C11_19 
REMARK    5  A    between atoms: C10_18  and  C12_21 
REMARK    6  A    between atoms: C11_19  and  O3_20 
ROOT
HETATM    1  N1  UNL     1      24.290   4.407  50.072  1.00  0.00    -0.202 NA
HETATM    2  C3  UNL     1      24.970   3.427  50.895  1.00  0.00     0.112 C 
HETATM    3  C4  UNL     1      23.888   2.669  51.617  1.00  0.00     0.055 C 
HETATM    4  C5  UNL     1      22.923   2.029  50.674  1.00  0.00    -0.010 C 
HETATM    5  C6  UNL     1      22.912   2.536  49.446  1.00  0.00     0.020 C 
HETATM    6  C7  UNL     1      23.757   3.654  48.951  1.00  0.00     0.155 C 
HETATM    7  S2  UNL     1      21.644   1.532  48.616  1.00  0.00    -0.012 SA
HETATM    8  N2  UNL     1      20.791   1.127  50.111  1.00  0.00    -0.275 N 
HETATM    9  C8  UNL     1      19.451   0.977  50.632  1.00  0.00     0.214 C 
HETATM   10  N3  UNL     1      19.303   1.435  51.857  1.00  0.00    -0.254 NA
HETATM   11  C9  UNL     1      20.533   1.991  52.404  1.00  0.00     0.425 C 
HETATM   12  N4  UNL     1      21.552   0.981  52.318  1.00  0.00     0.143 N 
HETATM   13  C17 UNL     1      21.995   0.917  50.931  1.00  0.00     0.369 C 
ENDROOT
BRANCH  12  14
HETATM   14  C10 UNL     1      21.121  -0.250  52.836  1.00  0.00     0.262 C 
BRANCH  14  15
HETATM   15  C11 UNL     1      20.266  -0.224  54.071  1.00  0.00     0.201 C 
BRANCH  15  16
HETATM   16  O3  UNL     1      19.008  -0.781  53.912  1.00  0.00    -0.399 OA
HETATM   17  H16 UNL     1      18.308  -0.082  53.931  1.00  0.00     0.209 HD
ENDBRANCH  15  16
ENDBRANCH  14  15
BRANCH  14  18
HETATM   18  C12 UNL     1      22.253  -1.220  53.135  1.00  0.00     0.066 A 
HETATM   19  C13 UNL     1      23.558  -0.539  53.290  1.00  0.00    -0.016 A 
HETATM   20  C14 UNL     1      24.008  -0.613  54.544  1.00  0.00    -0.004 A 
HETATM   21  C15 UNL     1      23.036  -1.355  55.338  1.00  0.00    -0.004 A 
HETATM   22  C16 UNL     1      22.034  -1.705  54.547  1.00  0.00    -0.016 A 
ENDBRANCH  14  18
ENDBRANCH  12  14
BRANCH   1  23
HETATM   23  S1  UNL     1      25.369   5.592  49.451  1.00  0.00     0.233 S 
HETATM   24  O1  UNL     1      24.690   6.176  48.221  1.00  0.00    -0.207 OA
HETATM   25  O2  UNL     1      25.612   6.706  50.407  1.00  0.00    -0.207 OA
BRANCH  23  26
HETATM   26  C2  UNL     1      26.882   4.903  48.893  1.00  0.00     0.115 C 
HETATM   27  C1  UNL     1      27.880   5.680  48.444  1.00  0.00     0.024 C 
ENDBRANCH  23  26
ENDBRANCH   1  23
TORSDOF 6
ENDMDL
MODEL 4
REMARK VINA RESULT:      -6.5      7.625      8.772
REMARK  6 active torsions:
REMARK  status: ('A' for Active; 'I' for Inactive)
REMARK    1  A    between atoms: C2_2  and  S1_3 
REMARK    2  A    between atoms: S1_3  and  N1_6 
REMARK    3  A    between atoms: N4_17  and  C10_18 
REMARK    4  A    between atoms: C10_18  and  C11_19 
REMARK    5  A    between atoms: C10_18  and  C12_21 
REMARK    6  A    between atoms: C11_19  and  O3_20 
ROOT
HETATM    1  N1  UNL     1      32.760   5.280  47.486  1.00  0.00    -0.202 NA
HETATM    2  C3  UNL     1      31.408   4.797  47.687  1.00  0.00     0.112 C 
HETATM    3  C4  UNL     1      30.640   5.948  48.281  1.00  0.00     0.055 C 
HETATM    4  C5  UNL     1      30.675   7.159  47.407  1.00  0.00    -0.010 C 
HETATM    5  C6  UNL     1      31.654   7.181  46.510  1.00  0.00     0.020 C 
HETATM    6  C7  UNL     1      32.687   6.131  46.312  1.00  0.00     0.155 C 
HETATM    7  S2  UNL     1      31.378   8.766  45.664  1.00  0.00    -0.012 SA
HETATM    8  N2  UNL     1      30.542   9.508  47.034  1.00  0.00    -0.275 N 
HETATM    9  C8  UNL     1      30.447  10.764  47.744  1.00  0.00     0.214 C 
HETATM   10  N3  UNL     1      30.349  10.630  49.049  1.00  0.00    -0.254 NA
HETATM   11  C9  UNL     1      30.361   9.238  49.477  1.00  0.00     0.425 C 
HETATM   12  N4  UNL     1      29.309   8.551  48.777  1.00  0.00     0.143 N 
HETATM   13  C17 UNL     1      29.767   8.315  47.413  1.00  0.00     0.369 C 
ENDROOT
BRANCH  12  14
HETATM   14  C10 UNL     1      28.087   9.235  48.858  1.00  0.00     0.262 C 
BRANCH  14  15
HETATM   15  C11 UNL     1      27.231   8.990  50.068  1.00  0.00     0.201 C 
BRANCH  15  16
HETATM   16  O3  UNL     1      27.582   9.736  51.182  1.00  0.00    -0.399 OA
HETATM   17  H16 UNL     1      26.830  10.309  51.474  1.00  0.00     0.209 HD
ENDBRANCH  15  16
ENDBRANCH  14  15
BRANCH  14  18
HETATM   18  C12 UNL     1      27.179   9.014  47.657  1.00  0.00     0.066 A 
HETATM   19  C13 UNL     1      25.847   8.496  48.041  1.00  0.00    -0.016 A 
HETATM   20  C14 UNL     1      24.884   9.391  47.808  1.00  0.00    -0.004 A 
HETATM   21  C15 UNL     1      25.495  10.589  47.245  1.00  0.00    -0.004 A 
HETATM   22  C16 UNL     1      26.801  10.386  47.155  1.00  0.00    -0.016 A 
ENDBRANCH  14  18
ENDBRANCH  12  14
BRANCH   1  23
HETATM   23  S1  UNL     1      33.860   4.003  47.150  1.00  0.00     0.233 S 
HETATM   24  O1  UNL     1      34.458   4.311  45.785  1.00  0.00    -0.207 OA
HETATM   25  O2  UNL     1      34.978   3.932  48.130  1.00  0.00    -0.207 OA
BRANCH  23  26
HETATM   26  C2  UNL     1      33.064   2.448  46.992  1.00  0.00     0.115 C 
HETATM   27  C1  UNL     1      33.081   1.549  47.990  1.00  0.00     0.024 C 
ENDBRANCH  23  26
ENDBRANCH   1  23
TORSDOF 6
ENDMDL
MODEL 5
REMARK VINA RESULT:      -6.4      1.513      1.760
REMARK  6 active torsions:
REMARK  status: ('A' for Active; 'I' for Inactive)
REMARK    1  A    between atoms: C2_2  and  S1_3 
REMARK    2  A    between atoms: S1_3  and  N1_6 
REMARK    3  A    between atoms: N4_17  and  C10_18 
REMARK    4  A    between atoms: C10_18  and  C11_19 
REMARK    5  A    between atoms: C10_18  and  C12_21 
REMARK    6  A    between atoms: C11_19  and  O3_20 
ROOT
HETATM    1  N1  UNL     1      25.625   1.147  52.850  1.00  0.00    -0.202 NA
HETATM    2  C3  UNL     1      24.354   0.831  52.227  1.00  0.00     0.112 C 
HETATM    3  C4  UNL     1      23.743   2.151  51.839  1.00  0.00     0.055 C 
HETATM    4  C5  UNL     1      24.630   2.936  50.928  1.00  0.00    -0.010 C 
HETATM    5  C6  UNL     1      25.909   2.576  50.935  1.00  0.00     0.020 C 
HETATM    6  C7  UNL     1      26.510   1.490  51.751  1.00  0.00     0.155 C 
HETATM    7  S2  UNL     1      26.650   3.729  49.741  1.00  0.00    -0.012 SA
HETATM    8  N2  UNL     1      25.408   4.969  49.961  1.00  0.00    -0.275 N 
HETATM    9  C8  UNL     1      25.263   6.404  50.070  1.00  0.00     0.214 C 
HETATM   10  N3  UNL     1      24.371   6.781  50.961  1.00  0.00    -0.254 NA
HETATM   11  C9  UNL     1      23.735   5.657  51.635  1.00  0.00     0.425 C 
HETATM   12  N4  UNL     1      23.173   4.798  50.629  1.00  0.00     0.143 N 
HETATM   13  C17 UNL     1      24.266   4.043  50.031  1.00  0.00     0.369 C 
ENDROOT
BRANCH  12  14
HETATM   14  C10 UNL     1      22.397   5.509  49.701  1.00  0.00     0.262 C 
BRANCH  14  15
HETATM   15  C11 UNL     1      20.938   5.694  50.010  1.00  0.00     0.201 C 
BRANCH  15  16
HETATM   16  O3  UNL     1      20.456   4.881  51.023  1.00  0.00    -0.399 OA
HETATM   17  H16 UNL     1      20.424   3.936  50.732  1.00  0.00     0.209 HD
ENDBRANCH  15  16
ENDBRANCH  14  15
BRANCH  14  18
HETATM   18  C12 UNL     1      22.453   4.943  48.291  1.00  0.00     0.066 A 
HETATM   19  C13 UNL     1      21.108   4.696  47.724  1.00  0.00    -0.016 A 
HETATM   20  C14 UNL     1      20.844   5.517  46.706  1.00  0.00    -0.004 A 
HETATM   21  C15 UNL     1      21.996   6.386  46.505  1.00  0.00    -0.004 A 
HETATM   22  C16 UNL     1      22.918   6.069  47.401  1.00  0.00    -0.016 A 
ENDBRANCH  14  18
ENDBRANCH  12  14
BRANCH   1  23
HETATM   23  S1  UNL     1      26.296  -0.204  53.672  1.00  0.00     0.233 S 
HETATM   24  O1  UNL     1      25.164  -0.801  54.496  1.00  0.00    -0.207 OA
HETATM   25  O2  UNL     1      26.786  -1.259  52.743  1.00  0.00    -0.207 OA
BRANCH  23  26
HETATM   26  C2  UNL     1      27.544   0.251  54.817  1.00  0.00     0.115 C 
HETATM   27  C1  UNL     1      28.847   0.120  54.520  1.00  0.00     0.024 C 
ENDBRANCH  23  26
ENDBRANCH   1  23
TORSDOF 6
ENDMDL
MODEL 6
REMARK VINA RESULT:      -6.3      3.879      6.891
REMARK  6 active torsions:
REMARK  status: ('A' for Active; 'I' for Inactive)
REMARK    1  A    between atoms: C2_2  and  S1_3 
REMARK    2  A    between atoms: S1_3  and  N1_6 
REMARK    3  A    between atoms: N4_17  and  C10_18 
REMARK    4  A    between atoms: C10_18  and  C11_19 
REMARK    5  A    between atoms: C10_18  and  C12_21 
REMARK    6  A    between atoms: C11_19  and  O3_20 
ROOT
HETATM    1  N1  UNL     1      18.752   1.903  50.831  1.00  0.00    -0.202 NA
HETATM    2  C3  UNL     1      19.164   2.653  49.661  1.00  0.00     0.112 C 
HETATM    3  C4  UNL     1      20.316   3.515  50.105  1.00  0.00     0.055 C 
HETATM    4  C5  UNL     1      21.437   2.708  50.673  1.00  0.00    -0.010 C 
HETATM    5  C6  UNL     1      21.110   1.482  51.067  1.00  0.00     0.020 C 
HETATM    6  C7  UNL     1      19.758   0.869  50.992  1.00  0.00     0.155 C 
HETATM    7  S2  UNL     1      22.690   0.832  51.687  1.00  0.00    -0.012 SA
HETATM    8  N2  UNL     1      23.361   2.427  52.050  1.00  0.00    -0.275 N 
HETATM    9  C8  UNL     1      24.146   3.112  53.053  1.00  0.00     0.214 C 
HETATM   10  N3  UNL     1      23.737   4.337  53.301  1.00  0.00    -0.254 NA
HETATM   11  C9  UNL     1      22.580   4.720  52.504  1.00  0.00     0.425 C 
HETATM   12  N4  UNL     1      22.913   4.526  51.119  1.00  0.00     0.143 N 
HETATM   13  C17 UNL     1      22.846   3.096  50.844  1.00  0.00     0.369 C 
ENDROOT
BRANCH  12  14
HETATM   14  C10 UNL     1      24.143   5.113  50.784  1.00  0.00     0.262 C 
BRANCH  14  15
HETATM   15  C11 UNL     1      24.229   6.612  50.815  1.00  0.00     0.201 C 
BRANCH  15  16
HETATM   16  O3  UNL     1      24.642   7.141  52.028  1.00  0.00    -0.399 OA
HETATM   17  H16 UNL     1      25.566   6.861  52.239  1.00  0.00     0.209 HD
ENDBRANCH  15  16
ENDBRANCH  14  15
BRANCH  14  18
HETATM   18  C12 UNL     1      24.672   4.695  49.421  1.00  0.00     0.066 A 
HETATM   19  C13 UNL     1      25.388   5.791  48.730  1.00  0.00    -0.016 A 
HETATM   20  C14 UNL     1      26.692   5.532  48.614  1.00  0.00    -0.004 A 
HETATM   21  C15 UNL     1      26.959   4.234  49.221  1.00  0.00    -0.004 A 
HETATM   22  C16 UNL     1      25.817   3.749  49.683  1.00  0.00    -0.016 A 
ENDBRANCH  14  18
ENDBRANCH  12  14
BRANCH   1  23
HETATM   23  S1  UNL     1      17.231   1.135  50.605  1.00  0.00     0.233 S 
HETATM   24  O1  UNL     1      16.232   1.927  51.436  1.00  0.00    -0.207 OA
HETATM   25  O2  UNL     1      16.773   1.170  49.190  1.00  0.00    -0.207 OA
BRANCH  23  26
HETATM   26  C2  UNL     1      17.199  -0.502  51.234  1.00  0.00     0.115 C 
HETATM   27  C1  UNL     1      16.716  -0.772  52.457  1.00  0.00     0.024 C 
ENDBRANCH  23  26
ENDBRANCH   1  23
TORSDOF 6
ENDMDL
MODEL 7
REMARK VINA RESULT:      -6.1      3.676      8.047
REMARK  6 active torsions:
REMARK  status: ('A' for Active; 'I' for Inactive)
REMARK    1  A    between atoms: C2_2  and  S1_3 
REMARK    2  A    between atoms: S1_3  and  N1_6 
REMARK    3  A    between atoms: N4_17  and  C10_18 
REMARK    4  A    between atoms: C10_18  and  C11_19 
REMARK    5  A    between atoms: C10_18  and  C12_21 
REMARK    6  A    between atoms: C11_19  and  O3_20 
ROOT
HETATM    1  N1  UNL     1      20.669   4.119  46.347  1.00  0.00    -0.202 NA
HETATM    2  C3  UNL     1      21.977   3.500  46.436  1.00  0.00     0.112 C 
HETATM    3  C4  UNL     1      22.374   3.576  47.886  1.00  0.00     0.055 C 
HETATM    4  C5  UNL     1      21.380   2.908  48.779  1.00  0.00    -0.010 C 
HETATM    5  C6  UNL     1      20.174   2.732  48.250  1.00  0.00     0.020 C 
HETATM    6  C7  UNL     1      19.747   3.135  46.885  1.00  0.00     0.155 C 
HETATM    7  S2  UNL     1      19.267   1.918  49.599  1.00  0.00    -0.012 SA
HETATM    8  N2  UNL     1      20.296   2.582  50.875  1.00  0.00    -0.275 N 
HETATM    9  C8  UNL     1      20.213   3.140  52.206  1.00  0.00     0.214 C 
HETATM   10  N3  UNL     1      21.029   4.152  52.409  1.00  0.00    -0.254 NA
HETATM   11  C9  UNL     1      21.830   4.476  51.237  1.00  0.00     0.425 C 
HETATM   12  N4  UNL     1      22.527   3.285  50.834  1.00  0.00     0.143 N 
HETATM   13  C17 UNL     1      21.569   2.422  50.154  1.00  0.00     0.369 C 
ENDROOT
BRANCH  12  14
HETATM   14  C10 UNL     1      23.186   2.669  51.908  1.00  0.00     0.262 C 
BRANCH  14  15
HETATM   15  C11 UNL     1      24.432   3.327  52.429  1.00  0.00     0.201 C 
BRANCH  15  16
HETATM   16  O3  UNL     1      24.224   4.203  53.482  1.00  0.00    -0.399 OA
HETATM   17  H16 UNL     1      23.503   3.877  54.076  1.00  0.00     0.209 HD
ENDBRANCH  15  16
ENDBRANCH  14  15
BRANCH  14  18
HETATM   18  C12 UNL     1      23.561   1.218  51.649  1.00  0.00     0.066 A 
HETATM   19  C13 UNL     1      24.945   0.905  52.069  1.00  0.00    -0.016 A 
HETATM   20  C14 UNL     1      24.968   0.067  53.107  1.00  0.00    -0.004 A 
HETATM   21  C15 UNL     1      23.594  -0.254  53.470  1.00  0.00    -0.004 A 
HETATM   22  C16 UNL     1      22.784   0.395  52.647  1.00  0.00    -0.016 A 
ENDBRANCH  14  18
ENDBRANCH  12  14
BRANCH   1  23
HETATM   23  S1  UNL     1      20.215   4.441  44.721  1.00  0.00     0.233 S 
HETATM   24  O1  UNL     1      21.066   3.522  43.857  1.00  0.00    -0.207 OA
HETATM   25  O2  UNL     1      18.786   4.125  44.449  1.00  0.00    -0.207 OA
BRANCH  23  26
HETATM   26  C2  UNL     1      20.601   6.077  44.221  1.00  0.00     0.115 C 
HETATM   27  C1  UNL     1      21.868   6.520  44.198  1.00  0.00     0.024 C 
ENDBRANCH  23  26
ENDBRANCH   1  23
TORSDOF 6
ENDMDL
MODEL 8
REMARK VINA RESULT:      -6.0      7.394     10.741
REMARK  6 active torsions:
REMARK  status: ('A' for Active; 'I' for Inactive)
REMARK    1  A    between atoms: C2_2  and  S1_3 
REMARK    2  A    between atoms: S1_3  and  N1_6 
REMARK    3  A    between atoms: N4_17  and  C10_18 
REMARK    4  A    between atoms: C10_18  and  C11_19 
REMARK    5  A    between atoms: C10_18  and  C12_21 
REMARK    6  A    between atoms: C11_19  and  O3_20 
ROOT
HETATM    1  N1  UNL     1      26.816   7.797  48.299  1.00  0.00    -0.202 NA
HETATM    2  C3  UNL     1      27.324   6.459  48.533  1.00  0.00     0.112 C 
HETATM    3  C4  UNL     1      28.653   6.390  47.828  1.00  0.00     0.055 C 
HETATM    4  C5  UNL     1      29.601   7.438  48.312  1.00  0.00    -0.010 C 
HETATM    5  C6  UNL     1      29.038   8.466  48.937  1.00  0.00     0.020 C 
HETATM    6  C7  UNL     1      27.585   8.652  49.185  1.00  0.00     0.155 C 
HETATM    7  S2  UNL     1      30.470   9.503  49.360  1.00  0.00    -0.012 SA
HETATM    8  N2  UNL     1      31.483   8.876  48.053  1.00  0.00    -0.275 N 
HETATM    9  C8  UNL     1      32.442   9.319  47.066  1.00  0.00     0.214 C 
HETATM   10  N3  UNL     1      32.317   8.724  45.899  1.00  0.00    -0.254 NA
HETATM   11  C9  UNL     1      31.232   7.753  45.873  1.00  0.00     0.425 C 
HETATM   12  N4  UNL     1      31.451   6.817  46.942  1.00  0.00     0.143 N 
HETATM   13  C17 UNL     1      31.066   7.470  48.187  1.00  0.00     0.369 C 
ENDROOT
BRANCH  12  14
HETATM   14  C10 UNL     1      32.760   6.313  46.943  1.00  0.00     0.262 C 
BRANCH  14  15
HETATM   15  C11 UNL     1      33.237   5.612  45.704  1.00  0.00     0.201 C 
BRANCH  15  16
HETATM   16  O3  UNL     1      34.260   6.261  45.032  1.00  0.00    -0.399 OA
HETATM   17  H16 UNL     1      35.037   5.661  44.907  1.00  0.00     0.209 HD
ENDBRANCH  15  16
ENDBRANCH  14  15
BRANCH  14  18
HETATM   18  C12 UNL     1      33.051   5.364  48.096  1.00  0.00     0.066 A 
HETATM   19  C13 UNL     1      33.596   4.066  47.638  1.00  0.00    -0.016 A 
HETATM   20  C14 UNL     1      34.866   3.904  48.013  1.00  0.00    -0.004 A 
HETATM   21  C15 UNL     1      35.280   5.086  48.758  1.00  0.00    -0.004 A 
HETATM   22  C16 UNL     1      34.256   5.923  48.811  1.00  0.00    -0.016 A 
ENDBRANCH  14  18
ENDBRANCH  12  14
BRANCH   1  23
HETATM   23  S1  UNL     1      25.158   7.943  48.725  1.00  0.00     0.233 S 
HETATM   24  O1  UNL     1      24.472   6.699  48.179  1.00  0.00    -0.207 OA
HETATM   25  O2  UNL     1      24.941   7.971  50.197  1.00  0.00    -0.207 OA
BRANCH  23  26
HETATM   26  C2  UNL     1      24.378   9.309  47.950  1.00  0.00     0.115 C 
HETATM   27  C1  UNL     1      23.092   9.610  48.193  1.00  0.00     0.024 C 
ENDBRANCH  23  26
ENDBRANCH   1  23
TORSDOF 6
ENDMDL
MODEL 9
REMARK VINA RESULT:      -6.0      5.810      7.142
REMARK  6 active torsions:
REMARK  status: ('A' for Active; 'I' for Inactive)
REMARK    1  A    between atoms: C2_2  and  S1_3 
REMARK    2  A    between atoms: S1_3  and  N1_6 
REMARK    3  A    between atoms: N4_17  and  C10_18 
REMARK    4  A    between atoms: C10_18  and  C11_19 
REMARK    5  A    between atoms: C10_18  and  C12_21 
REMARK    6  A    between atoms: C11_19  and  O3_20 
ROOT
HETATM    1  N1  UNL     1      31.081   6.622  47.616  1.00  0.00    -0.202 NA
HETATM    2  C3  UNL     1      30.215   5.468  47.755  1.00  0.00     0.112 C 
HETATM    3  C4  UNL     1      28.979   5.960  48.459  1.00  0.00     0.055 C 
HETATM    4  C5  UNL     1      28.311   7.070  47.715  1.00  0.00    -0.010 C 
HETATM    5  C6  UNL     1      29.078   7.701  46.833  1.00  0.00     0.020 C 
HETATM    6  C7  UNL     1      30.503   7.401  46.536  1.00  0.00     0.155 C 
HETATM    7  S2  UNL     1      27.949   8.953  46.153  1.00  0.00    -0.012 SA
HETATM    8  N2  UNL     1      26.914   8.995  47.586  1.00  0.00    -0.275 N 
HETATM    9  C8  UNL     1      26.192   9.929  48.422  1.00  0.00     0.214 C 
HETATM   10  N3  UNL     1      26.246   9.645  49.705  1.00  0.00    -0.254 NA
HETATM   11  C9  UNL     1      27.028   8.449  49.987  1.00  0.00     0.425 C 
HETATM   12  N4  UNL     1      26.480   7.369  49.211  1.00  0.00     0.143 N 
HETATM   13  C17 UNL     1      26.924   7.544  47.834  1.00  0.00     0.369 C 
ENDROOT
BRANCH  12  14
HETATM   14  C10 UNL     1      25.088   7.271  49.353  1.00  0.00     0.262 C 
BRANCH  14  15
HETATM   15  C11 UNL     1      24.554   6.815  50.681  1.00  0.00     0.201 C 
BRANCH  15  16
HETATM   16  O3  UNL     1      24.100   7.836  51.501  1.00  0.00    -0.399 OA
HETATM   17  H16 UNL     1      24.358   8.720  51.140  1.00  0.00     0.209 HD
ENDBRANCH  15  16
ENDBRANCH  14  15
BRANCH  14  18
HETATM   18  C12 UNL     1      24.426   6.380  48.313  1.00  0.00     0.066 A 
HETATM   19  C13 UNL     1      23.561   5.344  48.920  1.00  0.00    -0.016 A 
HETATM   20  C14 UNL     1      22.272   5.552  48.643  1.00  0.00    -0.004 A 
HETATM   21  C15 UNL     1      22.166   6.751  47.822  1.00  0.00    -0.004 A 
HETATM   22  C16 UNL     1      23.385   7.231  47.628  1.00  0.00    -0.016 A 
ENDBRANCH  14  18
ENDBRANCH  12  14
BRANCH   1  23
HETATM   23  S1  UNL     1      32.678   6.181  47.158  1.00  0.00     0.233 S 
HETATM   24  O1  UNL     1      32.701   6.205  45.636  1.00  0.00    -0.207 OA
HETATM   25  O2  UNL     1      33.703   7.145  47.642  1.00  0.00    -0.207 OA
BRANCH  23  26
HETATM   26  C2  UNL     1      33.089   4.542  47.626  1.00  0.00     0.115 C 
HETATM   27  C1  UNL     1      34.365   4.129  47.681  1.00  0.00     0.024 C 
ENDBRANCH  23  26
ENDBRANCH   1  23
TORSDOF 6
ENDMDL
