MODEL 1
REMARK VINA RESULT:      -8.3      0.000      0.000
REMARK  5 active torsions:
REMARK  status: ('A' for Active; 'I' for Inactive)
REMARK    1  A    between atoms: C2_2  and  C3_3 
REMARK    2  A    between atoms: C4_4  and  C5_5 
REMARK    3  A    between atoms: C5_5  and  C6_6 
REMARK    4  A    between atoms: C9_13  and  N4_14 
REMARK    5  A    between atoms: N4_14  and  C10_15 
ROOT
HETATM    1  C6  UNL     1      26.534   2.238  51.244  1.00  0.00     0.133 C 
HETATM    2  N1  UNL     1      27.404   2.816  52.058  1.00  0.00    -0.214 NA
HETATM    3  C7  UNL     1      27.655   2.079  53.286  1.00  0.00     0.171 C 
HETATM    4  N2  UNL     1      28.790   2.168  53.898  1.00  0.00    -0.151 NA
HETATM    5  N3  UNL     1      28.893   1.402  55.060  1.00  0.00    -0.248 N 
HETATM    6  S1  UNL     1      27.787   0.017  54.637  1.00  0.00    -0.016 SA
HETATM    7  C8  UNL     1      26.600   1.153  53.855  1.00  0.00     0.213 C 
HETATM    8  C9  UNL     1      25.744   0.616  52.833  1.00  0.00     0.129 C 
HETATM    9  N5  UNL     1      25.711   1.127  51.628  1.00  0.00    -0.218 NA
HETATM   10  H8  UNL     1      29.501   1.705  55.870  1.00  0.00     0.197 HD
ENDROOT
BRANCH   8  11
HETATM   11  N4  UNL     1      24.960  -0.486  53.233  1.00  0.00    -0.343 N 
HETATM   12  H10 UNL     1      25.299  -1.470  53.278  1.00  0.00     0.167 HD
BRANCH  11  13
HETATM   13  C10 UNL     1      23.583  -0.272  53.614  1.00  0.00     0.035 A 
HETATM   14  C11 UNL     1      22.997  -1.057  54.592  1.00  0.00     0.029 A 
HETATM   15  C12 UNL     1      21.679  -0.824  54.932  1.00  0.00     0.004 A 
HETATM   16  C13 UNL     1      20.917   0.171  54.329  1.00  0.00     0.024 A 
HETATM   17  C14 UNL     1      21.513   0.958  53.344  1.00  0.00     0.036 A 
HETATM   18 CL1  UNL     1      20.531   2.189  52.614  1.00  0.00    -0.084 Cl
HETATM   19  C15 UNL     1      22.830   0.720  53.011  1.00  0.00     0.053 A 
ENDBRANCH  11  13
ENDBRANCH   8  11
BRANCH   1  20
HETATM   20  C5  UNL     1      26.064   2.703  49.902  1.00  0.00     0.108 C 
BRANCH  20  21
HETATM   21  C4  UNL     1      26.949   3.757  49.341  1.00  0.00    -0.019 C 
HETATM   22  C3  UNL     1      26.536   4.979  49.035  1.00  0.00    -0.004 C 
BRANCH  22  23
HETATM   23  C2  UNL     1      27.335   6.070  48.483  1.00  0.00    -0.011 C 
HETATM   24  C1  UNL     1      28.629   5.936  48.208  1.00  0.00     0.011 C 
ENDBRANCH  22  23
ENDBRANCH  20  21
ENDBRANCH   1  20
TORSDOF 5
ENDMDL
MODEL 2
REMARK VINA RESULT:      -8.0      2.561      5.224
REMARK  5 active torsions:
REMARK  status: ('A' for Active; 'I' for Inactive)
REMARK    1  A    between atoms: C2_2  and  C3_3 
REMARK    2  A    between atoms: C4_4  and  C5_5 
REMARK    3  A    between atoms: C5_5  and  C6_6 
REMARK    4  A    between atoms: C9_13  and  N4_14 
REMARK    5  A    between atoms: N4_14  and  C10_15 
ROOT
HETATM    1  C6  UNL     1      25.304  -0.288  54.106  1.00  0.00     0.133 C 
HETATM    2  N1  UNL     1      26.509  -0.830  54.193  1.00  0.00    -0.214 NA
HETATM    3  C7  UNL     1      27.594   0.065  53.824  1.00  0.00     0.171 C 
HETATM    4  N2  UNL     1      28.773  -0.068  54.338  1.00  0.00    -0.151 NA
HETATM    5  N3  UNL     1      29.715   0.863  53.898  1.00  0.00    -0.248 N 
HETATM    6  S1  UNL     1      28.631   2.290  53.564  1.00  0.00    -0.016 SA
HETATM    7  C8  UNL     1      27.355   1.204  52.855  1.00  0.00     0.213 C 
HETATM    8  C9  UNL     1      25.995   1.668  52.893  1.00  0.00     0.129 C 
HETATM    9  N5  UNL     1      25.048   0.969  53.466  1.00  0.00    -0.218 NA
HETATM   10  H8  UNL     1      30.743   0.624  53.839  1.00  0.00     0.197 HD
ENDROOT
BRANCH   8  11
HETATM   11  N4  UNL     1      25.776   2.916  52.272  1.00  0.00    -0.343 N 
HETATM   12  H10 UNL     1      26.488   3.671  52.191  1.00  0.00     0.167 HD
BRANCH  11  13
HETATM   13  C10 UNL     1      24.483   3.199  51.695  1.00  0.00     0.035 A 
HETATM   14  C11 UNL     1      23.539   3.917  52.410  1.00  0.00     0.029 A 
HETATM   15  C12 UNL     1      22.313   4.171  51.828  1.00  0.00     0.004 A 
HETATM   16  C13 UNL     1      21.988   3.732  50.549  1.00  0.00     0.024 A 
HETATM   17  C14 UNL     1      22.943   3.009  49.834  1.00  0.00     0.036 A 
HETATM   18 CL1  UNL     1      22.502   2.478  48.241  1.00  0.00    -0.084 Cl
HETATM   19  C15 UNL     1      24.165   2.761  50.421  1.00  0.00     0.053 A 
ENDBRANCH  11  13
ENDBRANCH   8  11
BRANCH   1  20
HETATM   20  C5  UNL     1      23.980  -0.908  54.425  1.00  0.00     0.108 C 
BRANCH  20  21
HETATM   21  C4  UNL     1      22.945  -0.551  53.419  1.00  0.00    -0.019 C 
HETATM   22  C3  UNL     1      21.703  -0.209  53.731  1.00  0.00    -0.004 C 
BRANCH  22  23
HETATM   23  C2  UNL     1      20.629   0.156  52.811  1.00  0.00    -0.011 C 
HETATM   24  C1  UNL     1      20.834   0.322  51.508  1.00  0.00     0.011 C 
ENDBRANCH  22  23
ENDBRANCH  20  21
ENDBRANCH   1  20
TORSDOF 5
ENDMDL
MODEL 3
REMARK VINA RESULT:      -7.7      1.583      2.501
REMARK  5 active torsions:
REMARK  status: ('A' for Active; 'I' for Inactive)
REMARK    1  A    between atoms: C2_2  and  C3_3 
REMARK    2  A    between atoms: C4_4  and  C5_5 
REMARK    3  A    between atoms: C5_5  and  C6_6 
REMARK    4  A    between atoms: C9_13  and  N4_14 
REMARK    5  A    between atoms: N4_14  and  C10_15 
ROOT
HETATM    1  C6  UNL     1      26.375   2.381  51.336  1.00  0.00     0.133 C 
HETATM    2  N1  UNL     1      27.496   2.628  51.997  1.00  0.00    -0.214 NA
HETATM    3  C7  UNL     1      27.889   1.575  52.920  1.00  0.00     0.171 C 
HETATM    4  N2  UNL     1      29.131   1.375  53.214  1.00  0.00    -0.151 NA
HETATM    5  N3  UNL     1      29.362   0.329  54.109  1.00  0.00    -0.248 N 
HETATM    6  S1  UNL     1      27.965  -0.766  53.698  1.00  0.00    -0.016 SA
HETATM    7  C8  UNL     1      26.847   0.659  53.529  1.00  0.00     0.213 C 
HETATM    8  C9  UNL     1      25.700   0.505  52.677  1.00  0.00     0.129 C 
HETATM    9  N5  UNL     1      25.482   1.309  51.669  1.00  0.00    -0.218 NA
HETATM   10  H8  UNL     1      30.184   0.342  54.775  1.00  0.00     0.197 HD
ENDROOT
BRANCH   8  11
HETATM   11  N4  UNL     1      24.849  -0.568  53.017  1.00  0.00    -0.343 N 
HETATM   12  H10 UNL     1      25.120  -1.573  52.989  1.00  0.00     0.167 HD
BRANCH  11  13
HETATM   13  C10 UNL     1      23.496  -0.288  53.439  1.00  0.00     0.035 A 
HETATM   14  C11 UNL     1      22.950  -0.951  54.525  1.00  0.00     0.029 A 
HETATM   15  C12 UNL     1      21.654  -0.659  54.900  1.00  0.00     0.004 A 
HETATM   16  C13 UNL     1      20.874   0.277  54.229  1.00  0.00     0.024 A 
HETATM   17  C14 UNL     1      21.430   0.941  53.135  1.00  0.00     0.036 A 
HETATM   18 CL1  UNL     1      20.428   2.102  52.323  1.00  0.00    -0.084 Cl
HETATM   19  C15 UNL     1      22.725   0.645  52.767  1.00  0.00     0.053 A 
ENDBRANCH  11  13
ENDBRANCH   8  11
BRANCH   1  20
HETATM   20  C5  UNL     1      25.699   3.227  50.303  1.00  0.00     0.108 C 
BRANCH  20  21
HETATM   21  C4  UNL     1      24.238   2.956  50.237  1.00  0.00    -0.019 C 
HETATM   22  C3  UNL     1      23.554   2.884  49.104  1.00  0.00    -0.004 C 
BRANCH  22  23
HETATM   23  C2  UNL     1      22.125   2.623  48.949  1.00  0.00    -0.011 C 
HETATM   24  C1  UNL     1      21.653   1.425  48.617  1.00  0.00     0.011 C 
ENDBRANCH  22  23
ENDBRANCH  20  21
ENDBRANCH   1  20
TORSDOF 5
ENDMDL
MODEL 4
REMARK VINA RESULT:      -7.5      3.233      5.063
REMARK  5 active torsions:
REMARK  status: ('A' for Active; 'I' for Inactive)
REMARK    1  A    between atoms: C2_2  and  C3_3 
REMARK    2  A    between atoms: C4_4  and  C5_5 
REMARK    3  A    between atoms: C5_5  and  C6_6 
REMARK    4  A    between atoms: C9_13  and  N4_14 
REMARK    5  A    between atoms: N4_14  and  C10_15 
ROOT
HETATM    1  C6  UNL     1      24.321   3.582  50.193  1.00  0.00     0.133 C 
HETATM    2  N1  UNL     1      23.412   2.757  49.697  1.00  0.00    -0.214 NA
HETATM    3  C7  UNL     1      22.969   1.729  50.626  1.00  0.00     0.171 C 
HETATM    4  N2  UNL     1      21.782   1.223  50.545  1.00  0.00    -0.151 NA
HETATM    5  N3  UNL     1      21.492   0.251  51.503  1.00  0.00    -0.248 N 
HETATM    6  S1  UNL     1      22.530   0.831  52.883  1.00  0.00    -0.016 SA
HETATM    7  C8  UNL     1      23.880   1.256  51.739  1.00  0.00     0.213 C 
HETATM    8  C9  UNL     1      24.802   2.278  52.153  1.00  0.00     0.129 C 
HETATM    9  N5  UNL     1      25.009   3.348  51.429  1.00  0.00    -0.218 NA
HETATM   10  H8  UNL     1      20.820  -0.541  51.301  1.00  0.00     0.197 HD
ENDROOT
BRANCH   8  11
HETATM   11  N4  UNL     1      25.450   2.030  53.381  1.00  0.00    -0.343 N 
HETATM   12  H10 UNL     1      25.112   2.363  54.308  1.00  0.00     0.167 HD
BRANCH  11  13
HETATM   13  C10 UNL     1      26.674   1.263  53.391  1.00  0.00     0.035 A 
HETATM   14  C11 UNL     1      27.882   1.874  53.680  1.00  0.00     0.029 A 
HETATM   15  C12 UNL     1      29.032   1.111  53.681  1.00  0.00     0.004 A 
HETATM   16  C13 UNL     1      29.025  -0.252  53.403  1.00  0.00     0.024 A 
HETATM   17  C14 UNL     1      27.804  -0.863  53.112  1.00  0.00     0.036 A 
HETATM   18 CL1  UNL     1      27.834  -2.564  52.770  1.00  0.00    -0.084 Cl
HETATM   19  C15 UNL     1      26.660  -0.094  53.114  1.00  0.00     0.053 A 
ENDBRANCH  11  13
ENDBRANCH   8  11
BRANCH   1  20
HETATM   20  C5  UNL     1      24.974   4.755  49.530  1.00  0.00     0.108 C 
BRANCH  20  21
HETATM   21  C4  UNL     1      26.434   4.544  49.346  1.00  0.00    -0.019 C 
HETATM   22  C3  UNL     1      27.198   5.311  48.581  1.00  0.00    -0.004 C 
BRANCH  22  23
HETATM   23  C2  UNL     1      28.633   5.177  48.346  1.00  0.00    -0.011 C 
HETATM   24  C1  UNL     1      29.438   6.229  48.240  1.00  0.00     0.011 C 
ENDBRANCH  22  23
ENDBRANCH  20  21
ENDBRANCH   1  20
TORSDOF 5
ENDMDL
MODEL 5
REMARK VINA RESULT:      -7.4      1.677      1.985
REMARK  5 active torsions:
REMARK  status: ('A' for Active; 'I' for Inactive)
REMARK    1  A    between atoms: C2_2  and  C3_3 
REMARK    2  A    between atoms: C4_4  and  C5_5 
REMARK    3  A    between atoms: C5_5  and  C6_6 
REMARK    4  A    between atoms: C9_13  and  N4_14 
REMARK    5  A    between atoms: N4_14  and  C10_15 
ROOT
HETATM    1  C6  UNL     1      26.322   2.658  50.920  1.00  0.00     0.133 C 
HETATM    2  N1  UNL     1      27.450   2.681  51.613  1.00  0.00    -0.214 NA
HETATM    3  C7  UNL     1      27.360   2.055  52.923  1.00  0.00     0.171 C 
HETATM    4  N2  UNL     1      28.393   1.511  53.476  1.00  0.00    -0.151 NA
HETATM    5  N3  UNL     1      28.159   0.945  54.729  1.00  0.00    -0.248 N 
HETATM    6  S1  UNL     1      26.415   0.452  54.544  1.00  0.00    -0.016 SA
HETATM    7  C8  UNL     1      26.034   1.991  53.653  1.00  0.00     0.213 C 
HETATM    8  C9  UNL     1      24.919   1.974  52.747  1.00  0.00     0.129 C 
HETATM    9  N5  UNL     1      25.056   2.292  51.485  1.00  0.00    -0.218 NA
HETATM   10  H8  UNL     1      28.916   0.901  55.467  1.00  0.00     0.197 HD
ENDROOT
BRANCH   8  11
HETATM   11  N4  UNL     1      23.690   1.593  53.326  1.00  0.00    -0.343 N 
HETATM   12  H10 UNL     1      23.557   1.348  54.329  1.00  0.00     0.167 HD
BRANCH  11  13
HETATM   13  C10 UNL     1      22.509   1.528  52.496  1.00  0.00     0.035 A 
HETATM   14  C11 UNL     1      22.173   0.352  51.848  1.00  0.00     0.029 A 
HETATM   15  C12 UNL     1      21.037   0.326  51.064  1.00  0.00     0.004 A 
HETATM   16  C13 UNL     1      20.216   1.436  50.899  1.00  0.00     0.024 A 
HETATM   17  C14 UNL     1      20.561   2.619  51.554  1.00  0.00     0.036 A 
HETATM   18 CL1  UNL     1      19.514   3.984  51.325  1.00  0.00    -0.084 Cl
HETATM   19  C15 UNL     1      21.696   2.637  52.337  1.00  0.00     0.053 A 
ENDBRANCH  11  13
ENDBRANCH   8  11
BRANCH   1  20
HETATM   20  C5  UNL     1      26.065   3.185  49.543  1.00  0.00     0.108 C 
BRANCH  20  21
HETATM   21  C4  UNL     1      26.654   4.537  49.350  1.00  0.00    -0.019 C 
HETATM   22  C3  UNL     1      27.698   4.780  48.571  1.00  0.00    -0.004 C 
BRANCH  22  23
HETATM   23  C2  UNL     1      28.336   6.071  48.325  1.00  0.00    -0.011 C 
HETATM   24  C1  UNL     1      27.688   7.223  48.468  1.00  0.00     0.011 C 
ENDBRANCH  22  23
ENDBRANCH  20  21
ENDBRANCH   1  20
TORSDOF 5
ENDMDL
MODEL 6
REMARK VINA RESULT:      -7.4      3.729      6.716
REMARK  5 active torsions:
REMARK  status: ('A' for Active; 'I' for Inactive)
REMARK    1  A    between atoms: C2_2  and  C3_3 
REMARK    2  A    between atoms: C4_4  and  C5_5 
REMARK    3  A    between atoms: C5_5  and  C6_6 
REMARK    4  A    between atoms: C9_13  and  N4_14 
REMARK    5  A    between atoms: N4_14  and  C10_15 
ROOT
HETATM    1  C6  UNL     1      21.563   2.438  51.053  1.00  0.00     0.133 C 
HETATM    2  N1  UNL     1      20.904   3.580  51.177  1.00  0.00    -0.214 NA
HETATM    3  C7  UNL     1      21.751   4.734  51.434  1.00  0.00     0.171 C 
HETATM    4  N2  UNL     1      21.399   5.918  51.054  1.00  0.00    -0.151 NA
HETATM    5  N3  UNL     1      22.310   6.929  51.362  1.00  0.00    -0.248 N 
HETATM    6  S1  UNL     1      23.871   5.991  51.303  1.00  0.00    -0.016 SA
HETATM    7  C8  UNL     1      23.090   4.566  52.121  1.00  0.00     0.213 C 
HETATM    8  C9  UNL     1      23.661   3.269  51.879  1.00  0.00     0.129 C 
HETATM    9  N5  UNL     1      22.948   2.286  51.393  1.00  0.00    -0.218 NA
HETATM   10  H8  UNL     1      21.993   7.921  51.551  1.00  0.00     0.197 HD
ENDROOT
BRANCH   8  11
HETATM   11  N4  UNL     1      25.029   3.152  52.206  1.00  0.00    -0.343 N 
HETATM   12  H10 UNL     1      25.704   3.945  52.225  1.00  0.00     0.167 HD
BRANCH  11  13
HETATM   13  C10 UNL     1      25.565   1.855  52.544  1.00  0.00     0.035 A 
HETATM   14  C11 UNL     1      26.421   1.203  51.673  1.00  0.00     0.029 A 
HETATM   15  C12 UNL     1      26.916  -0.036  52.028  1.00  0.00     0.004 A 
HETATM   16  C13 UNL     1      26.587  -0.656  53.229  1.00  0.00     0.024 A 
HETATM   17  C14 UNL     1      25.724   0.006  54.102  1.00  0.00     0.036 A 
HETATM   18 CL1  UNL     1      25.336  -0.798  55.591  1.00  0.00    -0.084 Cl
HETATM   19  C15 UNL     1      25.235   1.243  53.741  1.00  0.00     0.053 A 
ENDBRANCH  11  13
ENDBRANCH   8  11
BRANCH   1  20
HETATM   20  C5  UNL     1      21.016   1.075  50.767  1.00  0.00     0.108 C 
BRANCH  20  21
HETATM   21  C4  UNL     1      21.316   0.118  51.864  1.00  0.00    -0.019 C 
HETATM   22  C3  UNL     1      20.529  -0.067  52.915  1.00  0.00    -0.004 C 
BRANCH  22  23
HETATM   23  C2  UNL     1      20.746  -0.983  54.032  1.00  0.00    -0.011 C 
HETATM   24  C1  UNL     1      21.845  -0.944  54.779  1.00  0.00     0.011 C 
ENDBRANCH  22  23
ENDBRANCH  20  21
ENDBRANCH   1  20
TORSDOF 5
ENDMDL
MODEL 7
REMARK VINA RESULT:      -7.2      3.602      5.777
REMARK  5 active torsions:
REMARK  status: ('A' for Active; 'I' for Inactive)
REMARK    1  A    between atoms: C2_2  and  C3_3 
REMARK    2  A    between atoms: C4_4  and  C5_5 
REMARK    3  A    between atoms: C5_5  and  C6_6 
REMARK    4  A    between atoms: C9_13  and  N4_14 
REMARK    5  A    between atoms: N4_14  and  C10_15 
ROOT
HETATM    1  C6  UNL     1      23.844   0.028  53.436  1.00  0.00     0.133 C 
HETATM    2  N1  UNL     1      23.204  -0.762  54.284  1.00  0.00    -0.214 NA
HETATM    3  C7  UNL     1      21.758  -0.751  54.136  1.00  0.00     0.171 C 
HETATM    4  N2  UNL     1      21.046  -1.783  54.449  1.00  0.00    -0.151 NA
HETATM    5  N3  UNL     1      19.673  -1.633  54.252  1.00  0.00    -0.248 N 
HETATM    6  S1  UNL     1      19.671  -0.471  52.848  1.00  0.00    -0.016 SA
HETATM    7  C8  UNL     1      21.053   0.465  53.570  1.00  0.00     0.213 C 
HETATM    8  C9  UNL     1      21.894   1.206  52.670  1.00  0.00     0.129 C 
HETATM    9  N5  UNL     1      23.186   1.005  52.618  1.00  0.00    -0.218 NA
HETATM   10  H8  UNL     1      18.968  -2.139  54.856  1.00  0.00     0.197 HD
ENDROOT
BRANCH   8  11
HETATM   11  N4  UNL     1      21.218   2.147  51.866  1.00  0.00    -0.343 N 
HETATM   12  H10 UNL     1      20.440   2.758  52.193  1.00  0.00     0.167 HD
BRANCH  11  13
HETATM   13  C10 UNL     1      21.606   2.302  50.483  1.00  0.00     0.035 A 
HETATM   14  C11 UNL     1      21.388   1.280  49.576  1.00  0.00     0.029 A 
HETATM   15  C12 UNL     1      21.772   1.462  48.262  1.00  0.00     0.004 A 
HETATM   16  C13 UNL     1      22.369   2.635  47.814  1.00  0.00     0.024 A 
HETATM   17  C14 UNL     1      22.587   3.662  48.733  1.00  0.00     0.036 A 
HETATM   18 CL1  UNL     1      23.335   5.110  48.138  1.00  0.00    -0.084 Cl
HETATM   19  C15 UNL     1      22.200   3.473  50.043  1.00  0.00     0.053 A 
ENDBRANCH  11  13
ENDBRANCH   8  11
BRANCH   1  20
HETATM   20  C5  UNL     1      25.319   0.242  53.295  1.00  0.00     0.108 C 
BRANCH  20  21
HETATM   21  C4  UNL     1      25.629   1.539  52.638  1.00  0.00    -0.019 C 
HETATM   22  C3  UNL     1      26.394   1.655  51.562  1.00  0.00    -0.004 C 
BRANCH  22  23
HETATM   23  C2  UNL     1      26.748   2.884  50.857  1.00  0.00    -0.011 C 
HETATM   24  C1  UNL     1      26.185   3.228  49.702  1.00  0.00     0.011 C 
ENDBRANCH  22  23
ENDBRANCH  20  21
ENDBRANCH   1  20
TORSDOF 5
ENDMDL
MODEL 8
REMARK VINA RESULT:      -7.2      4.082      7.132
REMARK  5 active torsions:
REMARK  status: ('A' for Active; 'I' for Inactive)
REMARK    1  A    between atoms: C2_2  and  C3_3 
REMARK    2  A    between atoms: C4_4  and  C5_5 
REMARK    3  A    between atoms: C5_5  and  C6_6 
REMARK    4  A    between atoms: C9_13  and  N4_14 
REMARK    5  A    between atoms: N4_14  and  C10_15 
ROOT
HETATM    1  C6  UNL     1      20.839   1.973  52.726  1.00  0.00     0.133 C 
HETATM    2  N1  UNL     1      20.201   3.113  52.507  1.00  0.00    -0.214 NA
HETATM    3  C7  UNL     1      20.934   4.059  51.681  1.00  0.00     0.171 C 
HETATM    4  N2  UNL     1      20.315   4.919  50.941  1.00  0.00    -0.151 NA
HETATM    5  N3  UNL     1      21.144   5.760  50.198  1.00  0.00    -0.248 N 
HETATM    6  S1  UNL     1      22.574   4.662  49.937  1.00  0.00    -0.016 SA
HETATM    7  C8  UNL     1      22.448   4.030  51.639  1.00  0.00     0.213 C 
HETATM    8  C9  UNL     1      22.970   2.717  51.898  1.00  0.00     0.129 C 
HETATM    9  N5  UNL     1      22.223   1.771  52.409  1.00  0.00    -0.218 NA
HETATM   10  H8  UNL     1      20.851   6.745  49.947  1.00  0.00     0.197 HD
ENDROOT
BRANCH   8  11
HETATM   11  N4  UNL     1      24.328   2.540  51.561  1.00  0.00    -0.343 N 
HETATM   12  H10 UNL     1      24.790   2.953  50.724  1.00  0.00     0.167 HD
BRANCH  11  13
HETATM   13  C10 UNL     1      25.169   1.735  52.415  1.00  0.00     0.035 A 
HETATM   14  C11 UNL     1      25.637   2.241  53.616  1.00  0.00     0.029 A 
HETATM   15  C12 UNL     1      26.439   1.444  54.408  1.00  0.00     0.004 A 
HETATM   16  C13 UNL     1      26.794   0.149  54.047  1.00  0.00     0.024 A 
HETATM   17  C14 UNL     1      26.320  -0.356  52.836  1.00  0.00     0.036 A 
HETATM   18 CL1  UNL     1      26.784  -1.975  52.418  1.00  0.00    -0.084 Cl
HETATM   19  C15 UNL     1      25.519   0.446  52.050  1.00  0.00     0.053 A 
ENDBRANCH  11  13
ENDBRANCH   8  11
BRANCH   1  20
HETATM   20  C5  UNL     1      20.377   0.783  53.505  1.00  0.00     0.108 C 
BRANCH  20  21
HETATM   21  C4  UNL     1      21.491   0.146  54.255  1.00  0.00    -0.019 C 
HETATM   22  C3  UNL     1      21.532  -1.145  54.556  1.00  0.00    -0.004 C 
BRANCH  22  23
HETATM   23  C2  UNL     1      22.584  -1.849  55.285  1.00  0.00    -0.011 C 
HETATM   24  C1  UNL     1      23.755  -1.286  55.564  1.00  0.00     0.011 C 
ENDBRANCH  22  23
ENDBRANCH  20  21
ENDBRANCH   1  20
TORSDOF 5
ENDMDL
MODEL 9
REMARK VINA RESULT:      -7.0      3.753      5.381
REMARK  5 active torsions:
REMARK  status: ('A' for Active; 'I' for Inactive)
REMARK    1  A    between atoms: C2_2  and  C3_3 
REMARK    2  A    between atoms: C4_4  and  C5_5 
REMARK    3  A    between atoms: C5_5  and  C6_6 
REMARK    4  A    between atoms: C9_13  and  N4_14 
REMARK    5  A    between atoms: N4_14  and  C10_15 
ROOT
HETATM    1  C6  UNL     1      24.559   1.260  53.040  1.00  0.00     0.133 C 
HETATM    2  N1  UNL     1      24.821   2.527  53.324  1.00  0.00    -0.214 NA
HETATM    3  C7  UNL     1      23.955   3.482  52.652  1.00  0.00     0.171 C 
HETATM    4  N2  UNL     1      23.691   4.631  53.181  1.00  0.00    -0.151 NA
HETATM    5  N3  UNL     1      22.842   5.444  52.429  1.00  0.00    -0.248 N 
HETATM    6  S1  UNL     1      21.839   4.176  51.588  1.00  0.00    -0.016 SA
HETATM    7  C8  UNL     1      23.305   3.131  51.330  1.00  0.00     0.213 C 
HETATM    8  C9  UNL     1      23.094   1.716  51.190  1.00  0.00     0.129 C 
HETATM    9  N5  UNL     1      23.684   0.854  51.979  1.00  0.00    -0.218 NA
HETATM   10  H8  UNL     1      22.910   6.498  52.465  1.00  0.00     0.197 HD
ENDROOT
BRANCH   8  11
HETATM   11  N4  UNL     1      22.216   1.347  50.150  1.00  0.00    -0.343 N 
HETATM   12  H10 UNL     1      22.472   1.311  49.142  1.00  0.00     0.167 HD
BRANCH  11  13
HETATM   13  C10 UNL     1      20.854   0.986  50.471  1.00  0.00     0.035 A 
HETATM   14  C11 UNL     1      19.816   1.353  49.632  1.00  0.00     0.029 A 
HETATM   15  C12 UNL     1      18.527   0.992  49.970  1.00  0.00     0.004 A 
HETATM   16  C13 UNL     1      18.230   0.272  51.122  1.00  0.00     0.024 A 
HETATM   17  C14 UNL     1      19.281  -0.094  51.964  1.00  0.00     0.036 A 
HETATM   18 CL1  UNL     1      18.872  -0.991  53.392  1.00  0.00    -0.084 Cl
HETATM   19  C15 UNL     1      20.565   0.269  51.620  1.00  0.00     0.053 A 
ENDBRANCH  11  13
ENDBRANCH   8  11
BRANCH   1  20
HETATM   20  C5  UNL     1      25.232   0.030  53.565  1.00  0.00     0.108 C 
BRANCH  20  21
HETATM   21  C4  UNL     1      26.703   0.073  53.355  1.00  0.00    -0.019 C 
HETATM   22  C3  UNL     1      27.587   0.095  54.343  1.00  0.00    -0.004 C 
BRANCH  22  23
HETATM   23  C2  UNL     1      29.042   0.136  54.227  1.00  0.00    -0.011 C 
HETATM   24  C1  UNL     1      29.726  -0.773  53.540  1.00  0.00     0.011 C 
ENDBRANCH  22  23
ENDBRANCH  20  21
ENDBRANCH   1  20
TORSDOF 5
ENDMDL
