MODEL 1
REMARK VINA RESULT:      -6.8      0.000      0.000
REMARK  5 active torsions:
REMARK  status: ('A' for Active; 'I' for Inactive)
REMARK    1  A    between atoms: C9_10  and  C10_11 
REMARK    2  A    between atoms: C10_11  and  N2_12 
REMARK    3  A    between atoms: C10_11  and  C11_13 
REMARK    4  A    between atoms: C16_18  and  O1_19 
REMARK    5  A    between atoms: O1_19  and  S1_20 
ROOT
HETATM    1  C10 UNL     1      24.611  -0.061  53.842  1.00  0.00     0.276 C 
ENDROOT
BRANCH   1   2
HETATM    2  C9  UNL     1      25.444  -0.126  52.658  1.00  0.00     0.126 C 
HETATM    3  N1  UNL     1      26.649  -0.941  52.780  1.00  0.00    -0.377 N 
HETATM    4  C1  UNL     1      26.967  -2.336  52.539  1.00  0.00     0.150 C 
HETATM    5  C2  UNL     1      27.613   0.028  53.254  1.00  0.00     0.036 A 
HETATM    6  C3  UNL     1      28.778  -0.092  54.026  1.00  0.00     0.030 A 
HETATM    7  C7  UNL     1      27.234   1.304  52.814  1.00  0.00    -0.030 A 
HETATM    8  C4  UNL     1      29.551   1.002  54.360  1.00  0.00     0.002 A 
HETATM    9  C5  UNL     1      29.103   2.217  53.885  1.00  0.00     0.001 A 
HETATM   10  C6  UNL     1      27.973   2.427  53.122  1.00  0.00     0.009 A 
HETATM   11  C8  UNL     1      25.974   1.093  52.024  1.00  0.00     0.068 C 
ENDBRANCH   1   2
BRANCH   1  12
HETATM   12  N2  UNL     1      25.089  -1.067  54.808  1.00  0.00     0.089 N 
HETATM   13  H12 UNL     1      24.355  -1.789  54.954  1.00  0.00     0.313 HD
HETATM   14  H13 UNL     1      25.945  -1.551  54.482  1.00  0.00     0.313 HD
ENDBRANCH   1  12
BRANCH   1  15
HETATM   15  C11 UNL     1      23.168  -0.174  53.740  1.00  0.00     0.011 A 
HETATM   16  C12 UNL     1      22.628  -1.309  54.359  1.00  0.00     0.012 A 
HETATM   17  C13 UNL     1      21.283  -1.614  54.390  1.00  0.00     0.001 A 
HETATM   18  C14 UNL     1      20.397  -0.779  53.790  1.00  0.00     0.003 A 
HETATM   19  C15 UNL     1      20.867   0.346  53.169  1.00  0.00     0.039 A 
HETATM   20  C16 UNL     1      22.217   0.628  53.152  1.00  0.00     0.092 A 
BRANCH  20  21
HETATM   21  O1  UNL     1      22.646   1.772  52.512  1.00  0.00    -0.281 OA
BRANCH  21  22
HETATM   22  S1  UNL     1      22.543   2.138  50.850  1.00  0.00    -0.017 SA
HETATM   23  H18 UNL     1      21.581   3.079  50.519  1.00  0.00     0.134 HD
ENDBRANCH  21  22
ENDBRANCH  20  21
ENDBRANCH   1  15
TORSDOF 5
ENDMDL
MODEL 2
REMARK VINA RESULT:      -6.8      2.124      2.762
REMARK  5 active torsions:
REMARK  status: ('A' for Active; 'I' for Inactive)
REMARK    1  A    between atoms: C9_10  and  C10_11 
REMARK    2  A    between atoms: C10_11  and  N2_12 
REMARK    3  A    between atoms: C10_11  and  C11_13 
REMARK    4  A    between atoms: C16_18  and  O1_19 
REMARK    5  A    between atoms: O1_19  and  S1_20 
ROOT
HETATM    1  C10 UNL     1      23.559   1.327  51.636  1.00  0.00     0.276 C 
ENDROOT
BRANCH   1   2
HETATM    2  C9  UNL     1      24.470   2.378  52.042  1.00  0.00     0.126 C 
HETATM    3  N1  UNL     1      25.805   2.316  51.453  1.00  0.00    -0.377 N 
HETATM    4  C1  UNL     1      26.417   2.857  50.254  1.00  0.00     0.150 C 
HETATM    5  C2  UNL     1      26.514   1.500  52.414  1.00  0.00     0.036 A 
HETATM    6  C3  UNL     1      27.620   0.646  52.301  1.00  0.00     0.030 A 
HETATM    7  C7  UNL     1      25.914   1.651  53.672  1.00  0.00    -0.030 A 
HETATM    8  C4  UNL     1      28.127  -0.043  53.385  1.00  0.00     0.002 A 
HETATM    9  C5  UNL     1      27.475   0.165  54.582  1.00  0.00     0.001 A 
HETATM   10  C6  UNL     1      26.384   0.984  54.785  1.00  0.00     0.009 A 
HETATM   11  C8  UNL     1      24.784   2.617  53.461  1.00  0.00     0.068 C 
ENDBRANCH   1   2
BRANCH   1  12
HETATM   12  N2  UNL     1      22.777   1.805  50.480  1.00  0.00     0.089 N 
HETATM   13  H12 UNL     1      22.682   1.040  49.782  1.00  0.00     0.313 HD
HETATM   14  H13 UNL     1      21.823   2.106  50.747  1.00  0.00     0.313 HD
ENDBRANCH   1  12
BRANCH   1  15
HETATM   15  C11 UNL     1      22.645   0.729  52.591  1.00  0.00     0.011 A 
HETATM   16  C12 UNL     1      23.053  -0.518  53.082  1.00  0.00     0.012 A 
HETATM   17  C13 UNL     1      22.343  -1.264  54.001  1.00  0.00     0.001 A 
HETATM   18  C14 UNL     1      21.168  -0.785  54.481  1.00  0.00     0.003 A 
HETATM   19  C15 UNL     1      20.720   0.429  54.037  1.00  0.00     0.039 A 
HETATM   20  C16 UNL     1      21.448   1.154  53.118  1.00  0.00     0.092 A 
BRANCH  20  21
HETATM   21  O1  UNL     1      20.956   2.372  52.696  1.00  0.00    -0.281 OA
BRANCH  21  22
HETATM   22  S1  UNL     1      19.472   2.685  51.917  1.00  0.00    -0.017 SA
HETATM   23  H18 UNL     1      18.919   3.925  52.191  1.00  0.00     0.134 HD
ENDBRANCH  21  22
ENDBRANCH  20  21
ENDBRANCH   1  15
TORSDOF 5
ENDMDL
MODEL 3
REMARK VINA RESULT:      -6.6      2.996      6.124
REMARK  5 active torsions:
REMARK  status: ('A' for Active; 'I' for Inactive)
REMARK    1  A    between atoms: C9_10  and  C10_11 
REMARK    2  A    between atoms: C10_11  and  N2_12 
REMARK    3  A    between atoms: C10_11  and  C11_13 
REMARK    4  A    between atoms: C16_18  and  O1_19 
REMARK    5  A    between atoms: O1_19  and  S1_20 
ROOT
HETATM    1  C10 UNL     1      23.265   3.250  52.202  1.00  0.00     0.276 C 
ENDROOT
BRANCH   1   2
HETATM    2  C9  UNL     1      22.291   2.431  51.510  1.00  0.00     0.126 C 
HETATM    3  N1  UNL     1      21.016   2.251  52.199  1.00  0.00    -0.377 N 
HETATM    4  C1  UNL     1      19.752   2.963  52.211  1.00  0.00     0.150 C 
HETATM    5  C2  UNL     1      21.272   1.063  52.985  1.00  0.00     0.036 A 
HETATM    6  C3  UNL     1      20.741   0.594  54.195  1.00  0.00     0.030 A 
HETATM    7  C7  UNL     1      22.251   0.292  52.343  1.00  0.00    -0.030 A 
HETATM    8  C4  UNL     1      21.153  -0.595  54.763  1.00  0.00     0.002 A 
HETATM    9  C5  UNL     1      22.119  -1.288  54.064  1.00  0.00     0.001 A 
HETATM   10  C6  UNL     1      22.695  -0.903  52.871  1.00  0.00     0.009 A 
HETATM   11  C8  UNL     1      22.601   1.052  51.096  1.00  0.00     0.068 C 
ENDBRANCH   1   2
BRANCH   1  12
HETATM   12  N2  UNL     1      23.188   4.622  51.669  1.00  0.00     0.089 N 
HETATM   13  H12 UNL     1      23.822   4.716  50.851  1.00  0.00     0.313 HD
HETATM   14  H13 UNL     1      22.232   4.870  51.356  1.00  0.00     0.313 HD
ENDBRANCH   1  12
BRANCH   1  15
HETATM   15  C11 UNL     1      24.660   2.857  52.255  1.00  0.00     0.011 A 
HETATM   16  C12 UNL     1      25.069   2.326  53.485  1.00  0.00     0.012 A 
HETATM   17  C13 UNL     1      26.347   1.884  53.758  1.00  0.00     0.001 A 
HETATM   18  C14 UNL     1      27.296   1.953  52.790  1.00  0.00     0.003 A 
HETATM   19  C15 UNL     1      26.954   2.462  51.566  1.00  0.00     0.039 A 
HETATM   20  C16 UNL     1      25.669   2.898  51.320  1.00  0.00     0.092 A 
BRANCH  20  21
HETATM   21  O1  UNL     1      25.370   3.407  50.073  1.00  0.00    -0.281 OA
BRANCH  21  22
HETATM   22  S1  UNL     1      26.101   4.730  49.284  1.00  0.00    -0.017 SA
HETATM   23  H18 UNL     1      25.984   5.941  49.947  1.00  0.00     0.134 HD
ENDBRANCH  21  22
ENDBRANCH  20  21
ENDBRANCH   1  15
TORSDOF 5
ENDMDL
MODEL 4
REMARK VINA RESULT:      -6.5      3.253      6.444
REMARK  5 active torsions:
REMARK  status: ('A' for Active; 'I' for Inactive)
REMARK    1  A    between atoms: C9_10  and  C10_11 
REMARK    2  A    between atoms: C10_11  and  N2_12 
REMARK    3  A    between atoms: C10_11  and  C11_13 
REMARK    4  A    between atoms: C16_18  and  O1_19 
REMARK    5  A    between atoms: O1_19  and  S1_20 
ROOT
HETATM    1  C10 UNL     1      23.860   2.770  52.496  1.00  0.00     0.276 C 
ENDROOT
BRANCH   1   2
HETATM    2  C9  UNL     1      23.185   3.145  51.270  1.00  0.00     0.126 C 
HETATM    3  N1  UNL     1      21.902   3.821  51.438  1.00  0.00    -0.377 N 
HETATM    4  C1  UNL     1      21.485   5.205  51.568  1.00  0.00     0.150 C 
HETATM    5  C2  UNL     1      20.982   2.704  51.457  1.00  0.00     0.036 A 
HETATM    6  C3  UNL     1      19.721   2.524  52.044  1.00  0.00     0.030 A 
HETATM    7  C7  UNL     1      21.535   1.642  50.729  1.00  0.00    -0.030 A 
HETATM    8  C4  UNL     1      19.019   1.341  51.923  1.00  0.00     0.002 A 
HETATM    9  C5  UNL     1      19.639   0.351  51.189  1.00  0.00     0.001 A 
HETATM   10  C6  UNL     1      20.873   0.441  50.580  1.00  0.00     0.009 A 
HETATM   11  C8  UNL     1      22.861   2.148  50.236  1.00  0.00     0.068 C 
ENDBRANCH   1   2
BRANCH   1  12
HETATM   12  N2  UNL     1      24.478   3.976  53.078  1.00  0.00     0.089 N 
HETATM   13  H12 UNL     1      25.491   3.997  52.845  1.00  0.00     0.313 HD
HETATM   14  H13 UNL     1      24.054   4.849  52.718  1.00  0.00     0.313 HD
ENDBRANCH   1  12
BRANCH   1  15
HETATM   15  C11 UNL     1      24.841   1.702  52.506  1.00  0.00     0.011 A 
HETATM   16  C12 UNL     1      24.398   0.511  53.096  1.00  0.00     0.012 A 
HETATM   17  C13 UNL     1      25.161  -0.633  53.209  1.00  0.00     0.001 A 
HETATM   18  C14 UNL     1      26.429  -0.638  52.726  1.00  0.00     0.003 A 
HETATM   19  C15 UNL     1      26.915   0.497  52.137  1.00  0.00     0.039 A 
HETATM   20  C16 UNL     1      26.133   1.628  52.037  1.00  0.00     0.092 A 
BRANCH  20  21
HETATM   21  O1  UNL     1      26.666   2.751  51.439  1.00  0.00    -0.281 OA
BRANCH  21  22
HETATM   22  S1  UNL     1      26.524   3.230  49.808  1.00  0.00    -0.017 SA
HETATM   23  H18 UNL     1      27.727   3.490  49.171  1.00  0.00     0.134 HD
ENDBRANCH  21  22
ENDBRANCH  20  21
ENDBRANCH   1  15
TORSDOF 5
ENDMDL
MODEL 5
REMARK VINA RESULT:      -6.5      3.872      5.850
REMARK  5 active torsions:
REMARK  status: ('A' for Active; 'I' for Inactive)
REMARK    1  A    between atoms: C9_10  and  C10_11 
REMARK    2  A    between atoms: C10_11  and  N2_12 
REMARK    3  A    between atoms: C10_11  and  C11_13 
REMARK    4  A    between atoms: C16_18  and  O1_19 
REMARK    5  A    between atoms: O1_19  and  S1_20 
ROOT
HETATM    1  C10 UNL     1      25.031   3.136  50.787  1.00  0.00     0.276 C 
ENDROOT
BRANCH   1   2
HETATM    2  C9  UNL     1      24.633   3.288  52.172  1.00  0.00     0.126 C 
HETATM    3  N1  UNL     1      25.099   2.244  53.079  1.00  0.00    -0.377 N 
HETATM    4  C1  UNL     1      26.279   2.059  53.902  1.00  0.00     0.150 C 
HETATM    5  C2  UNL     1      24.019   1.284  53.004  1.00  0.00     0.036 A 
HETATM    6  C3  UNL     1      23.969  -0.105  53.189  1.00  0.00     0.030 A 
HETATM    7  C7  UNL     1      22.832   1.955  52.677  1.00  0.00    -0.030 A 
HETATM    8  C4  UNL     1      22.796  -0.820  53.059  1.00  0.00     0.002 A 
HETATM    9  C5  UNL     1      21.678  -0.079  52.735  1.00  0.00     0.001 A 
HETATM   10  C6  UNL     1      21.635   1.285  52.535  1.00  0.00     0.009 A 
HETATM   11  C8  UNL     1      23.215   3.402  52.555  1.00  0.00     0.068 C 
ENDBRANCH   1   2
BRANCH   1  12
HETATM   12  N2  UNL     1      26.377   3.714  50.620  1.00  0.00     0.089 N 
HETATM   13  H12 UNL     1      26.510   4.011  49.632  1.00  0.00     0.313 HD
HETATM   14  H13 UNL     1      26.527   4.544  51.221  1.00  0.00     0.313 HD
ENDBRANCH   1  12
BRANCH   1  15
HETATM   15  C11 UNL     1      24.185   3.626  49.714  1.00  0.00     0.011 A 
HETATM   16  C12 UNL     1      23.417   2.639  49.082  1.00  0.00     0.012 A 
HETATM   17  C13 UNL     1      22.542   2.879  48.043  1.00  0.00     0.001 A 
HETATM   18  C14 UNL     1      22.391   4.145  47.579  1.00  0.00     0.003 A 
HETATM   19  C15 UNL     1      23.116   5.150  48.159  1.00  0.00     0.039 A 
HETATM   20  C16 UNL     1      23.985   4.884  49.196  1.00  0.00     0.092 A 
BRANCH  20  21
HETATM   21  O1  UNL     1      24.697   5.929  49.748  1.00  0.00    -0.281 OA
BRANCH  21  22
HETATM   22  S1  UNL     1      24.191   7.006  50.969  1.00  0.00    -0.017 SA
HETATM   23  H18 UNL     1      24.073   8.327  50.568  1.00  0.00     0.134 HD
ENDBRANCH  21  22
ENDBRANCH  20  21
ENDBRANCH   1  15
TORSDOF 5
ENDMDL
MODEL 6
REMARK VINA RESULT:      -6.3      3.574      5.814
REMARK  5 active torsions:
REMARK  status: ('A' for Active; 'I' for Inactive)
REMARK    1  A    between atoms: C9_10  and  C10_11 
REMARK    2  A    between atoms: C10_11  and  N2_12 
REMARK    3  A    between atoms: C10_11  and  C11_13 
REMARK    4  A    between atoms: C16_18  and  O1_19 
REMARK    5  A    between atoms: O1_19  and  S1_20 
ROOT
HETATM    1  C10 UNL     1      25.161   3.060  50.868  1.00  0.00     0.276 C 
ENDROOT
BRANCH   1   2
HETATM    2  C9  UNL     1      24.812   3.190  52.268  1.00  0.00     0.126 C 
HETATM    3  N1  UNL     1      25.251   2.097  53.131  1.00  0.00    -0.377 N 
HETATM    4  C1  UNL     1      26.445   1.829  53.912  1.00  0.00     0.150 C 
HETATM    5  C2  UNL     1      24.122   1.195  53.062  1.00  0.00     0.036 A 
HETATM    6  C3  UNL     1      24.008  -0.195  53.209  1.00  0.00     0.030 A 
HETATM    7  C7  UNL     1      22.962   1.933  52.791  1.00  0.00    -0.030 A 
HETATM    8  C4  UNL     1      22.797  -0.847  53.095  1.00  0.00     0.002 A 
HETATM    9  C5  UNL     1      21.709  -0.042  52.827  1.00  0.00     0.001 A 
HETATM   10  C6  UNL     1      21.729   1.328  52.667  1.00  0.00     0.009 A 
HETATM   11  C8  UNL     1      23.414   3.363  52.698  1.00  0.00     0.068 C 
ENDBRANCH   1   2
BRANCH   1  12
HETATM   12  N2  UNL     1      26.555   3.506  50.689  1.00  0.00     0.089 N 
HETATM   13  H12 UNL     1      26.566   4.483  50.333  1.00  0.00     0.313 HD
HETATM   14  H13 UNL     1      27.091   3.488  51.574  1.00  0.00     0.313 HD
ENDBRANCH   1  12
BRANCH   1  15
HETATM   15  C11 UNL     1      24.346   3.678  49.840  1.00  0.00     0.011 A 
HETATM   16  C12 UNL     1      24.709   4.994  49.524  1.00  0.00     0.012 A 
HETATM   17  C13 UNL     1      24.076   5.770  48.575  1.00  0.00     0.001 A 
HETATM   18  C14 UNL     1      23.028   5.254  47.884  1.00  0.00     0.003 A 
HETATM   19  C15 UNL     1      22.629   3.973  48.150  1.00  0.00     0.039 A 
HETATM   20  C16 UNL     1      23.279   3.218  49.104  1.00  0.00     0.092 A 
BRANCH  20  21
HETATM   21  O1  UNL     1      22.840   1.931  49.342  1.00  0.00    -0.281 OA
BRANCH  21  22
HETATM   22  S1  UNL     1      21.355   1.234  48.878  1.00  0.00    -0.017 SA
HETATM   23  H18 UNL     1      20.232   1.964  49.232  1.00  0.00     0.134 HD
ENDBRANCH  21  22
ENDBRANCH  20  21
ENDBRANCH   1  15
TORSDOF 5
ENDMDL
MODEL 7
REMARK VINA RESULT:      -6.2      4.420      6.201
REMARK  5 active torsions:
REMARK  status: ('A' for Active; 'I' for Inactive)
REMARK    1  A    between atoms: C9_10  and  C10_11 
REMARK    2  A    between atoms: C10_11  and  N2_12 
REMARK    3  A    between atoms: C10_11  and  C11_13 
REMARK    4  A    between atoms: C16_18  and  O1_19 
REMARK    5  A    between atoms: O1_19  and  S1_20 
ROOT
HETATM    1  C10 UNL     1      23.787   3.571  52.212  1.00  0.00     0.276 C 
ENDROOT
BRANCH   1   2
HETATM    2  C9  UNL     1      24.547   3.996  51.054  1.00  0.00     0.126 C 
HETATM    3  N1  UNL     1      24.048   5.188  50.376  1.00  0.00    -0.377 N 
HETATM    4  C1  UNL     1      24.291   6.613  50.504  1.00  0.00     0.150 C 
HETATM    5  C2  UNL     1      23.134   4.617  49.411  1.00  0.00     0.036 A 
HETATM    6  C3  UNL     1      21.984   5.116  48.782  1.00  0.00     0.030 A 
HETATM    7  C7  UNL     1      23.550   3.315  49.101  1.00  0.00    -0.030 A 
HETATM    8  C4  UNL     1      21.260   4.366  47.878  1.00  0.00     0.002 A 
HETATM    9  C5  UNL     1      21.741   3.096  47.634  1.00  0.00     0.001 A 
HETATM   10  C6  UNL     1      22.860   2.526  48.204  1.00  0.00     0.009 A 
HETATM   11  C8  UNL     1      24.789   3.088  49.920  1.00  0.00     0.068 C 
ENDBRANCH   1   2
BRANCH   1  12
HETATM   12  N2  UNL     1      24.208   4.379  53.372  1.00  0.00     0.089 N 
HETATM   13  H12 UNL     1      24.384   5.358  53.071  1.00  0.00     0.313 HD
HETATM   14  H13 UNL     1      23.488   4.405  54.116  1.00  0.00     0.313 HD
ENDBRANCH   1  12
BRANCH   1  15
HETATM   15  C11 UNL     1      23.759   2.177  52.611  1.00  0.00     0.011 A 
HETATM   16  C12 UNL     1      22.571   1.505  52.295  1.00  0.00     0.012 A 
HETATM   17  C13 UNL     1      22.329   0.176  52.576  1.00  0.00     0.001 A 
HETATM   18  C14 UNL     1      23.286  -0.558  53.199  1.00  0.00     0.003 A 
HETATM   19  C15 UNL     1      24.468   0.046  53.530  1.00  0.00     0.039 A 
HETATM   20  C16 UNL     1      24.685   1.376  53.239  1.00  0.00     0.092 A 
BRANCH  20  21
HETATM   21  O1  UNL     1      25.891   1.944  53.596  1.00  0.00    -0.281 OA
BRANCH  21  22
HETATM   22  S1  UNL     1      27.347   1.941  52.709  1.00  0.00    -0.017 SA
HETATM   23  H18 UNL     1      27.512   0.856  51.863  1.00  0.00     0.134 HD
ENDBRANCH  21  22
ENDBRANCH  20  21
ENDBRANCH   1  15
TORSDOF 5
ENDMDL
MODEL 8
REMARK VINA RESULT:      -6.2      2.785      3.873
REMARK  5 active torsions:
REMARK  status: ('A' for Active; 'I' for Inactive)
REMARK    1  A    between atoms: C9_10  and  C10_11 
REMARK    2  A    between atoms: C10_11  and  N2_12 
REMARK    3  A    between atoms: C10_11  and  C11_13 
REMARK    4  A    between atoms: C16_18  and  O1_19 
REMARK    5  A    between atoms: O1_19  and  S1_20 
ROOT
HETATM    1  C10 UNL     1      23.188   2.209  50.623  1.00  0.00     0.276 C 
ENDROOT
BRANCH   1   2
HETATM    2  C9  UNL     1      24.153   2.769  51.548  1.00  0.00     0.126 C 
HETATM    3  N1  UNL     1      25.553   2.496  51.240  1.00  0.00    -0.377 N 
HETATM    4  C1  UNL     1      26.576   3.168  50.460  1.00  0.00     0.150 C 
HETATM    5  C2  UNL     1      25.776   1.257  51.952  1.00  0.00     0.036 A 
HETATM    6  C3  UNL     1      26.661   0.189  51.744  1.00  0.00     0.030 A 
HETATM    7  C7  UNL     1      24.896   1.190  53.041  1.00  0.00    -0.030 A 
HETATM    8  C4  UNL     1      26.688  -0.912  52.576  1.00  0.00     0.002 A 
HETATM    9  C5  UNL     1      25.789  -0.893  53.621  1.00  0.00     0.001 A 
HETATM   10  C6  UNL     1      24.885   0.111  53.900  1.00  0.00     0.009 A 
HETATM   11  C8  UNL     1      24.102   2.464  52.989  1.00  0.00     0.068 C 
ENDBRANCH   1   2
BRANCH   1  12
HETATM   12  N2  UNL     1      23.151   3.055  49.416  1.00  0.00     0.089 N 
HETATM   13  H12 UNL     1      22.716   3.971  49.644  1.00  0.00     0.313 HD
HETATM   14  H13 UNL     1      24.096   3.241  49.036  1.00  0.00     0.313 HD
ENDBRANCH   1  12
BRANCH   1  15
HETATM   15  C11 UNL     1      21.824   1.948  51.043  1.00  0.00     0.011 A 
HETATM   16  C12 UNL     1      21.505   0.590  51.171  1.00  0.00     0.012 A 
HETATM   17  C13 UNL     1      20.271   0.113  51.561  1.00  0.00     0.001 A 
HETATM   18  C14 UNL     1      19.278   0.992  51.847  1.00  0.00     0.003 A 
HETATM   19  C15 UNL     1      19.532   2.332  51.741  1.00  0.00     0.039 A 
HETATM   20  C16 UNL     1      20.774   2.783  51.348  1.00  0.00     0.092 A 
BRANCH  20  21
HETATM   21  O1  UNL     1      20.985   4.143  51.251  1.00  0.00    -0.281 OA
BRANCH  21  22
HETATM   22  S1  UNL     1      20.263   5.235  50.158  1.00  0.00    -0.017 SA
HETATM   23  H18 UNL     1      19.748   6.384  50.736  1.00  0.00     0.134 HD
ENDBRANCH  21  22
ENDBRANCH  20  21
ENDBRANCH   1  15
TORSDOF 5
ENDMDL
MODEL 9
REMARK VINA RESULT:      -5.9      8.872     11.337
REMARK  5 active torsions:
REMARK  status: ('A' for Active; 'I' for Inactive)
REMARK    1  A    between atoms: C9_10  and  C10_11 
REMARK    2  A    between atoms: C10_11  and  N2_12 
REMARK    3  A    between atoms: C10_11  and  C11_13 
REMARK    4  A    between atoms: C16_18  and  O1_19 
REMARK    5  A    between atoms: O1_19  and  S1_20 
ROOT
HETATM    1  C10 UNL     1      28.244   8.597  49.347  1.00  0.00     0.276 C 
ENDROOT
BRANCH   1   2
HETATM    2  C9  UNL     1      27.853   7.822  48.186  1.00  0.00     0.126 C 
HETATM    3  N1  UNL     1      28.139   6.392  48.258  1.00  0.00    -0.377 N 
HETATM    4  C1  UNL     1      27.411   5.228  48.727  1.00  0.00     0.150 C 
HETATM    5  C2  UNL     1      29.471   6.330  47.696  1.00  0.00     0.036 A 
HETATM    6  C3  UNL     1      30.536   5.436  47.878  1.00  0.00     0.030 A 
HETATM    7  C7  UNL     1      29.647   7.405  46.814  1.00  0.00    -0.030 A 
HETATM    8  C4  UNL     1      31.739   5.587  47.219  1.00  0.00     0.002 A 
HETATM    9  C5  UNL     1      31.824   6.672  46.372  1.00  0.00     0.001 A 
HETATM   10  C6  UNL     1      30.831   7.598  46.133  1.00  0.00     0.009 A 
HETATM   11  C8  UNL     1      28.346   8.156  46.839  1.00  0.00     0.068 C 
ENDBRANCH   1   2
BRANCH   1  12
HETATM   12  N2  UNL     1      27.142   8.565  50.325  1.00  0.00     0.089 N 
HETATM   13  H12 UNL     1      26.665   7.642  50.285  1.00  0.00     0.313 HD
HETATM   14  H13 UNL     1      27.472   8.705  51.296  1.00  0.00     0.313 HD
ENDBRANCH   1  12
BRANCH   1  15
HETATM   15  C11 UNL     1      28.691   9.969  49.206  1.00  0.00     0.011 A 
HETATM   16  C12 UNL     1      30.081  10.138  49.273  1.00  0.00     0.012 A 
HETATM   17  C13 UNL     1      30.725  11.353  49.159  1.00  0.00     0.001 A 
HETATM   18  C14 UNL     1      29.992  12.479  48.967  1.00  0.00     0.003 A 
HETATM   19  C15 UNL     1      28.630  12.375  48.892  1.00  0.00     0.039 A 
HETATM   20  C16 UNL     1      28.011  11.149  49.010  1.00  0.00     0.092 A 
BRANCH  20  21
HETATM   21  O1  UNL     1      26.634  11.092  48.932  1.00  0.00    -0.281 OA
BRANCH  21  22
HETATM   22  S1  UNL     1      25.616  11.924  47.846  1.00  0.00    -0.017 SA
HETATM   23  H18 UNL     1      26.168  12.164  46.598  1.00  0.00     0.134 HD
ENDBRANCH  21  22
ENDBRANCH  20  21
ENDBRANCH   1  15
TORSDOF 5
ENDMDL
