MODEL 1
REMARK VINA RESULT:      -7.2      0.000      0.000
REMARK  7 active torsions:
REMARK  status: ('A' for Active; 'I' for Inactive)
REMARK    1  A    between atoms: C2_2  and  C3_3 
REMARK    2  A    between atoms: C3_3  and  C4_4 
REMARK    3  A    between atoms: C6_8  and  N3_9 
REMARK    4  A    between atoms: N3_9  and  C7_10 
REMARK    5  A    between atoms: C13_18  and  C14_19 
REMARK    6  A    between atoms: C14_19  and  N4_20 
REMARK    7  A    between atoms: N4_20  and  O1_22 
ROOT
HETATM    1  C4  UNL     1      22.824   1.709  51.276  1.00  0.00     0.070 A 
HETATM    2  N1  UNL     1      22.173   0.647  51.828  1.00  0.00    -0.241 NA
HETATM    3  C5  UNL     1      22.746  -0.019  52.845  1.00  0.00     0.236 A 
HETATM    4  N2  UNL     1      23.928   0.403  53.260  1.00  0.00    -0.223 NA
HETATM    5  C6  UNL     1      24.651   1.420  52.799  1.00  0.00     0.143 A 
HETATM    6  C13 UNL     1      24.053   2.083  51.766  1.00  0.00     0.056 A 
ENDROOT
BRANCH   5   7
HETATM    7  N3  UNL     1      25.913   1.790  53.314  1.00  0.00    -0.340 N 
HETATM    8  H8  UNL     1      26.024   2.768  53.657  1.00  0.00     0.167 HD
BRANCH   7   9
HETATM    9  C7  UNL     1      27.083   1.013  53.440  1.00  0.00     0.035 A 
HETATM   10  C8  UNL     1      28.281   1.557  53.882  1.00  0.00     0.032 A 
HETATM   11  C9  UNL     1      29.440   0.844  54.020  1.00  0.00     0.046 A 
HETATM   12  C10 UNL     1      29.470  -0.499  53.716  1.00  0.00     0.138 A 
HETATM   13  F1  UNL     1      30.632  -1.161  53.867  1.00  0.00    -0.204 F 
HETATM   14  C11 UNL     1      28.317  -1.109  53.271  1.00  0.00     0.074 A 
HETATM   15 CL1  UNL     1      28.354  -2.811  52.885  1.00  0.00    -0.081 Cl
HETATM   16  C12 UNL     1      27.188  -0.330  53.156  1.00  0.00     0.056 A 
ENDBRANCH   7   9
ENDBRANCH   5   7
BRANCH   6  17
HETATM   17  C14 UNL     1      24.653   3.111  51.206  1.00  0.00     0.134 C 
BRANCH  17  18
HETATM   18  N4  UNL     1      25.828   3.574  50.569  1.00  0.00    -0.276 N 
HETATM   19  C15 UNL     1      25.951   4.388  49.351  1.00  0.00     0.184 C 
BRANCH  18  20
HETATM   20  O1  UNL     1      27.121   3.340  50.985  1.00  0.00    -0.288 OA
HETATM   21  H16 UNL     1      27.703   3.194  50.187  1.00  0.00     0.244 HD
ENDBRANCH  18  20
ENDBRANCH  17  18
ENDBRANCH   6  17
BRANCH   1  22
HETATM   22  C3  UNL     1      22.151   2.267  50.289  1.00  0.00     0.006 C 
BRANCH  22  23
HETATM   23  C2  UNL     1      21.835   1.523  49.068  1.00  0.00     0.025 C 
HETATM   24  C1  UNL     1      22.556   2.241  47.924  1.00  0.00     0.009 C 
ENDBRANCH  22  23
ENDBRANCH   1  22
TORSDOF 7
ENDMDL
MODEL 2
REMARK VINA RESULT:      -7.2      2.449      3.521
REMARK  7 active torsions:
REMARK  status: ('A' for Active; 'I' for Inactive)
REMARK    1  A    between atoms: C2_2  and  C3_3 
REMARK    2  A    between atoms: C3_3  and  C4_4 
REMARK    3  A    between atoms: C6_8  and  N3_9 
REMARK    4  A    between atoms: N3_9  and  C7_10 
REMARK    5  A    between atoms: C13_18  and  C14_19 
REMARK    6  A    between atoms: C14_19  and  N4_20 
REMARK    7  A    between atoms: N4_20  and  O1_22 
ROOT
HETATM    1  C4  UNL     1      21.446  -0.116  53.975  1.00  0.00     0.070 A 
HETATM    2  N1  UNL     1      21.631  -0.993  55.001  1.00  0.00    -0.241 NA
HETATM    3  C5  UNL     1      22.874  -1.410  55.295  1.00  0.00     0.236 A 
HETATM    4  N2  UNL     1      23.865  -0.935  54.560  1.00  0.00    -0.223 NA
HETATM    5  C6  UNL     1      23.803  -0.081  53.541  1.00  0.00     0.143 A 
HETATM    6  C13 UNL     1      22.532   0.330  53.257  1.00  0.00     0.056 A 
ENDROOT
BRANCH   5   7
HETATM    7  N3  UNL     1      24.929   0.366  52.815  1.00  0.00    -0.340 N 
HETATM    8  H8  UNL     1      24.754   0.938  51.961  1.00  0.00     0.167 HD
BRANCH   7   9
HETATM    9  C7  UNL     1      26.297   0.151  53.077  1.00  0.00     0.035 A 
HETATM   10  C8  UNL     1      26.915  -1.061  52.802  1.00  0.00     0.032 A 
HETATM   11  C9  UNL     1      28.237  -1.317  53.040  1.00  0.00     0.046 A 
HETATM   12  C10 UNL     1      29.046  -0.344  53.582  1.00  0.00     0.138 A 
HETATM   13  F1  UNL     1      30.342  -0.640  53.798  1.00  0.00    -0.204 F 
HETATM   14  C11 UNL     1      28.504   0.886  53.881  1.00  0.00     0.074 A 
HETATM   15 CL1  UNL     1      29.529   2.120  54.569  1.00  0.00    -0.081 Cl
HETATM   16  C12 UNL     1      27.165   1.073  53.616  1.00  0.00     0.056 A 
ENDBRANCH   7   9
ENDBRANCH   5   7
BRANCH   6  17
HETATM   17  C14 UNL     1      22.315   1.173  52.273  1.00  0.00     0.134 C 
BRANCH  17  18
HETATM   18  N4  UNL     1      22.348   1.368  50.872  1.00  0.00    -0.276 N 
HETATM   19  C15 UNL     1      21.446   0.822  49.848  1.00  0.00     0.184 C 
BRANCH  18  20
HETATM   20  O1  UNL     1      23.265   2.132  50.181  1.00  0.00    -0.288 OA
HETATM   21  H16 UNL     1      23.646   1.593  49.433  1.00  0.00     0.244 HD
ENDBRANCH  18  20
ENDBRANCH  17  18
ENDBRANCH   6  17
BRANCH   1  22
HETATM   22  C3  UNL     1      20.181   0.206  53.796  1.00  0.00     0.006 C 
BRANCH  22  23
HETATM   23  C2  UNL     1      19.200  -0.786  53.348  1.00  0.00     0.025 C 
HETATM   24  C1  UNL     1      18.628  -0.264  52.027  1.00  0.00     0.009 C 
ENDBRANCH  22  23
ENDBRANCH   1  22
TORSDOF 7
ENDMDL
MODEL 3
REMARK VINA RESULT:      -7.1      2.346      3.656
REMARK  7 active torsions:
REMARK  status: ('A' for Active; 'I' for Inactive)
REMARK    1  A    between atoms: C2_2  and  C3_3 
REMARK    2  A    between atoms: C3_3  and  C4_4 
REMARK    3  A    between atoms: C6_8  and  N3_9 
REMARK    4  A    between atoms: N3_9  and  C7_10 
REMARK    5  A    between atoms: C13_18  and  C14_19 
REMARK    6  A    between atoms: C14_19  and  N4_20 
REMARK    7  A    between atoms: N4_20  and  O1_22 
ROOT
HETATM    1  C4  UNL     1      22.290   0.882  51.437  1.00  0.00     0.070 A 
HETATM    2  N1  UNL     1      22.541   2.007  50.710  1.00  0.00    -0.241 NA
HETATM    3  C5  UNL     1      23.632   2.740  50.987  1.00  0.00     0.236 A 
HETATM    4  N2  UNL     1      24.416   2.320  51.965  1.00  0.00    -0.223 NA
HETATM    5  C6  UNL     1      24.271   1.245  52.737  1.00  0.00     0.143 A 
HETATM    6  C13 UNL     1      23.156   0.514  52.441  1.00  0.00     0.056 A 
ENDROOT
BRANCH   5   7
HETATM    7  N3  UNL     1      25.170   0.882  53.764  1.00  0.00    -0.340 N 
HETATM    8  H8  UNL     1      24.789   0.802  54.730  1.00  0.00     0.167 HD
BRANCH   7   9
HETATM    9  C7  UNL     1      26.549   0.603  53.677  1.00  0.00     0.035 A 
HETATM   10  C8  UNL     1      27.508   1.599  53.791  1.00  0.00     0.032 A 
HETATM   11  C9  UNL     1      28.855   1.377  53.714  1.00  0.00     0.046 A 
HETATM   12  C10 UNL     1      29.339   0.103  53.514  1.00  0.00     0.138 A 
HETATM   13  F1  UNL     1      30.672  -0.069  53.444  1.00  0.00    -0.204 F 
HETATM   14  C11 UNL     1      28.446  -0.939  53.391  1.00  0.00     0.074 A 
HETATM   15 CL1  UNL     1      29.058  -2.553  53.137  1.00  0.00    -0.081 Cl
HETATM   16  C12 UNL     1      27.105  -0.641  53.479  1.00  0.00     0.056 A 
ENDBRANCH   7   9
ENDBRANCH   5   7
BRANCH   6  17
HETATM   17  C14 UNL     1      22.880  -0.575  53.123  1.00  0.00     0.134 C 
BRANCH  17  18
HETATM   18  N4  UNL     1      22.205  -1.113  54.243  1.00  0.00    -0.276 N 
HETATM   19  C15 UNL     1      20.814  -1.580  54.339  1.00  0.00     0.184 C 
BRANCH  18  20
HETATM   20  O1  UNL     1      22.742  -1.305  55.499  1.00  0.00    -0.288 OA
HETATM   21  H16 UNL     1      22.215  -0.783  56.166  1.00  0.00     0.244 HD
ENDBRANCH  18  20
ENDBRANCH  17  18
ENDBRANCH   6  17
BRANCH   1  22
HETATM   22  C3  UNL     1      21.189   0.262  51.062  1.00  0.00     0.006 C 
BRANCH  22  23
HETATM   23  C2  UNL     1      19.905   0.965  50.995  1.00  0.00     0.025 C 
HETATM   24  C1  UNL     1      18.867   0.030  51.620  1.00  0.00     0.009 C 
ENDBRANCH  22  23
ENDBRANCH   1  22
TORSDOF 7
ENDMDL
MODEL 4
REMARK VINA RESULT:      -6.9      3.859      6.643
REMARK  7 active torsions:
REMARK  status: ('A' for Active; 'I' for Inactive)
REMARK    1  A    between atoms: C2_2  and  C3_3 
REMARK    2  A    between atoms: C3_3  and  C4_4 
REMARK    3  A    between atoms: C6_8  and  N3_9 
REMARK    4  A    between atoms: N3_9  and  C7_10 
REMARK    5  A    between atoms: C13_18  and  C14_19 
REMARK    6  A    between atoms: C14_19  and  N4_20 
REMARK    7  A    between atoms: N4_20  and  O1_22 
ROOT
HETATM    1  C4  UNL     1      26.395  -0.472  53.455  1.00  0.00     0.070 A 
HETATM    2  N1  UNL     1      25.820  -1.176  54.471  1.00  0.00    -0.241 NA
HETATM    3  C5  UNL     1      24.502  -1.045  54.698  1.00  0.00     0.236 A 
HETATM    4  N2  UNL     1      23.827  -0.227  53.909  1.00  0.00    -0.223 NA
HETATM    5  C6  UNL     1      24.280   0.506  52.895  1.00  0.00     0.143 A 
HETATM    6  C13 UNL     1      25.621   0.360  52.680  1.00  0.00     0.056 A 
ENDROOT
BRANCH   5   7
HETATM    7  N3  UNL     1      23.470   1.355  52.110  1.00  0.00    -0.340 N 
HETATM    8  H8  UNL     1      23.840   2.303  51.889  1.00  0.00     0.167 HD
BRANCH   7   9
HETATM    9  C7  UNL     1      22.195   1.106  51.560  1.00  0.00     0.035 A 
HETATM   10  C8  UNL     1      21.895   1.407  50.239  1.00  0.00     0.032 A 
HETATM   11  C9  UNL     1      20.675   1.184  49.662  1.00  0.00     0.046 A 
HETATM   12  C10 UNL     1      19.651   0.628  50.396  1.00  0.00     0.138 A 
HETATM   13  F1  UNL     1      18.467   0.427  49.788  1.00  0.00    -0.204 F 
HETATM   14  C11 UNL     1      19.874   0.303  51.716  1.00  0.00     0.074 A 
HETATM   15 CL1  UNL     1      18.577  -0.401  52.647  1.00  0.00    -0.081 Cl
HETATM   16  C12 UNL     1      21.127   0.555  52.230  1.00  0.00     0.056 A 
ENDBRANCH   7   9
ENDBRANCH   5   7
BRANCH   6  17
HETATM   17  C14 UNL     1      26.210   1.025  51.712  1.00  0.00     0.134 C 
BRANCH  17  18
HETATM   18  N4  UNL     1      26.796   2.253  51.326  1.00  0.00    -0.276 N 
HETATM   19  C15 UNL     1      26.464   3.107  50.176  1.00  0.00     0.184 C 
BRANCH  18  20
HETATM   20  O1  UNL     1      27.824   2.902  51.977  1.00  0.00    -0.288 OA
HETATM   21  H16 UNL     1      27.551   3.842  52.169  1.00  0.00     0.244 HD
ENDBRANCH  18  20
ENDBRANCH  17  18
ENDBRANCH   6  17
BRANCH   1  22
HETATM   22  C3  UNL     1      27.690  -0.693  53.346  1.00  0.00     0.006 C 
BRANCH  22  23
HETATM   23  C2  UNL     1      28.649  -0.066  54.259  1.00  0.00     0.025 C 
HETATM   24  C1  UNL     1      30.021  -0.177  53.590  1.00  0.00     0.009 C 
ENDBRANCH  22  23
ENDBRANCH   1  22
TORSDOF 7
ENDMDL
MODEL 5
REMARK VINA RESULT:      -6.9      3.989      7.155
REMARK  7 active torsions:
REMARK  status: ('A' for Active; 'I' for Inactive)
REMARK    1  A    between atoms: C2_2  and  C3_3 
REMARK    2  A    between atoms: C3_3  and  C4_4 
REMARK    3  A    between atoms: C6_8  and  N3_9 
REMARK    4  A    between atoms: N3_9  and  C7_10 
REMARK    5  A    between atoms: C13_18  and  C14_19 
REMARK    6  A    between atoms: C14_19  and  N4_20 
REMARK    7  A    between atoms: N4_20  and  O1_22 
ROOT
HETATM    1  C4  UNL     1      26.958   0.354  52.930  1.00  0.00     0.070 A 
HETATM    2  N1  UNL     1      27.527   1.395  52.259  1.00  0.00    -0.241 NA
HETATM    3  C5  UNL     1      26.761   2.436  51.889  1.00  0.00     0.236 A 
HETATM    4  N2  UNL     1      25.478   2.390  52.204  1.00  0.00    -0.223 NA
HETATM    5  C6  UNL     1      24.819   1.433  52.850  1.00  0.00     0.143 A 
HETATM    6  C13 UNL     1      25.613   0.383  53.217  1.00  0.00     0.056 A 
ENDROOT
BRANCH   5   7
HETATM    7  N3  UNL     1      23.437   1.479  53.138  1.00  0.00    -0.340 N 
HETATM    8  H8  UNL     1      23.157   1.703  54.115  1.00  0.00     0.167 HD
BRANCH   7   9
HETATM    9  C7  UNL     1      22.344   1.262  52.274  1.00  0.00     0.035 A 
HETATM   10  C8  UNL     1      21.087   0.922  52.753  1.00  0.00     0.032 A 
HETATM   11  C9  UNL     1      19.998   0.701  51.955  1.00  0.00     0.046 A 
HETATM   12  C10 UNL     1      20.105   0.814  50.588  1.00  0.00     0.138 A 
HETATM   13  F1  UNL     1      19.007   0.588  49.841  1.00  0.00    -0.204 F 
HETATM   14  C11 UNL     1      21.323   1.149  50.037  1.00  0.00     0.074 A 
HETATM   15 CL1  UNL     1      21.459   1.291  48.304  1.00  0.00    -0.081 Cl
HETATM   16  C12 UNL     1      22.375   1.356  50.901  1.00  0.00     0.056 A 
ENDBRANCH   7   9
ENDBRANCH   5   7
BRANCH   6  17
HETATM   17  C14 UNL     1      25.099  -0.640  53.862  1.00  0.00     0.134 C 
BRANCH  17  18
HETATM   18  N4  UNL     1      24.504  -1.083  55.067  1.00  0.00    -0.276 N 
HETATM   19  C15 UNL     1      23.083  -1.332  55.351  1.00  0.00     0.184 C 
BRANCH  18  20
HETATM   20  O1  UNL     1      25.167  -1.372  56.240  1.00  0.00    -0.288 OA
HETATM   21  H16 UNL     1      24.508  -1.674  56.926  1.00  0.00     0.244 HD
ENDBRANCH  18  20
ENDBRANCH  17  18
ENDBRANCH   6  17
BRANCH   1  22
HETATM   22  C3  UNL     1      27.820  -0.597  53.228  1.00  0.00     0.006 C 
BRANCH  22  23
HETATM   23  C2  UNL     1      28.877  -0.382  54.221  1.00  0.00     0.025 C 
HETATM   24  C1  UNL     1      30.127  -1.080  53.680  1.00  0.00     0.009 C 
ENDBRANCH  22  23
ENDBRANCH   1  22
TORSDOF 7
ENDMDL
MODEL 6
REMARK VINA RESULT:      -6.9      4.097      7.119
REMARK  7 active torsions:
REMARK  status: ('A' for Active; 'I' for Inactive)
REMARK    1  A    between atoms: C2_2  and  C3_3 
REMARK    2  A    between atoms: C3_3  and  C4_4 
REMARK    3  A    between atoms: C6_8  and  N3_9 
REMARK    4  A    between atoms: N3_9  and  C7_10 
REMARK    5  A    between atoms: C13_18  and  C14_19 
REMARK    6  A    between atoms: C14_19  and  N4_20 
REMARK    7  A    between atoms: N4_20  and  O1_22 
ROOT
HETATM    1  C4  UNL     1      26.725   0.292  52.604  1.00  0.00     0.070 A 
HETATM    2  N1  UNL     1      27.279   1.302  51.874  1.00  0.00    -0.241 NA
HETATM    3  C5  UNL     1      26.532   2.375  51.565  1.00  0.00     0.236 A 
HETATM    4  N2  UNL     1      25.282   2.392  51.995  1.00  0.00    -0.223 NA
HETATM    5  C6  UNL     1      24.641   1.470  52.708  1.00  0.00     0.143 A 
HETATM    6  C13 UNL     1      25.415   0.387  53.012  1.00  0.00     0.056 A 
ENDROOT
BRANCH   5   7
HETATM    7  N3  UNL     1      23.294   1.583  53.119  1.00  0.00    -0.340 N 
HETATM    8  H8  UNL     1      23.110   2.011  54.050  1.00  0.00     0.167 HD
BRANCH   7   9
HETATM    9  C7  UNL     1      22.123   1.194  52.437  1.00  0.00     0.035 A 
HETATM   10  C8  UNL     1      21.917   1.499  51.099  1.00  0.00     0.032 A 
HETATM   11  C9  UNL     1      20.799   1.143  50.396  1.00  0.00     0.046 A 
HETATM   12  C10 UNL     1      19.790   0.436  51.009  1.00  0.00     0.138 A 
HETATM   13  F1  UNL     1      18.708   0.107  50.279  1.00  0.00    -0.204 F 
HETATM   14  C11 UNL     1      19.923   0.095  52.338  1.00  0.00     0.074 A 
HETATM   15 CL1  UNL     1      18.643  -0.801  53.115  1.00  0.00    -0.081 Cl
HETATM   16  C12 UNL     1      21.075   0.487  52.982  1.00  0.00     0.056 A 
ENDBRANCH   7   9
ENDBRANCH   5   7
BRANCH   6  17
HETATM   17  C14 UNL     1      24.915  -0.608  53.711  1.00  0.00     0.134 C 
BRANCH  17  18
HETATM   18  N4  UNL     1      24.504  -1.045  54.992  1.00  0.00    -0.276 N 
HETATM   19  C15 UNL     1      23.145  -1.353  55.464  1.00  0.00     0.184 C 
BRANCH  18  20
HETATM   20  O1  UNL     1      25.326  -1.270  56.075  1.00  0.00    -0.288 OA
HETATM   21  H16 UNL     1      25.616  -2.225  56.076  1.00  0.00     0.244 HD
ENDBRANCH  18  20
ENDBRANCH  17  18
ENDBRANCH   6  17
BRANCH   1  22
HETATM   22  C3  UNL     1      27.566  -0.696  52.833  1.00  0.00     0.006 C 
BRANCH  22  23
HETATM   23  C2  UNL     1      28.855  -0.462  53.490  1.00  0.00     0.025 C 
HETATM   24  C1  UNL     1      28.538   0.080  54.885  1.00  0.00     0.009 C 
ENDBRANCH  22  23
ENDBRANCH   1  22
TORSDOF 7
ENDMDL
MODEL 7
REMARK VINA RESULT:      -6.8      1.446      2.926
REMARK  7 active torsions:
REMARK  status: ('A' for Active; 'I' for Inactive)
REMARK    1  A    between atoms: C2_2  and  C3_3 
REMARK    2  A    between atoms: C3_3  and  C4_4 
REMARK    3  A    between atoms: C6_8  and  N3_9 
REMARK    4  A    between atoms: N3_9  and  C7_10 
REMARK    5  A    between atoms: C13_18  and  C14_19 
REMARK    6  A    between atoms: C14_19  and  N4_20 
REMARK    7  A    between atoms: N4_20  and  O1_22 
ROOT
HETATM    1  C4  UNL     1      23.705   2.695  50.324  1.00  0.00     0.070 A 
HETATM    2  N1  UNL     1      24.535   3.247  49.394  1.00  0.00    -0.241 NA
HETATM    3  C5  UNL     1      25.847   3.351  49.664  1.00  0.00     0.236 A 
HETATM    4  N2  UNL     1      26.266   2.905  50.835  1.00  0.00    -0.223 NA
HETATM    5  C6  UNL     1      25.552   2.353  51.813  1.00  0.00     0.143 A 
HETATM    6  C13 UNL     1      24.221   2.256  51.521  1.00  0.00     0.056 A 
ENDROOT
BRANCH   5   7
HETATM    7  N3  UNL     1      26.099   1.906  53.036  1.00  0.00    -0.340 N 
HETATM    8  H8  UNL     1      25.623   2.206  53.913  1.00  0.00     0.167 HD
BRANCH   7   9
HETATM    9  C7  UNL     1      27.227   1.090  53.258  1.00  0.00     0.035 A 
HETATM   10  C8  UNL     1      28.417   1.602  53.755  1.00  0.00     0.032 A 
HETATM   11  C9  UNL     1      29.536   0.851  53.986  1.00  0.00     0.046 A 
HETATM   12  C10 UNL     1      29.530  -0.501  53.728  1.00  0.00     0.138 A 
HETATM   13  F1  UNL     1      30.654  -1.202  53.971  1.00  0.00    -0.204 F 
HETATM   14  C11 UNL     1      28.383  -1.083  53.233  1.00  0.00     0.074 A 
HETATM   15 CL1  UNL     1      28.375  -2.796  52.906  1.00  0.00    -0.081 Cl
HETATM   16  C12 UNL     1      27.295  -0.265  53.024  1.00  0.00     0.056 A 
ENDBRANCH   7   9
ENDBRANCH   5   7
BRANCH   6  17
HETATM   17  C14 UNL     1      23.390   1.733  52.395  1.00  0.00     0.134 C 
BRANCH  17  18
HETATM   18  N4  UNL     1      23.046   0.576  53.133  1.00  0.00    -0.276 N 
HETATM   19  C15 UNL     1      21.743   0.206  53.704  1.00  0.00     0.184 C 
BRANCH  18  20
HETATM   20  O1  UNL     1      23.898  -0.455  53.469  1.00  0.00    -0.288 OA
HETATM   21  H16 UNL     1      23.396  -1.140  53.993  1.00  0.00     0.244 HD
ENDBRANCH  18  20
ENDBRANCH  17  18
ENDBRANCH   6  17
BRANCH   1  22
HETATM   22  C3  UNL     1      22.448   2.656  49.932  1.00  0.00     0.006 C 
BRANCH  22  23
HETATM   23  C2  UNL     1      21.983   1.658  48.965  1.00  0.00     0.025 C 
HETATM   24  C1  UNL     1      21.162   2.417  47.920  1.00  0.00     0.009 C 
ENDBRANCH  22  23
ENDBRANCH   1  22
TORSDOF 7
ENDMDL
MODEL 8
REMARK VINA RESULT:      -6.8      3.839      6.311
REMARK  7 active torsions:
REMARK  status: ('A' for Active; 'I' for Inactive)
REMARK    1  A    between atoms: C2_2  and  C3_3 
REMARK    2  A    between atoms: C3_3  and  C4_4 
REMARK    3  A    between atoms: C6_8  and  N3_9 
REMARK    4  A    between atoms: N3_9  and  C7_10 
REMARK    5  A    between atoms: C13_18  and  C14_19 
REMARK    6  A    between atoms: C14_19  and  N4_20 
REMARK    7  A    between atoms: N4_20  and  O1_22 
ROOT
HETATM    1  C4  UNL     1      26.395  -0.239  53.636  1.00  0.00     0.070 A 
HETATM    2  N1  UNL     1      25.794  -0.887  54.674  1.00  0.00    -0.241 NA
HETATM    3  C5  UNL     1      24.453  -0.903  54.751  1.00  0.00     0.236 A 
HETATM    4  N2  UNL     1      23.781  -0.280  53.799  1.00  0.00    -0.223 NA
HETATM    5  C6  UNL     1      24.257   0.381  52.747  1.00  0.00     0.143 A 
HETATM    6  C13 UNL     1      25.622   0.387  52.686  1.00  0.00     0.056 A 
ENDROOT
BRANCH   5   7
HETATM    7  N3  UNL     1      23.448   1.018  51.781  1.00  0.00    -0.340 N 
HETATM    8  H8  UNL     1      23.074   0.432  51.005  1.00  0.00     0.167 HD
BRANCH   7   9
HETATM    9  C7  UNL     1      23.057   2.370  51.704  1.00  0.00     0.035 A 
HETATM   10  C8  UNL     1      23.504   3.316  52.616  1.00  0.00     0.032 A 
HETATM   11  C9  UNL     1      23.152   4.637  52.582  1.00  0.00     0.046 A 
HETATM   12  C10 UNL     1      22.307   5.106  51.602  1.00  0.00     0.138 A 
HETATM   13  F1  UNL     1      21.987   6.414  51.607  1.00  0.00    -0.204 F 
HETATM   14  C11 UNL     1      21.822   4.225  50.659  1.00  0.00     0.074 A 
HETATM   15 CL1  UNL     1      20.750   4.818  49.417  1.00  0.00    -0.081 Cl
HETATM   16  C12 UNL     1      22.218   2.910  50.755  1.00  0.00     0.056 A 
ENDBRANCH   7   9
ENDBRANCH   5   7
BRANCH   6  17
HETATM   17  C14 UNL     1      26.236   1.004  51.701  1.00  0.00     0.134 C 
BRANCH  17  18
HETATM   18  N4  UNL     1      26.749   2.236  51.234  1.00  0.00    -0.276 N 
HETATM   19  C15 UNL     1      26.362   2.996  50.035  1.00  0.00     0.184 C 
BRANCH  18  20
HETATM   20  O1  UNL     1      27.742   2.981  51.833  1.00  0.00    -0.288 OA
HETATM   21  H16 UNL     1      27.465   3.211  52.764  1.00  0.00     0.244 HD
ENDBRANCH  18  20
ENDBRANCH  17  18
ENDBRANCH   6  17
BRANCH   1  22
HETATM   22  C3  UNL     1      27.711  -0.301  53.684  1.00  0.00     0.006 C 
BRANCH  22  23
HETATM   23  C2  UNL     1      28.451   0.163  54.861  1.00  0.00     0.025 C 
HETATM   24  C1  UNL     1      29.294   1.354  54.400  1.00  0.00     0.009 C 
ENDBRANCH  22  23
ENDBRANCH   1  22
TORSDOF 7
ENDMDL
MODEL 9
REMARK VINA RESULT:      -6.7      2.796      4.476
REMARK  7 active torsions:
REMARK  status: ('A' for Active; 'I' for Inactive)
REMARK    1  A    between atoms: C2_2  and  C3_3 
REMARK    2  A    between atoms: C3_3  and  C4_4 
REMARK    3  A    between atoms: C6_8  and  N3_9 
REMARK    4  A    between atoms: N3_9  and  C7_10 
REMARK    5  A    between atoms: C13_18  and  C14_19 
REMARK    6  A    between atoms: C14_19  and  N4_20 
REMARK    7  A    between atoms: N4_20  and  O1_22 
ROOT
HETATM    1  C4  UNL     1      25.430   5.533  49.252  1.00  0.00     0.070 A 
HETATM    2  N1  UNL     1      26.631   5.561  48.608  1.00  0.00    -0.241 NA
HETATM    3  C5  UNL     1      27.511   4.566  48.812  1.00  0.00     0.236 A 
HETATM    4  N2  UNL     1      27.155   3.599  49.640  1.00  0.00    -0.223 NA
HETATM    5  C6  UNL     1      26.019   3.469  50.320  1.00  0.00     0.143 A 
HETATM    6  C13 UNL     1      25.138   4.490  50.100  1.00  0.00     0.056 A 
ENDROOT
BRANCH   5   7
HETATM    7  N3  UNL     1      25.735   2.391  51.187  1.00  0.00    -0.340 N 
HETATM    8  H8  UNL     1      24.740   2.097  51.278  1.00  0.00     0.167 HD
BRANCH   7   9
HETATM    9  C7  UNL     1      26.623   1.627  51.973  1.00  0.00     0.035 A 
HETATM   10  C8  UNL     1      26.607   0.240  51.958  1.00  0.00     0.032 A 
HETATM   11  C9  UNL     1      27.447  -0.543  52.702  1.00  0.00     0.046 A 
HETATM   12  C10 UNL     1      28.383   0.035  53.529  1.00  0.00     0.138 A 
HETATM   13  F1  UNL     1      29.189  -0.774  54.243  1.00  0.00    -0.204 F 
HETATM   14  C11 UNL     1      28.459   1.409  53.597  1.00  0.00     0.074 A 
HETATM   15 CL1  UNL     1      29.646   2.142  54.645  1.00  0.00    -0.081 Cl
HETATM   16  C12 UNL     1      27.582   2.133  52.821  1.00  0.00     0.056 A 
ENDBRANCH   7   9
ENDBRANCH   5   7
BRANCH   6  17
HETATM   17  C14 UNL     1      23.972   4.498  50.707  1.00  0.00     0.134 C 
BRANCH  17  18
HETATM   18  N4  UNL     1      23.269   4.849  51.883  1.00  0.00    -0.276 N 
HETATM   19  C15 UNL     1      21.837   4.694  52.177  1.00  0.00     0.184 C 
BRANCH  18  20
HETATM   20  O1  UNL     1      23.814   5.423  53.013  1.00  0.00    -0.288 OA
HETATM   21  H16 UNL     1      24.808   5.342  52.977  1.00  0.00     0.244 HD
ENDBRANCH  18  20
ENDBRANCH  17  18
ENDBRANCH   6  17
BRANCH   1  22
HETATM   22  C3  UNL     1      24.667   6.567  48.963  1.00  0.00     0.006 C 
BRANCH  22  23
HETATM   23  C2  UNL     1      24.877   7.870  49.601  1.00  0.00     0.025 C 
HETATM   24  C1  UNL     1      23.644   8.129  50.470  1.00  0.00     0.009 C 
ENDBRANCH  22  23
ENDBRANCH   1  22
TORSDOF 7
ENDMDL
