MODEL 1
REMARK VINA RESULT:      -7.4      0.000      0.000
REMARK  5 active torsions:
REMARK  status: ('A' for Active; 'I' for Inactive)
REMARK       I    between atoms: C1_2  and  N1_3 
REMARK    1  A    between atoms: C1_2  and  C12_16 
REMARK    2  A    between atoms: N1_3  and  C2_4 
REMARK    3  A    between atoms: C2_4  and  C3_5 
REMARK    4  A    between atoms: C3_5  and  C4_6 
REMARK    5  A    between atoms: C6_8  and  C7_9 
ROOT
HETATM    1  C2  UNL     1      23.479   3.491  52.280  1.00  0.00     0.129 C 
ENDROOT
BRANCH   1   2
HETATM    2  N1  UNL     1      24.736   3.882  51.626  1.00  0.00    -0.357 N 
HETATM    3  C1  UNL     1      24.627   4.655  50.449  1.00  0.00     0.251 C 
HETATM    4  O1  UNL     1      23.513   4.987  49.987  1.00  0.00    -0.268 OA
HETATM    5  H1  UNL     1      25.667   3.609  52.002  1.00  0.00     0.162 HD
BRANCH   3   6
HETATM    6  C12 UNL     1      25.795   5.108  49.703  1.00  0.00     0.034 A 
HETATM    7  C13 UNL     1      25.910   6.448  49.396  1.00  0.00     0.036 A 
HETATM    8  C14 UNL     1      26.999   6.963  48.685  1.00  0.00     0.117 A 
HETATM    9  N4  UNL     1      27.989   6.125  48.274  1.00  0.00    -0.273 NA
HETATM   10  C15 UNL     1      27.888   4.805  48.569  1.00  0.00     0.117 A 
HETATM   11  C16 UNL     1      26.820   4.292  49.267  1.00  0.00     0.036 A 
ENDBRANCH   3   6
ENDBRANCH   1   2
BRANCH   1  12
HETATM   12  C3  UNL     1      23.185   2.082  51.871  1.00  0.00     0.079 C 
BRANCH  12  13
HETATM   13  C4  UNL     1      24.298   1.202  52.311  1.00  0.00     0.039 A 
HETATM   14  C5  UNL     1      24.702   0.422  53.302  1.00  0.00     0.059 A 
HETATM   15  C6  UNL     1      25.942   0.102  52.606  1.00  0.00     0.070 A 
HETATM   16  N3  UNL     1      25.517   0.880  51.643  1.00  0.00    -0.253 NA
BRANCH  15  17
HETATM   17  C7  UNL     1      27.125  -0.713  52.860  1.00  0.00     0.010 A 
HETATM   18  C8  UNL     1      28.280  -0.142  53.363  1.00  0.00     0.017 A 
HETATM   19  C9  UNL     1      29.394  -0.938  53.597  1.00  0.00     0.020 A 
HETATM   20  C10 UNL     1      29.266  -2.293  53.299  1.00  0.00     0.116 A 
HETATM   21  N2  UNL     1      28.145  -2.852  52.811  1.00  0.00    -0.272 NA
HETATM   22  C11 UNL     1      27.051  -2.072  52.581  1.00  0.00     0.130 A 
ENDBRANCH  15  17
ENDBRANCH  12  13
ENDBRANCH   1  12
TORSDOF 5
ENDMDL
MODEL 2
REMARK VINA RESULT:      -7.2      2.395      6.486
REMARK  5 active torsions:
REMARK  status: ('A' for Active; 'I' for Inactive)
REMARK       I    between atoms: C1_2  and  N1_3 
REMARK    1  A    between atoms: C1_2  and  C12_16 
REMARK    2  A    between atoms: N1_3  and  C2_4 
REMARK    3  A    between atoms: C2_4  and  C3_5 
REMARK    4  A    between atoms: C3_5  and  C4_6 
REMARK    5  A    between atoms: C6_8  and  C7_9 
ROOT
HETATM    1  C2  UNL     1      23.408  -0.474  53.439  1.00  0.00     0.129 C 
ENDROOT
BRANCH   1   2
HETATM    2  N1  UNL     1      24.811  -0.160  53.136  1.00  0.00    -0.357 N 
HETATM    3  C1  UNL     1      25.777  -0.600  54.068  1.00  0.00     0.251 C 
HETATM    4  O1  UNL     1      25.449  -1.225  55.101  1.00  0.00    -0.268 OA
HETATM    5  H1  UNL     1      25.093   0.359  52.280  1.00  0.00     0.162 HD
BRANCH   3   6
HETATM    6  C12 UNL     1      27.203  -0.354  53.888  1.00  0.00     0.034 A 
HETATM    7  C13 UNL     1      27.704   0.898  54.179  1.00  0.00     0.036 A 
HETATM    8  C14 UNL     1      29.059   1.215  54.034  1.00  0.00     0.117 A 
HETATM    9  N4  UNL     1      29.926   0.266  53.590  1.00  0.00    -0.273 NA
HETATM   10  C15 UNL     1      29.446  -0.970  53.299  1.00  0.00     0.117 A 
HETATM   11  C16 UNL     1      28.115  -1.288  53.440  1.00  0.00     0.036 A 
ENDBRANCH   3   6
ENDBRANCH   1   2
BRANCH   1  12
HETATM   12  C3  UNL     1      22.619   0.783  53.243  1.00  0.00     0.079 C 
BRANCH  12  13
HETATM   13  C4  UNL     1      23.320   1.652  52.262  1.00  0.00     0.039 A 
HETATM   14  C5  UNL     1      23.346   1.996  50.984  1.00  0.00     0.059 A 
HETATM   15  C6  UNL     1      24.451   2.920  51.208  1.00  0.00     0.070 A 
HETATM   16  N3  UNL     1      24.401   2.559  52.466  1.00  0.00    -0.253 NA
BRANCH  15  17
HETATM   17  C7  UNL     1      25.254   3.834  50.404  1.00  0.00     0.010 A 
HETATM   18  C8  UNL     1      26.394   3.390  49.760  1.00  0.00     0.017 A 
HETATM   19  C9  UNL     1      27.144   4.279  48.998  1.00  0.00     0.020 A 
HETATM   20  C10 UNL     1      26.679   5.592  48.937  1.00  0.00     0.116 A 
HETATM   21  N2  UNL     1      25.571   6.027  49.561  1.00  0.00    -0.272 NA
HETATM   22  C11 UNL     1      24.836   5.155  50.307  1.00  0.00     0.130 A 
ENDBRANCH  15  17
ENDBRANCH  12  13
ENDBRANCH   1  12
TORSDOF 5
ENDMDL
MODEL 3
REMARK VINA RESULT:      -7.2      2.316      6.388
REMARK  5 active torsions:
REMARK  status: ('A' for Active; 'I' for Inactive)
REMARK       I    between atoms: C1_2  and  N1_3 
REMARK    1  A    between atoms: C1_2  and  C12_16 
REMARK    2  A    between atoms: N1_3  and  C2_4 
REMARK    3  A    between atoms: C2_4  and  C3_5 
REMARK    4  A    between atoms: C3_5  and  C4_6 
REMARK    5  A    between atoms: C6_8  and  C7_9 
ROOT
HETATM    1  C2  UNL     1      22.985   1.202  52.599  1.00  0.00     0.129 C 
ENDROOT
BRANCH   1   2
HETATM    2  N1  UNL     1      24.346   1.625  52.957  1.00  0.00    -0.357 N 
HETATM    3  C1  UNL     1      25.224   0.619  53.419  1.00  0.00     0.251 C 
HETATM    4  O1  UNL     1      24.857  -0.572  53.518  1.00  0.00    -0.268 OA
HETATM    5  H1  UNL     1      24.661   2.614  52.878  1.00  0.00     0.162 HD
BRANCH   3   6
HETATM    6  C12 UNL     1      26.601   0.905  53.807  1.00  0.00     0.034 A 
HETATM    7  C13 UNL     1      27.178   2.086  53.388  1.00  0.00     0.036 A 
HETATM    8  C14 UNL     1      28.492   2.435  53.717  1.00  0.00     0.117 A 
HETATM    9  N4  UNL     1      29.241   1.590  54.476  1.00  0.00    -0.273 NA
HETATM   10  C15 UNL     1      28.685   0.425  54.894  1.00  0.00     0.117 A 
HETATM   11  C16 UNL     1      27.393   0.076  54.574  1.00  0.00     0.036 A 
ENDBRANCH   3   6
ENDBRANCH   1   2
BRANCH   1  12
HETATM   12  C3  UNL     1      22.352   2.331  51.848  1.00  0.00     0.079 C 
BRANCH  12  13
HETATM   13  C4  UNL     1      23.375   2.981  50.988  1.00  0.00     0.039 A 
HETATM   14  C5  UNL     1      23.874   2.993  49.762  1.00  0.00     0.059 A 
HETATM   15  C6  UNL     1      24.832   4.034  50.112  1.00  0.00     0.070 A 
HETATM   16  N3  UNL     1      24.318   4.000  51.316  1.00  0.00    -0.253 NA
BRANCH  15  17
HETATM   17  C7  UNL     1      25.886   4.782  49.436  1.00  0.00     0.010 A 
HETATM   18  C8  UNL     1      25.676   6.088  49.032  1.00  0.00     0.017 A 
HETATM   19  C9  UNL     1      26.695   6.780  48.389  1.00  0.00     0.020 A 
HETATM   20  C10 UNL     1      27.889   6.089  48.191  1.00  0.00     0.116 A 
HETATM   21  N2  UNL     1      28.097   4.820  48.582  1.00  0.00    -0.272 NA
HETATM   22  C11 UNL     1      27.098   4.141  49.213  1.00  0.00     0.130 A 
ENDBRANCH  15  17
ENDBRANCH  12  13
ENDBRANCH   1  12
TORSDOF 5
ENDMDL
MODEL 4
REMARK VINA RESULT:      -7.1      1.065      1.624
REMARK  5 active torsions:
REMARK  status: ('A' for Active; 'I' for Inactive)
REMARK       I    between atoms: C1_2  and  N1_3 
REMARK    1  A    between atoms: C1_2  and  C12_16 
REMARK    2  A    between atoms: N1_3  and  C2_4 
REMARK    3  A    between atoms: C2_4  and  C3_5 
REMARK    4  A    between atoms: C3_5  and  C4_6 
REMARK    5  A    between atoms: C6_8  and  C7_9 
ROOT
HETATM    1  C2  UNL     1      24.187   3.752  50.846  1.00  0.00     0.129 C 
ENDROOT
BRANCH   1   2
HETATM    2  N1  UNL     1      25.474   4.408  50.575  1.00  0.00    -0.357 N 
HETATM    3  C1  UNL     1      25.563   5.168  49.387  1.00  0.00     0.251 C 
HETATM    4  O1  UNL     1      24.592   5.274  48.606  1.00  0.00    -0.268 OA
HETATM    5  H1  UNL     1      26.287   4.325  51.219  1.00  0.00     0.162 HD
BRANCH   3   6
HETATM    6  C12 UNL     1      26.782   5.868  49.000  1.00  0.00     0.034 A 
HETATM    7  C13 UNL     1      27.861   5.130  48.559  1.00  0.00     0.036 A 
HETATM    8  C14 UNL     1      29.066   5.725  48.168  1.00  0.00     0.117 A 
HETATM    9  N4  UNL     1      29.194   7.078  48.220  1.00  0.00    -0.273 NA
HETATM   10  C15 UNL     1      28.140   7.815  48.654  1.00  0.00     0.117 A 
HETATM   11  C16 UNL     1      26.953   7.237  49.039  1.00  0.00     0.036 A 
ENDBRANCH   3   6
ENDBRANCH   1   2
BRANCH   1  12
HETATM   12  C3  UNL     1      24.121   3.494  52.319  1.00  0.00     0.079 C 
BRANCH  12  13
HETATM   13  C4  UNL     1      25.068   2.404  52.667  1.00  0.00     0.039 A 
HETATM   14  C5  UNL     1      25.674   1.814  53.686  1.00  0.00     0.059 A 
HETATM   15  C6  UNL     1      26.354   0.878  52.799  1.00  0.00     0.070 A 
HETATM   16  N3  UNL     1      25.740   1.481  51.811  1.00  0.00    -0.253 NA
BRANCH  15  17
HETATM   17  C7  UNL     1      27.292  -0.230  52.938  1.00  0.00     0.010 A 
HETATM   18  C8  UNL     1      28.616   0.004  53.264  1.00  0.00     0.017 A 
HETATM   19  C9  UNL     1      29.492  -1.067  53.392  1.00  0.00     0.020 A 
HETATM   20  C10 UNL     1      28.959  -2.337  53.176  1.00  0.00     0.116 A 
HETATM   21  N2  UNL     1      27.673  -2.569  52.859  1.00  0.00    -0.272 NA
HETATM   22  C11 UNL     1      26.814  -1.518  52.734  1.00  0.00     0.130 A 
ENDBRANCH  15  17
ENDBRANCH  12  13
ENDBRANCH   1  12
TORSDOF 5
ENDMDL
MODEL 5
REMARK VINA RESULT:      -7.1      2.669      5.609
REMARK  5 active torsions:
REMARK  status: ('A' for Active; 'I' for Inactive)
REMARK       I    between atoms: C1_2  and  N1_3 
REMARK    1  A    between atoms: C1_2  and  C12_16 
REMARK    2  A    between atoms: N1_3  and  C2_4 
REMARK    3  A    between atoms: C2_4  and  C3_5 
REMARK    4  A    between atoms: C3_5  and  C4_6 
REMARK    5  A    between atoms: C6_8  and  C7_9 
ROOT
HETATM    1  C2  UNL     1      23.077   2.802  50.205  1.00  0.00     0.129 C 
ENDROOT
BRANCH   1   2
HETATM    2  N1  UNL     1      23.009   1.606  51.057  1.00  0.00    -0.357 N 
HETATM    3  C1  UNL     1      22.022   1.602  52.069  1.00  0.00     0.251 C 
HETATM    4  O1  UNL     1      21.248   2.571  52.229  1.00  0.00    -0.268 OA
HETATM    5  H1  UNL     1      23.648   0.796  50.932  1.00  0.00     0.162 HD
BRANCH   3   6
HETATM    6  C12 UNL     1      21.848   0.478  52.982  1.00  0.00     0.034 A 
HETATM    7  C13 UNL     1      20.592  -0.075  53.123  1.00  0.00     0.036 A 
HETATM    8  C14 UNL     1      20.341  -1.154  53.977  1.00  0.00     0.117 A 
HETATM    9  N4  UNL     1      21.360  -1.688  54.702  1.00  0.00    -0.273 NA
HETATM   10  C15 UNL     1      22.600  -1.152  54.573  1.00  0.00     0.117 A 
HETATM   11  C16 UNL     1      22.854  -0.091  53.735  1.00  0.00     0.036 A 
ENDBRANCH   3   6
ENDBRANCH   1   2
BRANCH   1  12
HETATM   12  C3  UNL     1      24.178   3.665  50.738  1.00  0.00     0.079 C 
BRANCH  12  13
HETATM   13  C4  UNL     1      25.292   2.801  51.208  1.00  0.00     0.039 A 
HETATM   14  C5  UNL     1      26.442   2.261  50.836  1.00  0.00     0.059 A 
HETATM   15  C6  UNL     1      26.615   1.622  52.135  1.00  0.00     0.070 A 
HETATM   16  N3  UNL     1      25.475   2.169  52.475  1.00  0.00    -0.253 NA
BRANCH  15  17
HETATM   17  C7  UNL     1      27.605   0.763  52.774  1.00  0.00     0.010 A 
HETATM   18  C8  UNL     1      28.721   1.306  53.384  1.00  0.00     0.017 A 
HETATM   19  C9  UNL     1      29.652   0.468  53.987  1.00  0.00     0.020 A 
HETATM   20  C10 UNL     1      29.386  -0.899  53.932  1.00  0.00     0.116 A 
HETATM   21  N2  UNL     1      28.302  -1.431  53.341  1.00  0.00    -0.272 NA
HETATM   22  C11 UNL     1      27.390  -0.609  52.749  1.00  0.00     0.130 A 
ENDBRANCH  15  17
ENDBRANCH  12  13
ENDBRANCH   1  12
TORSDOF 5
ENDMDL
MODEL 6
REMARK VINA RESULT:      -7.0      2.316      3.131
REMARK  5 active torsions:
REMARK  status: ('A' for Active; 'I' for Inactive)
REMARK       I    between atoms: C1_2  and  N1_3 
REMARK    1  A    between atoms: C1_2  and  C12_16 
REMARK    2  A    between atoms: N1_3  and  C2_4 
REMARK    3  A    between atoms: C2_4  and  C3_5 
REMARK    4  A    between atoms: C3_5  and  C4_6 
REMARK    5  A    between atoms: C6_8  and  C7_9 
ROOT
HETATM    1  C2  UNL     1      25.046   5.449  49.824  1.00  0.00     0.129 C 
ENDROOT
BRANCH   1   2
HETATM    2  N1  UNL     1      26.491   5.504  49.563  1.00  0.00    -0.357 N 
HETATM    3  C1  UNL     1      26.912   6.318  48.488  1.00  0.00     0.251 C 
HETATM    4  O1  UNL     1      26.091   6.958  47.793  1.00  0.00    -0.268 OA
HETATM    5  H1  UNL     1      27.181   4.976  50.134  1.00  0.00     0.162 HD
BRANCH   3   6
HETATM    6  C12 UNL     1      28.316   6.461  48.122  1.00  0.00     0.034 A 
HETATM    7  C13 UNL     1      28.758   7.676  47.641  1.00  0.00     0.036 A 
HETATM    8  C14 UNL     1      30.088   7.896  47.269  1.00  0.00     0.117 A 
HETATM    9  N4  UNL     1      30.992   6.885  47.379  1.00  0.00    -0.273 NA
HETATM   10  C15 UNL     1      30.570   5.685  47.851  1.00  0.00     0.117 A 
HETATM   11  C16 UNL     1      29.263   5.462  48.218  1.00  0.00     0.036 A 
ENDBRANCH   3   6
ENDBRANCH   1   2
BRANCH   1  12
HETATM   12  C3  UNL     1      24.631   4.014  49.725  1.00  0.00     0.079 C 
BRANCH  12  13
HETATM   13  C4  UNL     1      25.362   3.222  50.748  1.00  0.00     0.039 A 
HETATM   14  C5  UNL     1      25.219   2.613  51.915  1.00  0.00     0.059 A 
HETATM   15  C6  UNL     1      26.614   2.191  51.918  1.00  0.00     0.070 A 
HETATM   16  N3  UNL     1      26.725   2.802  50.764  1.00  0.00    -0.253 NA
BRANCH  15  17
HETATM   17  C7  UNL     1      27.495   1.434  52.799  1.00  0.00     0.010 A 
HETATM   18  C8  UNL     1      27.534   0.052  52.738  1.00  0.00     0.017 A 
HETATM   19  C9  UNL     1      28.381  -0.649  53.588  1.00  0.00     0.020 A 
HETATM   20  C10 UNL     1      29.153   0.111  54.466  1.00  0.00     0.116 A 
HETATM   21  N2  UNL     1      29.117   1.454  54.528  1.00  0.00    -0.272 NA
HETATM   22  C11 UNL     1      28.287   2.142  53.694  1.00  0.00     0.130 A 
ENDBRANCH  15  17
ENDBRANCH  12  13
ENDBRANCH   1  12
TORSDOF 5
ENDMDL
MODEL 7
REMARK VINA RESULT:      -6.9      2.696      5.733
REMARK  5 active torsions:
REMARK  status: ('A' for Active; 'I' for Inactive)
REMARK       I    between atoms: C1_2  and  N1_3 
REMARK    1  A    between atoms: C1_2  and  C12_16 
REMARK    2  A    between atoms: N1_3  and  C2_4 
REMARK    3  A    between atoms: C2_4  and  C3_5 
REMARK    4  A    between atoms: C3_5  and  C4_6 
REMARK    5  A    between atoms: C6_8  and  C7_9 
ROOT
HETATM    1  C2  UNL     1      25.018   4.347  50.492  1.00  0.00     0.129 C 
ENDROOT
BRANCH   1   2
HETATM    2  N1  UNL     1      25.374   3.467  51.614  1.00  0.00    -0.357 N 
HETATM    3  C1  UNL     1      26.400   2.523  51.382  1.00  0.00     0.251 C 
HETATM    4  O1  UNL     1      26.973   2.443  50.273  1.00  0.00    -0.268 OA
HETATM    5  H1  UNL     1      24.902   3.525  52.540  1.00  0.00     0.162 HD
BRANCH   3   6
HETATM    6  C12 UNL     1      26.849   1.591  52.409  1.00  0.00     0.034 A 
HETATM    7  C13 UNL     1      28.011   1.870  53.098  1.00  0.00     0.036 A 
HETATM    8  C14 UNL     1      28.509   1.028  54.098  1.00  0.00     0.117 A 
HETATM    9  N4  UNL     1      27.835  -0.110  54.415  1.00  0.00    -0.273 NA
HETATM   10  C15 UNL     1      26.690  -0.396  53.744  1.00  0.00     0.117 A 
HETATM   11  C16 UNL     1      26.195   0.427  52.760  1.00  0.00     0.036 A 
ENDBRANCH   3   6
ENDBRANCH   1   2
BRANCH   1  12
HETATM   12  C3  UNL     1      23.528   4.313  50.357  1.00  0.00     0.079 C 
BRANCH  12  13
HETATM   13  C4  UNL     1      23.009   3.067  50.979  1.00  0.00     0.039 A 
HETATM   14  C5  UNL     1      22.724   1.799  50.729  1.00  0.00     0.059 A 
HETATM   15  C6  UNL     1      22.284   1.578  52.101  1.00  0.00     0.070 A 
HETATM   16  N3  UNL     1      22.575   2.837  52.319  1.00  0.00    -0.253 NA
BRANCH  15  17
HETATM   17  C7  UNL     1      21.758   0.467  52.884  1.00  0.00     0.010 A 
HETATM   18  C8  UNL     1      22.602  -0.319  53.647  1.00  0.00     0.017 A 
HETATM   19  C9  UNL     1      22.078  -1.374  54.386  1.00  0.00     0.020 A 
HETATM   20  C10 UNL     1      20.700  -1.570  54.302  1.00  0.00     0.116 A 
HETATM   21  N2  UNL     1      19.877  -0.808  53.562  1.00  0.00    -0.272 NA
HETATM   22  C11 UNL     1      20.390   0.227  52.837  1.00  0.00     0.130 A 
ENDBRANCH  15  17
ENDBRANCH  12  13
ENDBRANCH   1  12
TORSDOF 5
ENDMDL
MODEL 8
REMARK VINA RESULT:      -6.7      1.690      2.351
REMARK  5 active torsions:
REMARK  status: ('A' for Active; 'I' for Inactive)
REMARK       I    between atoms: C1_2  and  N1_3 
REMARK    1  A    between atoms: C1_2  and  C12_16 
REMARK    2  A    between atoms: N1_3  and  C2_4 
REMARK    3  A    between atoms: C2_4  and  C3_5 
REMARK    4  A    between atoms: C3_5  and  C4_6 
REMARK    5  A    between atoms: C6_8  and  C7_9 
ROOT
HETATM    1  C2  UNL     1      22.806   4.391  49.475  1.00  0.00     0.129 C 
ENDROOT
BRANCH   1   2
HETATM    2  N1  UNL     1      24.096   4.598  48.801  1.00  0.00    -0.357 N 
HETATM    3  C1  UNL     1      24.998   5.495  49.416  1.00  0.00     0.251 C 
HETATM    4  O1  UNL     1      24.709   6.083  50.481  1.00  0.00    -0.268 OA
HETATM    5  H1  UNL     1      24.345   4.114  47.914  1.00  0.00     0.162 HD
BRANCH   3   6
HETATM    6  C12 UNL     1      26.311   5.789  48.851  1.00  0.00     0.034 A 
HETATM    7  C13 UNL     1      26.527   7.027  48.283  1.00  0.00     0.036 A 
HETATM    8  C14 UNL     1      27.756   7.389  47.721  1.00  0.00     0.117 A 
HETATM    9  N4  UNL     1      28.784   6.499  47.727  1.00  0.00    -0.273 NA
HETATM   10  C15 UNL     1      28.584   5.277  48.283  1.00  0.00     0.117 A 
HETATM   11  C16 UNL     1      27.378   4.915  48.837  1.00  0.00     0.036 A 
ENDBRANCH   3   6
ENDBRANCH   1   2
BRANCH   1  12
HETATM   12  C3  UNL     1      22.551   2.917  49.501  1.00  0.00     0.079 C 
BRANCH  12  13
HETATM   13  C4  UNL     1      23.429   2.286  50.521  1.00  0.00     0.039 A 
HETATM   14  C5  UNL     1      23.420   1.494  51.581  1.00  0.00     0.059 A 
HETATM   15  C6  UNL     1      24.866   1.599  51.730  1.00  0.00     0.070 A 
HETATM   16  N3  UNL     1      24.844   2.380  50.679  1.00  0.00    -0.253 NA
BRANCH  15  17
HETATM   17  C7  UNL     1      25.883   1.075  52.634  1.00  0.00     0.010 A 
HETATM   18  C8  UNL     1      26.680   0.010  52.257  1.00  0.00     0.017 A 
HETATM   19  C9  UNL     1      27.643  -0.473  53.135  1.00  0.00     0.020 A 
HETATM   20  C10 UNL     1      27.740   0.170  54.369  1.00  0.00     0.116 A 
HETATM   21  N2  UNL     1      26.968   1.207  54.738  1.00  0.00    -0.272 NA
HETATM   22  C11 UNL     1      26.023   1.680  53.877  1.00  0.00     0.130 A 
ENDBRANCH  15  17
ENDBRANCH  12  13
ENDBRANCH   1  12
TORSDOF 5
ENDMDL
MODEL 9
REMARK VINA RESULT:      -6.7      2.546      8.380
REMARK  5 active torsions:
REMARK  status: ('A' for Active; 'I' for Inactive)
REMARK       I    between atoms: C1_2  and  N1_3 
REMARK    1  A    between atoms: C1_2  and  C12_16 
REMARK    2  A    between atoms: N1_3  and  C2_4 
REMARK    3  A    between atoms: C2_4  and  C3_5 
REMARK    4  A    between atoms: C3_5  and  C4_6 
REMARK    5  A    between atoms: C6_8  and  C7_9 
ROOT
HETATM    1  C2  UNL     1      25.643   3.780  50.447  1.00  0.00     0.129 C 
ENDROOT
BRANCH   1   2
HETATM    2  N1  UNL     1      26.026   2.970  51.612  1.00  0.00    -0.357 N 
HETATM    3  C1  UNL     1      25.151   1.921  51.973  1.00  0.00     0.251 C 
HETATM    4  O1  UNL     1      24.101   1.697  51.331  1.00  0.00    -0.268 OA
HETATM    5  H1  UNL     1      26.897   3.149  52.152  1.00  0.00     0.162 HD
BRANCH   3   6
HETATM    6  C12 UNL     1      25.413   1.044  53.108  1.00  0.00     0.034 A 
HETATM    7  C13 UNL     1      24.519   0.030  53.385  1.00  0.00     0.036 A 
HETATM    8  C14 UNL     1      24.698  -0.855  54.454  1.00  0.00     0.117 A 
HETATM    9  N4  UNL     1      25.787  -0.724  55.258  1.00  0.00    -0.273 NA
HETATM   10  C15 UNL     1      26.673   0.270  54.997  1.00  0.00     0.117 A 
HETATM   11  C16 UNL     1      26.503   1.143  53.948  1.00  0.00     0.036 A 
ENDBRANCH   3   6
ENDBRANCH   1   2
BRANCH   1  12
HETATM   12  C3  UNL     1      26.622   3.479  49.355  1.00  0.00     0.079 C 
BRANCH  12  13
HETATM   13  C4  UNL     1      27.224   4.750  48.875  1.00  0.00     0.039 A 
HETATM   14  C5  UNL     1      26.954   6.024  48.633  1.00  0.00     0.059 A 
HETATM   15  C6  UNL     1      28.320   6.277  48.193  1.00  0.00     0.070 A 
HETATM   16  N3  UNL     1      28.557   5.013  48.441  1.00  0.00    -0.253 NA
BRANCH  15  17
HETATM   17  C7  UNL     1      29.085   7.417  47.700  1.00  0.00     0.010 A 
HETATM   18  C8  UNL     1      29.075   7.744  46.356  1.00  0.00     0.017 A 
HETATM   19  C9  UNL     1      29.811   8.834  45.909  1.00  0.00     0.020 A 
HETATM   20  C10 UNL     1      30.527   9.541  46.874  1.00  0.00     0.116 A 
HETATM   21  N2  UNL     1      30.539   9.227  48.181  1.00  0.00    -0.272 NA
HETATM   22  C11 UNL     1      29.817   8.157  48.620  1.00  0.00     0.130 A 
ENDBRANCH  15  17
ENDBRANCH  12  13
ENDBRANCH   1  12
TORSDOF 5
ENDMDL
