MODEL 1
REMARK VINA RESULT:      -9.7      0.000      0.000
REMARK  2 active torsions:
REMARK  status: ('A' for Active; 'I' for Inactive)
REMARK    1  A    between atoms: C6_6  and  N1_7 
REMARK    2  A    between atoms: N1_7  and  C7_8 
ROOT
HETATM    1  C1  UNL     1      27.978   0.208  54.982  1.00  0.00     0.053 C 
HETATM    2  C2  UNL     1      26.721   0.560  54.294  1.00  0.00    -0.007 A 
HETATM    3  C3  UNL     1      26.351   1.877  53.978  1.00  0.00     0.037 A 
HETATM    4  C4  UNL     1      25.172   2.355  53.486  1.00  0.00     0.046 A 
HETATM    5  C5  UNL     1      24.129   1.458  53.218  1.00  0.00     0.025 A 
HETATM    6  C6  UNL     1      22.915   1.834  52.751  1.00  0.00     0.068 A 
HETATM    7  C13 UNL     1      22.014   0.810  52.564  1.00  0.00     0.089 A 
HETATM    8  C14 UNL     1      20.726   1.206  52.071  1.00  0.00     0.103 C 
HETATM    9  N2  UNL     1      19.683   1.508  51.666  1.00  0.00    -0.191 NA
HETATM   10  C15 UNL     1      22.316  -0.515  52.833  1.00  0.00     0.142 A 
HETATM   11  N3  UNL     1      23.536  -0.900  53.303  1.00  0.00    -0.256 NA
HETATM   12  C16 UNL     1      24.405   0.108  53.481  1.00  0.00     0.096 A 
HETATM   13  C17 UNL     1      25.628  -0.258  53.975  1.00  0.00     0.067 A 
HETATM   14  N4  UNL     1      25.947  -1.697  53.896  1.00  0.00    -0.377 N 
HETATM   15  C18 UNL     1      26.546  -1.492  52.481  1.00  0.00     0.214 C 
HETATM   16  C19 UNL     1      27.010  -0.150  52.451  1.00  0.00    -0.085 C 
HETATM   17  C20 UNL     1      27.382   0.941  52.450  1.00  0.00    -0.085 C 
HETATM   18  C21 UNL     1      27.833   2.294  52.473  1.00  0.00     0.214 C 
HETATM   19  N5  UNL     1      27.497   2.785  53.919  1.00  0.00    -0.379 N 
HETATM   20  H11 UNL     1      25.527  -1.740  54.844  1.00  0.00     0.160 HD
HETATM   21  H16 UNL     1      27.231   3.068  54.863  1.00  0.00     0.160 HD
ENDROOT
BRANCH   6  22
HETATM   22  N1  UNL     1      22.763   3.218  52.527  1.00  0.00    -0.354 N 
HETATM   23  H5  UNL     1      22.279   3.858  53.194  1.00  0.00     0.166 HD
BRANCH  22  24
HETATM   24  C7  UNL     1      23.292   3.800  51.326  1.00  0.00     0.033 A 
HETATM   25  C8  UNL     1      23.196   3.166  50.106  1.00  0.00     0.029 A 
HETATM   26  C9  UNL     1      23.688   3.684  48.935  1.00  0.00     0.004 A 
HETATM   27  C10 UNL     1      24.321   4.913  48.959  1.00  0.00     0.019 A 
HETATM   28  C11 UNL     1      24.412   5.540  50.186  1.00  0.00     0.013 A 
HETATM   29 BR1  UNL     1      25.282   7.252  50.279  1.00  0.00    -0.051 Br
HETATM   30  C12 UNL     1      23.926   5.041  51.378  1.00  0.00     0.048 A 
ENDBRANCH  22  24
ENDBRANCH   6  22
TORSDOF 2
ENDMDL
MODEL 2
REMARK VINA RESULT:      -9.6      1.763      2.121
REMARK  2 active torsions:
REMARK  status: ('A' for Active; 'I' for Inactive)
REMARK    1  A    between atoms: C6_6  and  N1_7 
REMARK    2  A    between atoms: N1_7  and  C7_8 
ROOT
HETATM    1  C1  UNL     1      27.902   1.603  53.806  1.00  0.00     0.053 C 
HETATM    2  C2  UNL     1      26.484   1.340  53.494  1.00  0.00    -0.007 A 
HETATM    3  C3  UNL     1      25.659   2.245  52.807  1.00  0.00     0.037 A 
HETATM    4  C4  UNL     1      24.313   2.198  52.584  1.00  0.00     0.046 A 
HETATM    5  C5  UNL     1      23.577   1.110  53.072  1.00  0.00     0.025 A 
HETATM    6  C6  UNL     1      22.237   0.981  52.924  1.00  0.00     0.068 A 
HETATM    7  C13 UNL     1      21.689  -0.150  53.486  1.00  0.00     0.089 A 
HETATM    8  C14 UNL     1      20.269  -0.287  53.332  1.00  0.00     0.103 C 
HETATM    9  N2  UNL     1      19.124  -0.418  53.210  1.00  0.00    -0.191 NA
HETATM   10  C15 UNL     1      22.445  -1.097  54.157  1.00  0.00     0.142 A 
HETATM   11  N3  UNL     1      23.794  -0.974  54.310  1.00  0.00    -0.256 NA
HETATM   12  C16 UNL     1      24.315   0.133  53.759  1.00  0.00     0.096 A 
HETATM   13  C17 UNL     1      25.666   0.285  53.922  1.00  0.00     0.067 A 
HETATM   14  N4  UNL     1      26.400  -0.924  54.340  1.00  0.00    -0.377 N 
HETATM   15  C18 UNL     1      26.595  -1.327  52.856  1.00  0.00     0.214 C 
HETATM   16  C19 UNL     1      26.593  -0.109  52.125  1.00  0.00    -0.085 C 
HETATM   17  C20 UNL     1      26.591   0.892  51.552  1.00  0.00    -0.085 C 
HETATM   18  C21 UNL     1      26.583   2.142  50.866  1.00  0.00     0.214 C 
HETATM   19  N5  UNL     1      26.418   3.203  52.003  1.00  0.00    -0.379 N 
HETATM   20  H11 UNL     1      26.223  -0.578  55.303  1.00  0.00     0.160 HD
HETATM   21  H16 UNL     1      26.279   3.853  52.777  1.00  0.00     0.160 HD
ENDROOT
BRANCH   6  22
HETATM   22  N1  UNL     1      21.611   2.028  52.216  1.00  0.00    -0.354 N 
HETATM   23  H5  UNL     1      21.074   2.794  52.678  1.00  0.00     0.166 HD
BRANCH  22  24
HETATM   24  C7  UNL     1      21.702   2.063  50.784  1.00  0.00     0.033 A 
HETATM   25  C8  UNL     1      21.484   0.941  50.013  1.00  0.00     0.029 A 
HETATM   26  C9  UNL     1      21.562   0.929  48.643  1.00  0.00     0.004 A 
HETATM   27  C10 UNL     1      21.876   2.100  47.979  1.00  0.00     0.019 A 
HETATM   28  C11 UNL     1      22.094   3.218  48.760  1.00  0.00     0.013 A 
HETATM   29 BR1  UNL     1      22.535   4.874  47.889  1.00  0.00    -0.051 Br
HETATM   30  C12 UNL     1      22.022   3.257  50.139  1.00  0.00     0.048 A 
ENDBRANCH  22  24
ENDBRANCH   6  22
TORSDOF 2
ENDMDL
MODEL 3
REMARK VINA RESULT:      -8.7      2.294      5.641
REMARK  2 active torsions:
REMARK  status: ('A' for Active; 'I' for Inactive)
REMARK    1  A    between atoms: C6_6  and  N1_7 
REMARK    2  A    between atoms: N1_7  and  C7_8 
ROOT
HETATM    1  C1  UNL     1      23.273   3.971  48.253  1.00  0.00     0.053 C 
HETATM    2  C2  UNL     1      23.126   3.186  49.494  1.00  0.00    -0.007 A 
HETATM    3  C3  UNL     1      24.054   3.218  50.547  1.00  0.00     0.037 A 
HETATM    4  C4  UNL     1      24.122   2.445  51.669  1.00  0.00     0.046 A 
HETATM    5  C5  UNL     1      23.150   1.459  51.880  1.00  0.00     0.025 A 
HETATM    6  C6  UNL     1      23.141   0.626  52.948  1.00  0.00     0.068 A 
HETATM    7  C13 UNL     1      22.113  -0.289  52.974  1.00  0.00     0.089 A 
HETATM    8  C14 UNL     1      22.104  -1.172  54.104  1.00  0.00     0.103 C 
HETATM    9  N2  UNL     1      22.077  -1.890  55.013  1.00  0.00    -0.191 NA
HETATM   10  C15 UNL     1      21.149  -0.363  51.982  1.00  0.00     0.142 A 
HETATM   11  N3  UNL     1      21.151   0.472  50.903  1.00  0.00    -0.256 NA
HETATM   12  C16 UNL     1      22.159   1.358  50.891  1.00  0.00     0.096 A 
HETATM   13  C17 UNL     1      22.190   2.190  49.804  1.00  0.00     0.067 A 
HETATM   14  N4  UNL     1      20.949   2.251  49.009  1.00  0.00    -0.377 N 
HETATM   15  C18 UNL     1      20.422   3.398  49.908  1.00  0.00     0.214 C 
HETATM   16  C19 UNL     1      21.578   4.066  50.394  1.00  0.00    -0.085 C 
HETATM   17  C20 UNL     1      22.529   4.595  50.775  1.00  0.00    -0.085 C 
HETATM   18  C21 UNL     1      23.720   5.230  51.233  1.00  0.00     0.214 C 
HETATM   19  N5  UNL     1      24.872   4.431  50.541  1.00  0.00    -0.379 N 
HETATM   20  H11 UNL     1      21.381   1.482  48.460  1.00  0.00     0.160 HD
HETATM   21  H16 UNL     1      25.588   3.860  50.091  1.00  0.00     0.160 HD
ENDROOT
BRANCH   6  22
HETATM   22  N1  UNL     1      24.189   0.828  53.871  1.00  0.00    -0.354 N 
HETATM   23  H5  UNL     1      24.081   1.378  54.752  1.00  0.00     0.166 HD
BRANCH  22  24
HETATM   24  C7  UNL     1      25.479   0.255  53.609  1.00  0.00     0.033 A 
HETATM   25  C8  UNL     1      25.620  -0.963  52.980  1.00  0.00     0.029 A 
HETATM   26  C9  UNL     1      26.831  -1.548  52.710  1.00  0.00     0.004 A 
HETATM   27  C10 UNL     1      27.990  -0.892  53.083  1.00  0.00     0.019 A 
HETATM   28  C11 UNL     1      27.838   0.328  53.712  1.00  0.00     0.013 A 
HETATM   29 BR1  UNL     1      29.416   1.284  54.252  1.00  0.00    -0.051 Br
HETATM   30  C12 UNL     1      26.632   0.937  53.995  1.00  0.00     0.048 A 
ENDBRANCH  22  24
ENDBRANCH   6  22
TORSDOF 2
ENDMDL
MODEL 4
REMARK VINA RESULT:      -8.3      2.525      5.800
REMARK  2 active torsions:
REMARK  status: ('A' for Active; 'I' for Inactive)
REMARK    1  A    between atoms: C6_6  and  N1_7 
REMARK    2  A    between atoms: N1_7  and  C7_8 
ROOT
HETATM    1  C1  UNL     1      21.807   4.497  49.138  1.00  0.00     0.053 C 
HETATM    2  C2  UNL     1      22.133   3.504  50.181  1.00  0.00    -0.007 A 
HETATM    3  C3  UNL     1      23.256   2.663  50.129  1.00  0.00     0.037 A 
HETATM    4  C4  UNL     1      23.594   1.614  50.932  1.00  0.00     0.046 A 
HETATM    5  C5  UNL     1      22.753   1.270  51.999  1.00  0.00     0.025 A 
HETATM    6  C6  UNL     1      22.987   0.234  52.838  1.00  0.00     0.068 A 
HETATM    7  C13 UNL     1      22.037   0.043  53.817  1.00  0.00     0.089 A 
HETATM    8  C14 UNL     1      22.283  -1.056  54.706  1.00  0.00     0.103 C 
HETATM    9  N2  UNL     1      22.469  -1.935  55.439  1.00  0.00    -0.191 NA
HETATM   10  C15 UNL     1      20.917   0.847  53.943  1.00  0.00     0.142 A 
HETATM   11  N3  UNL     1      20.674   1.891  53.101  1.00  0.00    -0.256 NA
HETATM   12  C16 UNL     1      21.607   2.066  52.152  1.00  0.00     0.096 A 
HETATM   13  C17 UNL     1      21.369   3.097  51.283  1.00  0.00     0.067 A 
HETATM   14  N4  UNL     1      20.351   4.075  51.714  1.00  0.00    -0.377 N 
HETATM   15  C18 UNL     1      21.444   4.900  52.440  1.00  0.00     0.214 C 
HETATM   16  C19 UNL     1      22.650   4.646  51.734  1.00  0.00    -0.085 C 
HETATM   17  C20 UNL     1      23.617   4.427  51.145  1.00  0.00    -0.085 C 
HETATM   18  C21 UNL     1      24.798   4.139  50.401  1.00  0.00     0.214 C 
HETATM   19  N5  UNL     1      24.312   3.185  49.261  1.00  0.00    -0.379 N 
HETATM   20  H11 UNL     1      19.689   3.461  51.202  1.00  0.00     0.160 HD
HETATM   21  H16 UNL     1      23.951   2.543  48.555  1.00  0.00     0.160 HD
ENDROOT
BRANCH   6  22
HETATM   22  N1  UNL     1      24.171  -0.489  52.580  1.00  0.00    -0.354 N 
HETATM   23  H5  UNL     1      24.193  -1.377  52.032  1.00  0.00     0.166 HD
BRANCH  22  24
HETATM   24  C7  UNL     1      25.421   0.002  53.086  1.00  0.00     0.033 A 
HETATM   25  C8  UNL     1      25.534   1.252  53.656  1.00  0.00     0.029 A 
HETATM   26  C9  UNL     1      26.708   1.762  54.151  1.00  0.00     0.004 A 
HETATM   27  C10 UNL     1      27.855   0.993  54.083  1.00  0.00     0.019 A 
HETATM   28  C11 UNL     1      27.730  -0.258  53.510  1.00  0.00     0.013 A 
HETATM   29 BR1  UNL     1      29.293  -1.371  53.389  1.00  0.00    -0.051 Br
HETATM   30  C12 UNL     1      26.562  -0.794  53.005  1.00  0.00     0.048 A 
ENDBRANCH  22  24
ENDBRANCH   6  22
TORSDOF 2
ENDMDL
MODEL 5
REMARK VINA RESULT:      -8.3      2.542      4.916
REMARK  2 active torsions:
REMARK  status: ('A' for Active; 'I' for Inactive)
REMARK    1  A    between atoms: C6_6  and  N1_7 
REMARK    2  A    between atoms: N1_7  and  C7_8 
ROOT
HETATM    1  C1  UNL     1      22.140   0.641  53.437  1.00  0.00     0.053 C 
HETATM    2  C2  UNL     1      22.370   1.925  52.747  1.00  0.00    -0.007 A 
HETATM    3  C3  UNL     1      23.539   2.689  52.897  1.00  0.00     0.037 A 
HETATM    4  C4  UNL     1      23.820   3.945  52.446  1.00  0.00     0.046 A 
HETATM    5  C5  UNL     1      22.854   4.638  51.704  1.00  0.00     0.025 A 
HETATM    6  C6  UNL     1      23.027   5.895  51.231  1.00  0.00     0.068 A 
HETATM    7  C13 UNL     1      21.958   6.415  50.537  1.00  0.00     0.089 A 
HETATM    8  C14 UNL     1      22.138   7.747  50.037  1.00  0.00     0.103 C 
HETATM    9  N2  UNL     1      22.269   8.821  49.620  1.00  0.00    -0.191 NA
HETATM   10  C15 UNL     1      20.782   5.711  50.331  1.00  0.00     0.142 A 
HETATM   11  N3  UNL     1      20.601   4.445  50.803  1.00  0.00    -0.256 NA
HETATM   12  C16 UNL     1      21.651   3.951  51.478  1.00  0.00     0.096 A 
HETATM   13  C17 UNL     1      21.479   2.689  51.980  1.00  0.00     0.067 A 
HETATM   14  N4  UNL     1      20.350   1.924  51.416  1.00  0.00    -0.377 N 
HETATM   15  C18 UNL     1      21.271   1.384  50.292  1.00  0.00     0.214 C 
HETATM   16  C19 UNL     1      22.581   1.373  50.841  1.00  0.00    -0.085 C 
HETATM   17  C20 UNL     1      23.635   1.370  51.307  1.00  0.00    -0.085 C 
HETATM   18  C21 UNL     1      24.929   1.379  51.906  1.00  0.00     0.214 C 
HETATM   19  N5  UNL     1      24.676   1.893  53.360  1.00  0.00    -0.379 N 
HETATM   20  H11 UNL     1      19.810   2.334  52.202  1.00  0.00     0.160 HD
HETATM   21  H16 UNL     1      24.464   2.262  54.288  1.00  0.00     0.160 HD
ENDROOT
BRANCH   6  22
HETATM   22  N1  UNL     1      24.278   6.477  51.523  1.00  0.00    -0.354 N 
HETATM   23  H5  UNL     1      24.531   6.853  52.463  1.00  0.00     0.166 HD
BRANCH  22  24
HETATM   24  C7  UNL     1      25.272   6.567  50.491  1.00  0.00     0.033 A 
HETATM   25  C8  UNL     1      25.647   5.470  49.745  1.00  0.00     0.029 A 
HETATM   26  C9  UNL     1      26.591   5.510  48.750  1.00  0.00     0.004 A 
HETATM   27  C10 UNL     1      27.214   6.711  48.465  1.00  0.00     0.019 A 
HETATM   28  C11 UNL     1      26.831   7.804  49.219  1.00  0.00     0.013 A 
HETATM   29 BR1  UNL     1      27.665   9.500  48.865  1.00  0.00    -0.051 Br
HETATM   30  C12 UNL     1      25.885   7.790  50.224  1.00  0.00     0.048 A 
ENDBRANCH  22  24
ENDBRANCH   6  22
TORSDOF 2
ENDMDL
MODEL 6
REMARK VINA RESULT:      -8.2      3.199      5.968
REMARK  2 active torsions:
REMARK  status: ('A' for Active; 'I' for Inactive)
REMARK    1  A    between atoms: C6_6  and  N1_7 
REMARK    2  A    between atoms: N1_7  and  C7_8 
ROOT
HETATM    1  C1  UNL     1      24.627   6.981  50.831  1.00  0.00     0.053 C 
HETATM    2  C2  UNL     1      24.095   5.646  51.165  1.00  0.00    -0.007 A 
HETATM    3  C3  UNL     1      22.791   5.427  51.638  1.00  0.00     0.037 A 
HETATM    4  C4  UNL     1      22.222   4.284  52.121  1.00  0.00     0.046 A 
HETATM    5  C5  UNL     1      22.985   3.110  52.173  1.00  0.00     0.025 A 
HETATM    6  C6  UNL     1      22.521   1.933  52.654  1.00  0.00     0.068 A 
HETATM    7  C13 UNL     1      23.424   0.894  52.638  1.00  0.00     0.089 A 
HETATM    8  C14 UNL     1      22.935  -0.354  53.150  1.00  0.00     0.103 C 
HETATM    9  N2  UNL     1      22.555  -1.372  53.553  1.00  0.00    -0.191 NA
HETATM   10  C15 UNL     1      24.719   1.031  52.166  1.00  0.00     0.142 A 
HETATM   11  N3  UNL     1      25.193   2.213  51.679  1.00  0.00    -0.256 NA
HETATM   12  C16 UNL     1      24.302   3.218  51.701  1.00  0.00     0.096 A 
HETATM   13  C17 UNL     1      24.768   4.419  51.237  1.00  0.00     0.067 A 
HETATM   14  N4  UNL     1      26.019   4.363  50.457  1.00  0.00    -0.377 N 
HETATM   15  C18 UNL     1      25.205   4.142  49.157  1.00  0.00     0.214 C 
HETATM   16  C19 UNL     1      23.949   4.767  49.380  1.00  0.00    -0.085 C 
HETATM   17  C20 UNL     1      22.937   5.283  49.581  1.00  0.00    -0.085 C 
HETATM   18  C21 UNL     1      21.694   5.926  49.855  1.00  0.00     0.214 C 
HETATM   19  N5  UNL     1      21.875   6.514  51.292  1.00  0.00    -0.379 N 
HETATM   20  H11 UNL     1      26.480   4.514  51.375  1.00  0.00     0.160 HD
HETATM   21  H16 UNL     1      22.031   6.852  52.243  1.00  0.00     0.160 HD
ENDROOT
BRANCH   6  22
HETATM   22  N1  UNL     1      21.182   1.953  53.098  1.00  0.00    -0.354 N 
HETATM   23  H5  UNL     1      20.868   2.463  53.952  1.00  0.00     0.166 HD
BRANCH  22  24
HETATM   24  C7  UNL     1      20.181   1.245  52.351  1.00  0.00     0.033 A 
HETATM   25  C8  UNL     1      19.950   1.504  51.017  1.00  0.00     0.029 A 
HETATM   26  C9  UNL     1      19.005   0.852  50.265  1.00  0.00     0.004 A 
HETATM   27  C10 UNL     1      18.229  -0.123  50.863  1.00  0.00     0.019 A 
HETATM   28  C11 UNL     1      18.468  -0.375  52.200  1.00  0.00     0.013 A 
HETATM   29 BR1  UNL     1      17.418  -1.722  53.082  1.00  0.00    -0.051 Br
HETATM   30  C12 UNL     1      19.412   0.266  52.978  1.00  0.00     0.048 A 
ENDBRANCH  22  24
ENDBRANCH   6  22
TORSDOF 2
ENDMDL
MODEL 7
REMARK VINA RESULT:      -8.1      1.929      5.290
REMARK  2 active torsions:
REMARK  status: ('A' for Active; 'I' for Inactive)
REMARK    1  A    between atoms: C6_6  and  N1_7 
REMARK    2  A    between atoms: N1_7  and  C7_8 
ROOT
HETATM    1  C1  UNL     1      19.066   0.054  50.998  1.00  0.00     0.053 C 
HETATM    2  C2  UNL     1      20.410   0.649  51.124  1.00  0.00    -0.007 A 
HETATM    3  C3  UNL     1      20.958   1.536  50.184  1.00  0.00     0.037 A 
HETATM    4  C4  UNL     1      22.224   2.039  50.097  1.00  0.00     0.046 A 
HETATM    5  C5  UNL     1      23.172   1.673  51.061  1.00  0.00     0.025 A 
HETATM    6  C6  UNL     1      24.458   2.097  51.051  1.00  0.00     0.068 A 
HETATM    7  C13 UNL     1      25.245   1.616  52.074  1.00  0.00     0.089 A 
HETATM    8  C14 UNL     1      26.608   2.064  52.064  1.00  0.00     0.103 C 
HETATM    9  N2  UNL     1      27.710   2.422  52.075  1.00  0.00    -0.191 NA
HETATM   10  C15 UNL     1      24.766   0.757  53.049  1.00  0.00     0.142 A 
HETATM   11  N3  UNL     1      23.473   0.325  53.065  1.00  0.00    -0.256 NA
HETATM   12  C16 UNL     1      22.718   0.801  52.063  1.00  0.00     0.096 A 
HETATM   13  C17 UNL     1      21.422   0.360  52.050  1.00  0.00     0.067 A 
HETATM   14  N4  UNL     1      20.944  -0.259  53.301  1.00  0.00    -0.377 N 
HETATM   15  C18 UNL     1      20.497   1.129  53.824  1.00  0.00     0.214 C 
HETATM   16  C19 UNL     1      20.198   1.897  52.667  1.00  0.00    -0.085 C 
HETATM   17  C20 UNL     1      19.959   2.502  51.715  1.00  0.00    -0.085 C 
HETATM   18  C21 UNL     1      19.671   3.228  50.522  1.00  0.00     0.214 C 
HETATM   19  N5  UNL     1      19.937   2.201  49.373  1.00  0.00    -0.379 N 
HETATM   20  H11 UNL     1      21.273  -1.145  52.871  1.00  0.00     0.160 HD
HETATM   21  H16 UNL     1      20.153   1.504  48.659  1.00  0.00     0.160 HD
ENDROOT
BRANCH   6  22
HETATM   22  N1  UNL     1      24.791   2.970  49.994  1.00  0.00    -0.354 N 
HETATM   23  H5  UNL     1      25.010   2.643  49.027  1.00  0.00     0.166 HD
BRANCH  22  24
HETATM   24  C7  UNL     1      24.837   4.384  50.234  1.00  0.00     0.033 A 
HETATM   25  C8  UNL     1      24.049   4.985  51.192  1.00  0.00     0.029 A 
HETATM   26  C9  UNL     1      24.060   6.331  51.456  1.00  0.00     0.004 A 
HETATM   27  C10 UNL     1      24.904   7.150  50.728  1.00  0.00     0.019 A 
HETATM   28  C11 UNL     1      25.689   6.538  49.770  1.00  0.00     0.013 A 
HETATM   29 BR1  UNL     1      26.882   7.628  48.729  1.00  0.00    -0.051 Br
HETATM   30  C12 UNL     1      25.697   5.187  49.487  1.00  0.00     0.048 A 
ENDBRANCH  22  24
ENDBRANCH   6  22
TORSDOF 2
ENDMDL
MODEL 8
REMARK VINA RESULT:      -7.9      3.237      7.092
REMARK  2 active torsions:
REMARK  status: ('A' for Active; 'I' for Inactive)
REMARK    1  A    between atoms: C6_6  and  N1_7 
REMARK    2  A    between atoms: N1_7  and  C7_8 
ROOT
HETATM    1  C1  UNL     1      22.975   8.851  49.348  1.00  0.00     0.053 C 
HETATM    2  C2  UNL     1      23.389   7.490  49.741  1.00  0.00    -0.007 A 
HETATM    3  C3  UNL     1      22.838   6.795  50.830  1.00  0.00     0.037 A 
HETATM    4  C4  UNL     1      23.221   5.611  51.390  1.00  0.00     0.046 A 
HETATM    5  C5  UNL     1      24.312   4.919  50.847  1.00  0.00     0.025 A 
HETATM    6  C6  UNL     1      24.784   3.751  51.342  1.00  0.00     0.068 A 
HETATM    7  C13 UNL     1      25.874   3.230  50.682  1.00  0.00     0.089 A 
HETATM    8  C14 UNL     1      26.378   1.993  51.207  1.00  0.00     0.103 C 
HETATM    9  N2  UNL     1      26.793   0.990  51.614  1.00  0.00    -0.191 NA
HETATM   10  C15 UNL     1      26.456   3.848  49.588  1.00  0.00     0.142 A 
HETATM   11  N3  UNL     1      25.986   5.024  49.084  1.00  0.00    -0.256 NA
HETATM   12  C16 UNL     1      24.923   5.521  49.736  1.00  0.00     0.096 A 
HETATM   13  C17 UNL     1      24.452   6.714  49.258  1.00  0.00     0.067 A 
HETATM   14  N4  UNL     1      24.919   7.094  47.911  1.00  0.00    -0.377 N 
HETATM   15  C18 UNL     1      23.727   6.333  47.276  1.00  0.00     0.214 C 
HETATM   16  C19 UNL     1      22.691   6.366  48.247  1.00  0.00    -0.085 C 
HETATM   17  C20 UNL     1      21.863   6.406  49.048  1.00  0.00    -0.085 C 
HETATM   18  C21 UNL     1      20.856   6.468  50.056  1.00  0.00     0.214 C 
HETATM   19  N5  UNL     1      21.516   7.295  51.208  1.00  0.00    -0.379 N 
HETATM   20  H11 UNL     1      25.684   7.576  48.421  1.00  0.00     0.160 HD
HETATM   21  H16 UNL     1      22.000   7.813  51.942  1.00  0.00     0.160 HD
ENDROOT
BRANCH   6  22
HETATM   22  N1  UNL     1      24.084   3.248  52.459  1.00  0.00    -0.354 N 
HETATM   23  H5  UNL     1      24.151   3.664  53.414  1.00  0.00     0.166 HD
BRANCH  22  24
HETATM   24  C7  UNL     1      23.228   2.107  52.298  1.00  0.00     0.033 A 
HETATM   25  C8  UNL     1      22.479   1.914  51.157  1.00  0.00     0.029 A 
HETATM   26  C9  UNL     1      21.648   0.840  50.961  1.00  0.00     0.004 A 
HETATM   27  C10 UNL     1      21.543  -0.116  51.955  1.00  0.00     0.019 A 
HETATM   28  C11 UNL     1      22.297   0.087  53.095  1.00  0.00     0.013 A 
HETATM   29 BR1  UNL     1      22.189  -1.210  54.509  1.00  0.00    -0.051 Br
HETATM   30  C12 UNL     1      23.140   1.158  53.316  1.00  0.00     0.048 A 
ENDBRANCH  22  24
ENDBRANCH   6  22
TORSDOF 2
ENDMDL
MODEL 9
REMARK VINA RESULT:      -7.8      8.010     10.232
REMARK  2 active torsions:
REMARK  status: ('A' for Active; 'I' for Inactive)
REMARK    1  A    between atoms: C6_6  and  N1_7 
REMARK    2  A    between atoms: N1_7  and  C7_8 
ROOT
HETATM    1  C1  UNL     1      34.913   5.213  47.505  1.00  0.00     0.053 C 
HETATM    2  C2  UNL     1      33.551   5.749  47.323  1.00  0.00    -0.007 A 
HETATM    3  C3  UNL     1      33.279   7.002  46.751  1.00  0.00     0.037 A 
HETATM    4  C4  UNL     1      32.097   7.678  46.658  1.00  0.00     0.046 A 
HETATM    5  C5  UNL     1      30.934   7.095  47.178  1.00  0.00     0.025 A 
HETATM    6  C6  UNL     1      29.719   7.693  47.157  1.00  0.00     0.068 A 
HETATM    7  C13 UNL     1      28.697   6.970  47.730  1.00  0.00     0.089 A 
HETATM    8  C14 UNL     1      27.410   7.602  47.710  1.00  0.00     0.103 C 
HETATM    9  N2  UNL     1      26.360   8.095  47.696  1.00  0.00    -0.191 NA
HETATM   10  C15 UNL     1      28.887   5.718  48.293  1.00  0.00     0.142 A 
HETATM   11  N3  UNL     1      30.107   5.111  48.318  1.00  0.00    -0.256 NA
HETATM   12  C16 UNL     1      31.094   5.827  47.756  1.00  0.00     0.096 A 
HETATM   13  C17 UNL     1      32.331   5.242  47.793  1.00  0.00     0.067 A 
HETATM   14  N4  UNL     1      32.348   3.798  48.096  1.00  0.00    -0.377 N 
HETATM   15  C18 UNL     1      32.206   3.473  46.587  1.00  0.00     0.214 C 
HETATM   16  C19 UNL     1      32.796   4.569  45.902  1.00  0.00    -0.085 C 
HETATM   17  C20 UNL     1      33.280   5.467  45.366  1.00  0.00    -0.085 C 
HETATM   18  C21 UNL     1      33.885   6.590  44.727  1.00  0.00     0.214 C 
HETATM   19  N5  UNL     1      34.374   7.488  45.910  1.00  0.00    -0.379 N 
HETATM   20  H11 UNL     1      32.442   4.108  49.082  1.00  0.00     0.160 HD
HETATM   21  H16 UNL     1      34.647   8.052  46.716  1.00  0.00     0.160 HD
ENDROOT
BRANCH   6  22
HETATM   22  N1  UNL     1      29.689   8.965  46.548  1.00  0.00    -0.354 N 
HETATM   23  H5  UNL     1      29.680   9.107  45.514  1.00  0.00     0.166 HD
BRANCH  22  24
HETATM   24  C7  UNL     1      29.668  10.140  47.373  1.00  0.00     0.033 A 
HETATM   25  C8  UNL     1      30.706  10.449  48.225  1.00  0.00     0.029 A 
HETATM   26  C9  UNL     1      30.728  11.560  49.031  1.00  0.00     0.004 A 
HETATM   27  C10 UNL     1      29.655  12.431  49.000  1.00  0.00     0.019 A 
HETATM   28  C11 UNL     1      28.620  12.112  48.143  1.00  0.00     0.013 A 
HETATM   29 BR1  UNL     1      27.102  13.290  48.059  1.00  0.00    -0.051 Br
HETATM   30  C12 UNL     1      28.574  11.003  47.322  1.00  0.00     0.048 A 
ENDBRANCH  22  24
ENDBRANCH   6  22
TORSDOF 2
ENDMDL
