MODEL 1
REMARK VINA RESULT:      -8.2      0.000      0.000
REMARK  7 active torsions:
REMARK  status: ('A' for Active; 'I' for Inactive)
REMARK    1  A    between atoms: C3_3  and  C4_4 
REMARK    2  A    between atoms: C5_5  and  C6_6 
REMARK    3  A    between atoms: C7_7  and  N1_8 
REMARK    4  A    between atoms: N1_8  and  C8_9 
REMARK    5  A    between atoms: C9_10  and  N2_11 
REMARK    6  A    between atoms: C14_17  and  N4_18 
REMARK       I    between atoms: N4_18  and  C15_19 
REMARK    7  A    between atoms: C15_19  and  C16_21 
ROOT
HETATM    1  C8  UNL     1      22.728   2.544  52.076  1.00  0.00     0.072 A 
HETATM    2  C9  UNL     1      21.366   2.610  52.268  1.00  0.00     0.071 A 
HETATM    3  C10 UNL     1      20.670   1.633  52.991  1.00  0.00     0.148 A 
HETATM    4  N3  UNL     1      21.378   0.596  53.510  1.00  0.00    -0.258 NA
HETATM    5  C11 UNL     1      22.708   0.528  53.324  1.00  0.00     0.069 A 
HETATM    6  C12 UNL     1      23.436  -0.517  53.847  1.00  0.00     0.035 A 
HETATM    7  C13 UNL     1      24.798  -0.620  53.679  1.00  0.00     0.032 A 
HETATM    8  C14 UNL     1      25.510   0.328  52.971  1.00  0.00     0.035 A 
HETATM    9  C18 UNL     1      24.774   1.363  52.456  1.00  0.00     0.045 A 
HETATM   10  C19 UNL     1      23.413   1.478  52.617  1.00  0.00     0.024 A 
ENDROOT
BRANCH   1  11
HETATM   11  N1  UNL     1      23.330   3.562  51.336  1.00  0.00    -0.363 N 
HETATM   12  H10 UNL     1      23.919   4.356  51.649  1.00  0.00     0.165 HD
BRANCH  11  13
HETATM   13  C7  UNL     1      23.189   3.636  49.924  1.00  0.00     0.088 C 
HETATM   14  C6  UNL     1      24.305   3.605  49.200  1.00  0.00     0.017 C 
BRANCH  14  15
HETATM   15  C5  UNL     1      25.721   3.509  49.506  1.00  0.00     0.001 C 
HETATM   16  C4  UNL     1      26.768   4.306  49.381  1.00  0.00    -0.000 C 
BRANCH  16  17
HETATM   17  C3  UNL     1      26.651   5.641  48.821  1.00  0.00    -0.004 C 
HETATM   18  C2  UNL     1      27.730   6.189  48.269  1.00  0.00    -0.031 C 
HETATM   19  C1  UNL     1      28.906   5.305  48.326  1.00  0.00     0.036 C 
ENDBRANCH  16  17
ENDBRANCH  14  15
ENDBRANCH  11  13
ENDBRANCH   1  11
BRANCH   2  20
HETATM   20  N2  UNL     1      20.487   3.618  51.805  1.00  0.00    -0.396 N 
HETATM   21  H11 UNL     1      20.381   4.509  51.276  1.00  0.00     0.156 HD
HETATM   22  H12 UNL     1      19.474   3.469  52.072  1.00  0.00     0.156 HD
ENDBRANCH   2  20
BRANCH   8  23
HETATM   23  N4  UNL     1      26.904   0.109  52.870  1.00  0.00    -0.327 N 
HETATM   24  C15 UNL     1      27.915   0.414  53.810  1.00  0.00     0.221 C 
HETATM   25  O1  UNL     1      27.612   0.952  54.905  1.00  0.00    -0.273 OA
HETATM   26  H16 UNL     1      27.316  -0.326  52.029  1.00  0.00     0.169 HD
BRANCH  24  27
HETATM   27  C16 UNL     1      29.348   0.150  53.625  1.00  0.00     0.098 C 
HETATM   28  C17 UNL     1      29.678  -1.286  53.427  1.00  0.00     0.014 C 
ENDBRANCH  24  27
ENDBRANCH   8  23
TORSDOF 7
ENDMDL
MODEL 2
REMARK VINA RESULT:      -8.0      1.657      2.098
REMARK  7 active torsions:
REMARK  status: ('A' for Active; 'I' for Inactive)
REMARK    1  A    between atoms: C3_3  and  C4_4 
REMARK    2  A    between atoms: C5_5  and  C6_6 
REMARK    3  A    between atoms: C7_7  and  N1_8 
REMARK    4  A    between atoms: N1_8  and  C8_9 
REMARK    5  A    between atoms: C9_10  and  N2_11 
REMARK    6  A    between atoms: C14_17  and  N4_18 
REMARK       I    between atoms: N4_18  and  C15_19 
REMARK    7  A    between atoms: C15_19  and  C16_21 
ROOT
HETATM    1  C8  UNL     1      22.099   0.246  52.569  1.00  0.00     0.072 A 
HETATM    2  C9  UNL     1      20.760  -0.001  52.774  1.00  0.00     0.071 A 
HETATM    3  C10 UNL     1      20.299  -0.722  53.882  1.00  0.00     0.148 A 
HETATM    4  N3  UNL     1      21.216  -1.185  54.771  1.00  0.00    -0.258 NA
HETATM    5  C11 UNL     1      22.525  -0.946  54.573  1.00  0.00     0.069 A 
HETATM    6  C12 UNL     1      23.464  -1.408  55.468  1.00  0.00     0.035 A 
HETATM    7  C13 UNL     1      24.812  -1.183  55.301  1.00  0.00     0.032 A 
HETATM    8  C14 UNL     1      25.294  -0.475  54.218  1.00  0.00     0.035 A 
HETATM    9  C18 UNL     1      24.349  -0.020  53.335  1.00  0.00     0.045 A 
HETATM   10  C19 UNL     1      23.001  -0.239  53.491  1.00  0.00     0.024 A 
ENDROOT
BRANCH   1  11
HETATM   11  N1  UNL     1      22.460   0.969  51.431  1.00  0.00    -0.363 N 
HETATM   12  H10 UNL     1      22.886   0.646  50.543  1.00  0.00     0.165 HD
BRANCH  11  13
HETATM   13  C7  UNL     1      22.263   2.374  51.350  1.00  0.00     0.088 C 
HETATM   14  C6  UNL     1      23.266   3.101  50.864  1.00  0.00     0.017 C 
BRANCH  14  15
HETATM   15  C5  UNL     1      24.597   2.804  50.365  1.00  0.00     0.001 C 
HETATM   16  C4  UNL     1      25.550   3.488  49.758  1.00  0.00    -0.000 C 
BRANCH  16  17
HETATM   17  C3  UNL     1      25.394   4.897  49.438  1.00  0.00    -0.004 C 
HETATM   18  C2  UNL     1      26.428   5.538  48.899  1.00  0.00    -0.031 C 
HETATM   19  C1  UNL     1      27.601   4.667  48.715  1.00  0.00     0.036 C 
ENDBRANCH  16  17
ENDBRANCH  14  15
ENDBRANCH  11  13
ENDBRANCH   1  11
BRANCH   2  20
HETATM   20  N2  UNL     1      19.682   0.413  51.955  1.00  0.00    -0.396 N 
HETATM   21  H11 UNL     1      18.673   0.305  51.720  1.00  0.00     0.156 HD
HETATM   22  H12 UNL     1      19.932   1.159  51.249  1.00  0.00     0.156 HD
ENDBRANCH   2  20
BRANCH   8  23
HETATM   23  N4  UNL     1      26.698  -0.310  54.161  1.00  0.00    -0.327 N 
HETATM   24  C15 UNL     1      27.656  -1.119  53.508  1.00  0.00     0.221 C 
HETATM   25  O1  UNL     1      27.286  -2.139  52.872  1.00  0.00    -0.273 OA
HETATM   26  H16 UNL     1      27.162   0.482  54.636  1.00  0.00     0.169 HD
BRANCH  24  27
HETATM   27  C16 UNL     1      29.104  -0.875  53.499  1.00  0.00     0.098 C 
HETATM   28  C17 UNL     1      29.478   0.546  53.728  1.00  0.00     0.014 C 
ENDBRANCH  24  27
ENDBRANCH   8  23
TORSDOF 7
ENDMDL
MODEL 3
REMARK VINA RESULT:      -7.9      2.405      5.619
REMARK  7 active torsions:
REMARK  status: ('A' for Active; 'I' for Inactive)
REMARK    1  A    between atoms: C3_3  and  C4_4 
REMARK    2  A    between atoms: C5_5  and  C6_6 
REMARK    3  A    between atoms: C7_7  and  N1_8 
REMARK    4  A    between atoms: N1_8  and  C8_9 
REMARK    5  A    between atoms: C9_10  and  N2_11 
REMARK    6  A    between atoms: C14_17  and  N4_18 
REMARK       I    between atoms: N4_18  and  C15_19 
REMARK    7  A    between atoms: C15_19  and  C16_21 
ROOT
HETATM    1  C8  UNL     1      26.490   1.784  53.033  1.00  0.00     0.072 A 
HETATM    2  C9  UNL     1      27.720   1.698  53.646  1.00  0.00     0.071 A 
HETATM    3  C10 UNL     1      27.998   0.734  54.623  1.00  0.00     0.148 A 
HETATM    4  N3  UNL     1      27.010  -0.136  54.962  1.00  0.00    -0.258 NA
HETATM    5  C11 UNL     1      25.808  -0.055  54.365  1.00  0.00     0.069 A 
HETATM    6  C12 UNL     1      24.800  -0.932  54.699  1.00  0.00     0.035 A 
HETATM    7  C13 UNL     1      23.557  -0.882  54.110  1.00  0.00     0.032 A 
HETATM    8  C14 UNL     1      23.256   0.059  53.144  1.00  0.00     0.035 A 
HETATM    9  C18 UNL     1      24.267   0.925  52.821  1.00  0.00     0.045 A 
HETATM   10  C19 UNL     1      25.513   0.885  53.402  1.00  0.00     0.024 A 
ENDROOT
BRANCH   1  11
HETATM   11  N1  UNL     1      26.309   2.784  52.077  1.00  0.00    -0.363 N 
HETATM   12  H10 UNL     1      25.844   3.707  52.157  1.00  0.00     0.165 HD
BRANCH  11  13
HETATM   13  C7  UNL     1      26.790   2.636  50.748  1.00  0.00     0.088 C 
HETATM   14  C6  UNL     1      26.152   3.308  49.793  1.00  0.00     0.017 C 
BRANCH  14  15
HETATM   15  C5  UNL     1      25.015   4.210  49.761  1.00  0.00     0.001 C 
HETATM   16  C4  UNL     1      23.731   4.098  49.470  1.00  0.00    -0.000 C 
BRANCH  16  17
HETATM   17  C3  UNL     1      23.147   2.831  49.063  1.00  0.00    -0.004 C 
HETATM   18  C2  UNL     1      22.160   2.327  49.800  1.00  0.00    -0.031 C 
HETATM   19  C1  UNL     1      21.819   3.182  50.950  1.00  0.00     0.036 C 
ENDBRANCH  16  17
ENDBRANCH  14  15
ENDBRANCH  11  13
ENDBRANCH   1  11
BRANCH   2  20
HETATM   20  N2  UNL     1      28.851   2.515  53.406  1.00  0.00    -0.396 N 
HETATM   21  H11 UNL     1      29.300   3.227  52.793  1.00  0.00     0.156 HD
HETATM   22  H12 UNL     1      29.621   2.415  54.125  1.00  0.00     0.156 HD
ENDBRANCH   2  20
BRANCH   8  23
HETATM   23  N4  UNL     1      21.945   0.005  52.616  1.00  0.00    -0.327 N 
HETATM   24  C15 UNL     1      20.715   0.206  53.283  1.00  0.00     0.221 C 
HETATM   25  O1  UNL     1      20.704   0.472  54.512  1.00  0.00    -0.273 OA
HETATM   26  H16 UNL     1      21.781  -0.204  51.617  1.00  0.00     0.169 HD
BRANCH  24  27
HETATM   27  C16 UNL     1      19.390   0.133  52.654  1.00  0.00     0.098 C 
HETATM   28  C17 UNL     1      19.411   0.311  51.178  1.00  0.00     0.014 C 
ENDBRANCH  24  27
ENDBRANCH   8  23
TORSDOF 7
ENDMDL
MODEL 4
REMARK VINA RESULT:      -7.6      2.561      5.369
REMARK  7 active torsions:
REMARK  status: ('A' for Active; 'I' for Inactive)
REMARK    1  A    between atoms: C3_3  and  C4_4 
REMARK    2  A    between atoms: C5_5  and  C6_6 
REMARK    3  A    between atoms: C7_7  and  N1_8 
REMARK    4  A    between atoms: N1_8  and  C8_9 
REMARK    5  A    between atoms: C9_10  and  N2_11 
REMARK    6  A    between atoms: C14_17  and  N4_18 
REMARK       I    between atoms: N4_18  and  C15_19 
REMARK    7  A    between atoms: C15_19  and  C16_21 
ROOT
HETATM    1  C8  UNL     1      24.781   0.603  52.707  1.00  0.00     0.072 A 
HETATM    2  C9  UNL     1      26.071   0.483  53.176  1.00  0.00     0.071 A 
HETATM    3  C10 UNL     1      26.376  -0.240  54.335  1.00  0.00     0.148 A 
HETATM    4  N3  UNL     1      25.354  -0.835  55.005  1.00  0.00    -0.258 NA
HETATM    5  C11 UNL     1      24.093  -0.720  54.550  1.00  0.00     0.069 A 
HETATM    6  C12 UNL     1      23.051  -1.320  55.220  1.00  0.00     0.035 A 
HETATM    7  C13 UNL     1      21.748  -1.226  54.785  1.00  0.00     0.032 A 
HETATM    8  C14 UNL     1      21.418  -0.519  53.646  1.00  0.00     0.035 A 
HETATM    9  C18 UNL     1      22.466   0.073  52.989  1.00  0.00     0.045 A 
HETATM   10  C19 UNL     1      23.771  -0.013  53.412  1.00  0.00     0.024 A 
ENDROOT
BRANCH   1  11
HETATM   11  N1  UNL     1      24.579   1.351  51.547  1.00  0.00    -0.363 N 
HETATM   12  H10 UNL     1      24.576   1.053  50.554  1.00  0.00     0.165 HD
BRANCH  11  13
HETATM   13  C7  UNL     1      24.328   2.748  51.598  1.00  0.00     0.088 C 
HETATM   14  C6  UNL     1      25.140   3.538  50.899  1.00  0.00     0.017 C 
BRANCH  14  15
HETATM   15  C5  UNL     1      26.293   3.319  50.044  1.00  0.00     0.001 C 
HETATM   16  C4  UNL     1      26.976   4.048  49.180  1.00  0.00    -0.000 C 
BRANCH  16  17
HETATM   17  C3  UNL     1      26.624   5.429  48.897  1.00  0.00    -0.004 C 
HETATM   18  C2  UNL     1      27.562   6.228  48.394  1.00  0.00    -0.031 C 
HETATM   19  C1  UNL     1      28.850   5.539  48.205  1.00  0.00     0.036 C 
ENDBRANCH  16  17
ENDBRANCH  14  15
ENDBRANCH  11  13
ENDBRANCH   1  11
BRANCH   2  20
HETATM   20  N2  UNL     1      27.242   1.030  52.599  1.00  0.00    -0.396 N 
HETATM   21  H11 UNL     1      28.031   0.897  51.932  1.00  0.00     0.156 HD
HETATM   22  H12 UNL     1      27.487   1.999  52.945  1.00  0.00     0.156 HD
ENDBRANCH   2  20
BRANCH   8  23
HETATM   23  N4  UNL     1      20.046  -0.499  53.304  1.00  0.00    -0.327 N 
HETATM   24  C15 UNL     1      19.447  -0.145  52.074  1.00  0.00     0.221 C 
HETATM   25  O1  UNL     1      20.167   0.210  51.105  1.00  0.00    -0.273 OA
HETATM   26  H16 UNL     1      19.322  -0.763  53.992  1.00  0.00     0.169 HD
BRANCH  24  27
HETATM   27  C16 UNL     1      18.005  -0.152  51.802  1.00  0.00     0.098 C 
HETATM   28  C17 UNL     1      17.612   0.630  50.599  1.00  0.00     0.014 C 
ENDBRANCH  24  27
ENDBRANCH   8  23
TORSDOF 7
ENDMDL
MODEL 5
REMARK VINA RESULT:      -7.4      2.221      4.563
REMARK  7 active torsions:
REMARK  status: ('A' for Active; 'I' for Inactive)
REMARK    1  A    between atoms: C3_3  and  C4_4 
REMARK    2  A    between atoms: C5_5  and  C6_6 
REMARK    3  A    between atoms: C7_7  and  N1_8 
REMARK    4  A    between atoms: N1_8  and  C8_9 
REMARK    5  A    between atoms: C9_10  and  N2_11 
REMARK    6  A    between atoms: C14_17  and  N4_18 
REMARK       I    between atoms: N4_18  and  C15_19 
REMARK    7  A    between atoms: C15_19  and  C16_21 
ROOT
HETATM    1  C8  UNL     1      22.903   0.126  53.503  1.00  0.00     0.072 A 
HETATM    2  C9  UNL     1      22.494  -0.670  54.550  1.00  0.00     0.071 A 
HETATM    3  C10 UNL     1      23.407  -1.345  55.369  1.00  0.00     0.148 A 
HETATM    4  N3  UNL     1      24.732  -1.198  55.109  1.00  0.00    -0.258 NA
HETATM    5  C11 UNL     1      25.135  -0.421  54.087  1.00  0.00     0.069 A 
HETATM    6  C12 UNL     1      26.475  -0.263  53.814  1.00  0.00     0.035 A 
HETATM    7  C13 UNL     1      26.926   0.524  52.779  1.00  0.00     0.032 A 
HETATM    8  C14 UNL     1      26.049   1.201  51.954  1.00  0.00     0.035 A 
HETATM    9  C18 UNL     1      24.718   1.035  52.237  1.00  0.00     0.045 A 
HETATM   10  C19 UNL     1      24.255   0.252  53.268  1.00  0.00     0.024 A 
ENDROOT
BRANCH   1  11
HETATM   11  N1  UNL     1      21.917   0.751  52.739  1.00  0.00    -0.363 N 
HETATM   12  H10 UNL     1      21.412   1.641  52.903  1.00  0.00     0.165 HD
BRANCH  11  13
HETATM   13  C7  UNL     1      21.445   0.182  51.525  1.00  0.00     0.088 C 
HETATM   14  C6  UNL     1      21.604   0.899  50.416  1.00  0.00     0.017 C 
BRANCH  14  15
HETATM   15  C5  UNL     1      22.173   2.200  50.111  1.00  0.00     0.001 C 
HETATM   16  C4  UNL     1      22.530   2.837  49.010  1.00  0.00    -0.000 C 
BRANCH  16  17
HETATM   17  C3  UNL     1      22.386   2.235  47.696  1.00  0.00    -0.004 C 
HETATM   18  C2  UNL     1      22.145   3.034  46.660  1.00  0.00    -0.031 C 
HETATM   19  C1  UNL     1      22.064   4.453  47.046  1.00  0.00     0.036 C 
ENDBRANCH  16  17
ENDBRANCH  14  15
ENDBRANCH  11  13
ENDBRANCH   1  11
BRANCH   2  20
HETATM   20  N2  UNL     1      21.163  -0.924  54.959  1.00  0.00    -0.396 N 
HETATM   21  H11 UNL     1      20.500  -1.588  55.410  1.00  0.00     0.156 HD
HETATM   22  H12 UNL     1      20.487  -0.137  54.752  1.00  0.00     0.156 HD
ENDBRANCH   2  20
BRANCH   8  23
HETATM   23  N4  UNL     1      26.637   1.976  50.928  1.00  0.00    -0.327 N 
HETATM   24  C15 UNL     1      26.235   3.239  50.435  1.00  0.00     0.221 C 
HETATM   25  O1  UNL     1      25.229   3.812  50.926  1.00  0.00    -0.273 OA
HETATM   26  H16 UNL     1      27.474   1.644  50.422  1.00  0.00     0.169 HD
BRANCH  24  27
HETATM   27  C16 UNL     1      26.907   3.981  49.361  1.00  0.00     0.098 C 
HETATM   28  C17 UNL     1      26.313   5.316  49.085  1.00  0.00     0.014 C 
ENDBRANCH  24  27
ENDBRANCH   8  23
TORSDOF 7
ENDMDL
MODEL 6
REMARK VINA RESULT:      -7.2      5.179      9.302
REMARK  7 active torsions:
REMARK  status: ('A' for Active; 'I' for Inactive)
REMARK    1  A    between atoms: C3_3  and  C4_4 
REMARK    2  A    between atoms: C5_5  and  C6_6 
REMARK    3  A    between atoms: C7_7  and  N1_8 
REMARK    4  A    between atoms: N1_8  and  C8_9 
REMARK    5  A    between atoms: C9_10  and  N2_11 
REMARK    6  A    between atoms: C14_17  and  N4_18 
REMARK       I    between atoms: N4_18  and  C15_19 
REMARK    7  A    between atoms: C15_19  and  C16_21 
ROOT
HETATM    1  C8  UNL     1      29.417   8.452  48.927  1.00  0.00     0.072 A 
HETATM    2  C9  UNL     1      29.200   9.808  48.818  1.00  0.00     0.071 A 
HETATM    3  C10 UNL     1      30.229  10.700  48.489  1.00  0.00     0.148 A 
HETATM    4  N3  UNL     1      31.471  10.193  48.274  1.00  0.00    -0.258 NA
HETATM    5  C11 UNL     1      31.685   8.869  48.380  1.00  0.00     0.069 A 
HETATM    6  C12 UNL     1      32.939   8.344  48.163  1.00  0.00     0.035 A 
HETATM    7  C13 UNL     1      33.198   6.996  48.261  1.00  0.00     0.032 A 
HETATM    8  C14 UNL     1      32.204   6.093  48.584  1.00  0.00     0.035 A 
HETATM    9  C18 UNL     1      30.960   6.630  48.798  1.00  0.00     0.045 A 
HETATM   10  C19 UNL     1      30.689   7.974  48.703  1.00  0.00     0.024 A 
ENDROOT
BRANCH   1  11
HETATM   11  N1  UNL     1      28.329   7.646  49.266  1.00  0.00    -0.363 N 
HETATM   12  H10 UNL     1      28.085   7.202  50.170  1.00  0.00     0.165 HD
BRANCH  11  13
HETATM   13  C7  UNL     1      27.330   7.309  48.314  1.00  0.00     0.088 C 
HETATM   14  C6  UNL     1      26.987   6.026  48.222  1.00  0.00     0.017 C 
BRANCH  14  15
HETATM   15  C5  UNL     1      27.404   4.805  48.888  1.00  0.00     0.001 C 
HETATM   16  C4  UNL     1      26.787   3.779  49.446  1.00  0.00    -0.000 C 
BRANCH  16  17
HETATM   17  C3  UNL     1      25.337   3.689  49.489  1.00  0.00    -0.004 C 
HETATM   18  C2  UNL     1      24.778   3.002  50.481  1.00  0.00    -0.031 C 
HETATM   19  C1  UNL     1      25.773   2.427  51.403  1.00  0.00     0.036 C 
ENDBRANCH  16  17
ENDBRANCH  14  15
ENDBRANCH  11  13
ENDBRANCH   1  11
BRANCH   2  20
HETATM   20  N2  UNL     1      27.976  10.494  49.000  1.00  0.00    -0.396 N 
HETATM   21  H11 UNL     1      27.067  10.784  48.583  1.00  0.00     0.156 HD
HETATM   22  H12 UNL     1      27.857  10.927  49.958  1.00  0.00     0.156 HD
ENDBRANCH   2  20
BRANCH   8  23
HETATM   23  N4  UNL     1      32.597   4.736  48.652  1.00  0.00    -0.327 N 
HETATM   24  C15 UNL     1      32.669   3.785  47.609  1.00  0.00     0.221 C 
HETATM   25  O1  UNL     1      32.358   4.116  46.436  1.00  0.00    -0.273 OA
HETATM   26  H16 UNL     1      32.882   4.308  49.548  1.00  0.00     0.169 HD
BRANCH  24  27
HETATM   27  C16 UNL     1      33.091   2.387  47.767  1.00  0.00     0.098 C 
HETATM   28  C17 UNL     1      32.382   1.437  46.869  1.00  0.00     0.014 C 
ENDBRANCH  24  27
ENDBRANCH   8  23
TORSDOF 7
ENDMDL
MODEL 7
REMARK VINA RESULT:      -7.1      2.506      6.644
REMARK  7 active torsions:
REMARK  status: ('A' for Active; 'I' for Inactive)
REMARK    1  A    between atoms: C3_3  and  C4_4 
REMARK    2  A    between atoms: C5_5  and  C6_6 
REMARK    3  A    between atoms: C7_7  and  N1_8 
REMARK    4  A    between atoms: N1_8  and  C8_9 
REMARK    5  A    between atoms: C9_10  and  N2_11 
REMARK    6  A    between atoms: C14_17  and  N4_18 
REMARK       I    between atoms: N4_18  and  C15_19 
REMARK    7  A    between atoms: C15_19  and  C16_21 
ROOT
HETATM    1  C8  UNL     1      23.526   0.414  52.915  1.00  0.00     0.072 A 
HETATM    2  C9  UNL     1      23.286  -0.573  53.845  1.00  0.00     0.071 A 
HETATM    3  C10 UNL     1      24.298  -1.073  54.674  1.00  0.00     0.148 A 
HETATM    4  N3  UNL     1      25.547  -0.555  54.543  1.00  0.00    -0.258 NA
HETATM    5  C11 UNL     1      25.784   0.409  53.635  1.00  0.00     0.069 A 
HETATM    6  C12 UNL     1      27.046   0.943  53.494  1.00  0.00     0.035 A 
HETATM    7  C13 UNL     1      27.327   1.931  52.578  1.00  0.00     0.032 A 
HETATM    8  C14 UNL     1      26.350   2.442  51.747  1.00  0.00     0.035 A 
HETATM    9  C18 UNL     1      25.098   1.902  51.898  1.00  0.00     0.045 A 
HETATM   10  C19 UNL     1      24.804   0.915  52.809  1.00  0.00     0.024 A 
ENDROOT
BRANCH   1  11
HETATM   11  N1  UNL     1      22.454   0.841  52.130  1.00  0.00    -0.363 N 
HETATM   12  H10 UNL     1      22.125   0.500  51.208  1.00  0.00     0.165 HD
BRANCH  11  13
HETATM   13  C7  UNL     1      21.602   1.899  52.548  1.00  0.00     0.088 C 
HETATM   14  C6  UNL     1      20.326   1.836  52.175  1.00  0.00     0.017 C 
BRANCH  14  15
HETATM   15  C5  UNL     1      19.533   0.901  51.397  1.00  0.00     0.001 C 
HETATM   16  C4  UNL     1      18.842  -0.194  51.660  1.00  0.00    -0.000 C 
BRANCH  16  17
HETATM   17  C3  UNL     1      18.744  -0.733  53.005  1.00  0.00    -0.004 C 
HETATM   18  C2  UNL     1      17.612  -1.332  53.364  1.00  0.00    -0.031 C 
HETATM   19  C1  UNL     1      16.611  -1.343  52.284  1.00  0.00     0.036 C 
ENDBRANCH  16  17
ENDBRANCH  14  15
ENDBRANCH  11  13
ENDBRANCH   1  11
BRANCH   2  20
HETATM   20  N2  UNL     1      22.051  -1.210  54.114  1.00  0.00    -0.396 N 
HETATM   21  H11 UNL     1      21.302  -1.845  53.766  1.00  0.00     0.156 HD
HETATM   22  H12 UNL     1      21.651  -0.999  55.070  1.00  0.00     0.156 HD
ENDBRANCH   2  20
BRANCH   8  23
HETATM   23  N4  UNL     1      26.765   3.454  50.851  1.00  0.00    -0.327 N 
HETATM   24  C15 UNL     1      26.035   4.059  49.802  1.00  0.00     0.221 C 
HETATM   25  O1  UNL     1      24.851   3.702  49.576  1.00  0.00    -0.273 OA
HETATM   26  H16 UNL     1      27.716   3.855  50.904  1.00  0.00     0.169 HD
BRANCH  24  27
HETATM   27  C16 UNL     1      26.545   5.111  48.914  1.00  0.00     0.098 C 
HETATM   28  C17 UNL     1      27.989   4.974  48.582  1.00  0.00     0.014 C 
ENDBRANCH  24  27
ENDBRANCH   8  23
TORSDOF 7
ENDMDL
MODEL 8
REMARK VINA RESULT:      -7.1      2.472      5.968
REMARK  7 active torsions:
REMARK  status: ('A' for Active; 'I' for Inactive)
REMARK    1  A    between atoms: C3_3  and  C4_4 
REMARK    2  A    between atoms: C5_5  and  C6_6 
REMARK    3  A    between atoms: C7_7  and  N1_8 
REMARK    4  A    between atoms: N1_8  and  C8_9 
REMARK    5  A    between atoms: C9_10  and  N2_11 
REMARK    6  A    between atoms: C14_17  and  N4_18 
REMARK       I    between atoms: N4_18  and  C15_19 
REMARK    7  A    between atoms: C15_19  and  C16_21 
ROOT
HETATM    1  C8  UNL     1      24.369   4.361  51.165  1.00  0.00     0.072 A 
HETATM    2  C9  UNL     1      24.692   5.461  50.401  1.00  0.00     0.071 A 
HETATM    3  C10 UNL     1      23.712   6.281  49.829  1.00  0.00     0.148 A 
HETATM    4  N3  UNL     1      22.408   5.966  50.045  1.00  0.00    -0.258 NA
HETATM    5  C11 UNL     1      22.090   4.892  50.791  1.00  0.00     0.069 A 
HETATM    6  C12 UNL     1      20.772   4.564  51.019  1.00  0.00     0.035 A 
HETATM    7  C13 UNL     1      20.406   3.474  51.776  1.00  0.00     0.032 A 
HETATM    8  C14 UNL     1      21.352   2.649  52.352  1.00  0.00     0.035 A 
HETATM    9  C18 UNL     1      22.660   2.987  52.118  1.00  0.00     0.045 A 
HETATM   10  C19 UNL     1      23.037   4.072  51.363  1.00  0.00     0.024 A 
ENDROOT
BRANCH   1  11
HETATM   11  N1  UNL     1      25.418   3.603  51.687  1.00  0.00    -0.363 N 
HETATM   12  H10 UNL     1      25.810   3.578  52.646  1.00  0.00     0.165 HD
BRANCH  11  13
HETATM   13  C7  UNL     1      26.142   2.683  50.881  1.00  0.00     0.088 C 
HETATM   14  C6  UNL     1      26.350   1.468  51.382  1.00  0.00     0.017 C 
BRANCH  14  15
HETATM   15  C5  UNL     1      26.004   0.801  52.625  1.00  0.00     0.001 C 
HETATM   16  C4  UNL     1      26.501  -0.202  53.326  1.00  0.00    -0.000 C 
BRANCH  16  17
HETATM   17  C3  UNL     1      27.682  -0.927  52.891  1.00  0.00    -0.004 C 
HETATM   18  C2  UNL     1      28.794  -0.809  53.612  1.00  0.00    -0.031 C 
HETATM   19  C1  UNL     1      28.623   0.077  54.776  1.00  0.00     0.036 C 
ENDBRANCH  16  17
ENDBRANCH  14  15
ENDBRANCH  11  13
ENDBRANCH   1  11
BRANCH   2  20
HETATM   20  N2  UNL     1      25.990   5.930  50.087  1.00  0.00    -0.396 N 
HETATM   21  H11 UNL     1      26.567   6.596  49.532  1.00  0.00     0.156 HD
HETATM   22  H12 UNL     1      26.769   5.437  50.606  1.00  0.00     0.156 HD
ENDBRANCH   2  20
BRANCH   8  23
HETATM   23  N4  UNL     1      20.849   1.564  53.109  1.00  0.00    -0.327 N 
HETATM   24  C15 UNL     1      21.177   0.193  53.011  1.00  0.00     0.221 C 
HETATM   25  O1  UNL     1      22.021  -0.191  52.162  1.00  0.00    -0.273 OA
HETATM   26  H16 UNL     1      20.143   1.713  53.849  1.00  0.00     0.169 HD
BRANCH  24  27
HETATM   27  C16 UNL     1      20.604  -0.875  53.841  1.00  0.00     0.098 C 
HETATM   28  C17 UNL     1      21.620  -1.729  54.512  1.00  0.00     0.014 C 
ENDBRANCH  24  27
ENDBRANCH   8  23
TORSDOF 7
ENDMDL
MODEL 9
REMARK VINA RESULT:      -6.9      2.732      5.681
REMARK  7 active torsions:
REMARK  status: ('A' for Active; 'I' for Inactive)
REMARK    1  A    between atoms: C3_3  and  C4_4 
REMARK    2  A    between atoms: C5_5  and  C6_6 
REMARK    3  A    between atoms: C7_7  and  N1_8 
REMARK    4  A    between atoms: N1_8  and  C8_9 
REMARK    5  A    between atoms: C9_10  and  N2_11 
REMARK    6  A    between atoms: C14_17  and  N4_18 
REMARK       I    between atoms: N4_18  and  C15_19 
REMARK    7  A    between atoms: C15_19  and  C16_21 
ROOT
HETATM    1  C8  UNL     1      25.768   2.481  52.016  1.00  0.00     0.072 A 
HETATM    2  C9  UNL     1      26.662   1.989  52.940  1.00  0.00     0.071 A 
HETATM    3  C10 UNL     1      26.339   0.925  53.791  1.00  0.00     0.148 A 
HETATM    4  N3  UNL     1      25.102   0.374  53.686  1.00  0.00    -0.258 NA
HETATM    5  C11 UNL     1      24.226   0.852  52.784  1.00  0.00     0.069 A 
HETATM    6  C12 UNL     1      22.970   0.301  52.666  1.00  0.00     0.035 A 
HETATM    7  C13 UNL     1      22.047   0.762  51.755  1.00  0.00     0.032 A 
HETATM    8  C14 UNL     1      22.338   1.811  50.904  1.00  0.00     0.035 A 
HETATM    9  C18 UNL     1      23.592   2.350  51.031  1.00  0.00     0.045 A 
HETATM   10  C19 UNL     1      24.522   1.898  51.937  1.00  0.00     0.024 A 
ENDROOT
BRANCH   1  11
HETATM   11  N1  UNL     1      26.181   3.549  51.218  1.00  0.00    -0.363 N 
HETATM   12  H10 UNL     1      26.093   4.570  51.373  1.00  0.00     0.165 HD
BRANCH  11  13
HETATM   13  C7  UNL     1      26.836   3.338  49.975  1.00  0.00     0.088 C 
HETATM   14  C6  UNL     1      26.785   4.326  49.085  1.00  0.00     0.017 C 
BRANCH  14  15
HETATM   15  C5  UNL     1      26.190   5.651  49.060  1.00  0.00     0.001 C 
HETATM   16  C4  UNL     1      24.970   6.132  48.900  1.00  0.00    -0.000 C 
BRANCH  16  17
HETATM   17  C3  UNL     1      23.826   5.263  48.688  1.00  0.00    -0.004 C 
HETATM   18  C2  UNL     1      22.696   5.540  49.334  1.00  0.00    -0.031 C 
HETATM   19  C1  UNL     1      22.811   6.734  50.189  1.00  0.00     0.036 C 
ENDBRANCH  16  17
ENDBRANCH  14  15
ENDBRANCH  11  13
ENDBRANCH   1  11
BRANCH   2  20
HETATM   20  N2  UNL     1      27.983   2.440  53.173  1.00  0.00    -0.396 N 
HETATM   21  H11 UNL     1      28.849   2.349  53.745  1.00  0.00     0.156 HD
HETATM   22  H12 UNL     1      28.305   3.203  52.515  1.00  0.00     0.156 HD
ENDBRANCH   2  20
BRANCH   8  23
HETATM   23  N4  UNL     1      21.307   2.190  50.014  1.00  0.00    -0.327 N 
HETATM   24  C15 UNL     1      21.311   2.175  48.600  1.00  0.00     0.221 C 
HETATM   25  O1  UNL     1      22.333   1.784  47.980  1.00  0.00    -0.273 OA
HETATM   26  H16 UNL     1      20.399   2.536  50.366  1.00  0.00     0.169 HD
BRANCH  24  27
HETATM   27  C16 UNL     1      20.190   2.587  47.746  1.00  0.00     0.098 C 
HETATM   28  C17 UNL     1      20.500   3.734  46.853  1.00  0.00     0.014 C 
ENDBRANCH  24  27
ENDBRANCH   8  23
TORSDOF 7
ENDMDL
