MODEL 1
REMARK VINA RESULT:      -8.3      0.000      0.000
REMARK  6 active torsions:
REMARK  status: ('A' for Active; 'I' for Inactive)
REMARK    1  A    between atoms: C3_3  and  C4_4 
REMARK       I    between atoms: C4_4  and  N1_6 
REMARK    2  A    between atoms: N1_6  and  C5_7 
REMARK    3  A    between atoms: C5_7  and  N2_8 
REMARK    4  A    between atoms: N2_8  and  C6_9 
REMARK    5  A    between atoms: C17_23  and  O3_24 
REMARK    6  A    between atoms: C19_26  and  O4_27 
ROOT
HETATM    1  C6  UNL     1      23.737   3.890  50.800  1.00  0.00     0.028 C 
HETATM    2  C7  UNL     1      25.019   3.851  50.871  1.00  0.00     0.028 C 
HETATM    3  C8  UNL     1      26.063   2.830  51.147  1.00  0.00     0.010 C 
HETATM    4  C9  UNL     1      26.538   1.586  51.442  1.00  0.00     0.185 C 
HETATM    5  O2  UNL     1      26.693   0.189  51.754  1.00  0.00    -0.336 OA
HETATM    6  C10 UNL     1      25.917  -0.244  52.876  1.00  0.00     0.104 A 
HETATM    7  C11 UNL     1      24.599  -0.091  52.471  1.00  0.00     0.055 A 
HETATM    8  C12 UNL     1      23.438  -0.332  53.147  1.00  0.00     0.023 A 
HETATM    9  C13 UNL     1      22.140  -0.130  52.760  1.00  0.00     0.081 A 
HETATM   10  N3  UNL     1      21.212  -0.431  53.686  1.00  0.00    -0.243 NA
HETATM   11  C14 UNL     1      21.458  -0.894  54.915  1.00  0.00     0.234 A 
HETATM   12  N4  UNL     1      22.727  -1.097  55.316  1.00  0.00    -0.241 NA
HETATM   13  C15 UNL     1      23.703  -0.806  54.411  1.00  0.00     0.073 A 
HETATM   14  C16 UNL     1      24.983  -0.992  54.887  1.00  0.00     0.072 A 
HETATM   15  C17 UNL     1      26.108  -0.718  54.141  1.00  0.00     0.103 A 
HETATM   16  C19 UNL     1      21.637   0.420  51.482  1.00  0.00     0.194 C 
HETATM   17  C20 UNL     1      22.056   1.821  51.184  1.00  0.00     0.013 C 
HETATM   18  C21 UNL     1      22.600   3.032  50.937  1.00  0.00     0.028 C 
ENDROOT
BRANCH   1  19
HETATM   19  N2  UNL     1      23.242   5.178  50.492  1.00  0.00    -0.374 N 
HETATM   20  H9  UNL     1      22.878   5.277  49.519  1.00  0.00     0.161 HD
BRANCH  19  21
HETATM   21  C5  UNL     1      23.318   6.163  51.579  1.00  0.00     0.246 C 
BRANCH  21  22
HETATM   22  N1  UNL     1      24.476   7.008  51.404  1.00  0.00    -0.342 N 
HETATM   23  C4  UNL     1      24.445   8.024  50.380  1.00  0.00     0.242 C 
HETATM   24  O1  UNL     1      23.349   8.015  49.764  1.00  0.00    -0.269 OA
HETATM   25  H6  UNL     1      25.337   6.901  52.001  1.00  0.00     0.164 HD
BRANCH  23  26
HETATM   26  C3  UNL     1      25.569   8.921  50.134  1.00  0.00     0.070 C 
HETATM   27  C2  UNL     1      26.832   8.575  50.099  1.00  0.00    -0.026 C 
HETATM   28  C1  UNL     1      27.852   9.635  49.831  1.00  0.00     0.036 C 
ENDBRANCH  23  26
ENDBRANCH  21  22
ENDBRANCH  19  21
ENDBRANCH   1  19
BRANCH  16  29
HETATM   29  O4  UNL     1      20.252   0.313  51.378  1.00  0.00    -0.386 OA
HETATM   30  H20 UNL     1      19.770   0.492  52.209  1.00  0.00     0.210 HD
ENDBRANCH  16  29
BRANCH  15  31
HETATM   31  O3  UNL     1      27.460  -0.805  54.356  1.00  0.00    -0.353 OA
HETATM   32  C18 UNL     1      28.165   0.254  54.929  1.00  0.00     0.210 C 
ENDBRANCH  15  31
TORSDOF 6
ENDMDL
MODEL 2
REMARK VINA RESULT:      -8.2      4.020      7.043
REMARK  6 active torsions:
REMARK  status: ('A' for Active; 'I' for Inactive)
REMARK    1  A    between atoms: C3_3  and  C4_4 
REMARK       I    between atoms: C4_4  and  N1_6 
REMARK    2  A    between atoms: N1_6  and  C5_7 
REMARK    3  A    between atoms: C5_7  and  N2_8 
REMARK    4  A    between atoms: N2_8  and  C6_9 
REMARK    5  A    between atoms: C17_23  and  O3_24 
REMARK    6  A    between atoms: C19_26  and  O4_27 
ROOT
HETATM    1  C6  UNL     1      19.863   1.420  51.964  1.00  0.00     0.028 C 
HETATM    2  C7  UNL     1      20.252   0.251  52.327  1.00  0.00     0.028 C 
HETATM    3  C8  UNL     1      21.475  -0.354  52.916  1.00  0.00     0.010 C 
HETATM    4  C9  UNL     1      22.743  -0.357  53.418  1.00  0.00     0.185 C 
HETATM    5  O2  UNL     1      24.063  -0.011  53.877  1.00  0.00    -0.336 OA
HETATM    6  C10 UNL     1      24.837   0.718  52.919  1.00  0.00     0.104 A 
HETATM    7  C11 UNL     1      24.164   1.921  52.764  1.00  0.00     0.055 A 
HETATM    8  C12 UNL     1      24.442   2.988  51.960  1.00  0.00     0.023 A 
HETATM    9  C13 UNL     1      23.743   4.150  51.772  1.00  0.00     0.081 A 
HETATM   10  N3  UNL     1      24.267   4.994  50.865  1.00  0.00    -0.243 NA
HETATM   11  C14 UNL     1      25.380   4.783  50.155  1.00  0.00     0.234 A 
HETATM   12  N4  UNL     1      26.079   3.645  50.322  1.00  0.00    -0.241 NA
HETATM   13  C15 UNL     1      25.587   2.759  51.232  1.00  0.00     0.073 A 
HETATM   14  C16 UNL     1      26.318   1.595  51.333  1.00  0.00     0.072 A 
HETATM   15  C17 UNL     1      25.965   0.558  52.168  1.00  0.00     0.103 A 
HETATM   16  C19 UNL     1      22.471   4.570  52.401  1.00  0.00     0.194 C 
HETATM   17  C20 UNL     1      21.299   3.694  52.108  1.00  0.00     0.013 C 
HETATM   18  C21 UNL     1      20.337   2.770  51.904  1.00  0.00     0.028 C 
ENDROOT
BRANCH   1  19
HETATM   19  N2  UNL     1      18.547   1.426  51.446  1.00  0.00    -0.374 N 
HETATM   20  H9  UNL     1      18.206   0.492  51.132  1.00  0.00     0.161 HD
BRANCH  19  21
HETATM   21  C5  UNL     1      17.877   2.733  51.433  1.00  0.00     0.246 C 
BRANCH  21  22
HETATM   22  N1  UNL     1      16.498   2.588  51.839  1.00  0.00    -0.342 N 
HETATM   23  C4  UNL     1      15.803   3.739  52.361  1.00  0.00     0.242 C 
HETATM   24  O1  UNL     1      16.551   4.750  52.383  1.00  0.00    -0.269 OA
HETATM   25  H6  UNL     1      15.991   1.669  51.762  1.00  0.00     0.164 HD
BRANCH  23  26
HETATM   26  C3  UNL     1      14.411   3.684  52.794  1.00  0.00     0.070 C 
HETATM   27  C2  UNL     1      13.876   4.405  53.749  1.00  0.00    -0.026 C 
HETATM   28  C1  UNL     1      12.426   4.213  54.056  1.00  0.00     0.036 C 
ENDBRANCH  23  26
ENDBRANCH  21  22
ENDBRANCH  19  21
ENDBRANCH   1  19
BRANCH  16  29
HETATM   29  O4  UNL     1      22.154   5.893  52.102  1.00  0.00    -0.386 OA
HETATM   30  H20 UNL     1      22.011   6.069  51.151  1.00  0.00     0.210 HD
ENDBRANCH  16  29
BRANCH  15  31
HETATM   31  O3  UNL     1      26.489  -0.676  52.459  1.00  0.00    -0.353 OA
HETATM   32  C18 UNL     1      27.775  -0.803  52.986  1.00  0.00     0.210 C 
ENDBRANCH  15  31
TORSDOF 6
ENDMDL
MODEL 3
REMARK VINA RESULT:      -8.2      2.922      4.938
REMARK  6 active torsions:
REMARK  status: ('A' for Active; 'I' for Inactive)
REMARK    1  A    between atoms: C3_3  and  C4_4 
REMARK       I    between atoms: C4_4  and  N1_6 
REMARK    2  A    between atoms: N1_6  and  C5_7 
REMARK    3  A    between atoms: C5_7  and  N2_8 
REMARK    4  A    between atoms: N2_8  and  C6_9 
REMARK    5  A    between atoms: C17_23  and  O3_24 
REMARK    6  A    between atoms: C19_26  and  O4_27 
ROOT
HETATM    1  C6  UNL     1      22.129   3.484  51.926  1.00  0.00     0.028 C 
HETATM    2  C7  UNL     1      23.211   4.031  51.502  1.00  0.00     0.028 C 
HETATM    3  C8  UNL     1      24.613   3.611  51.241  1.00  0.00     0.010 C 
HETATM    4  C9  UNL     1      25.660   2.739  51.188  1.00  0.00     0.185 C 
HETATM    5  O2  UNL     1      26.522   1.588  51.254  1.00  0.00    -0.336 OA
HETATM    6  C10 UNL     1      26.522   0.936  52.528  1.00  0.00     0.104 A 
HETATM    7  C11 UNL     1      25.231   0.450  52.673  1.00  0.00     0.055 A 
HETATM    8  C12 UNL     1      24.661  -0.238  53.706  1.00  0.00     0.023 A 
HETATM    9  C13 UNL     1      23.371  -0.669  53.866  1.00  0.00     0.081 A 
HETATM   10  N3  UNL     1      23.114  -1.286  55.032  1.00  0.00    -0.243 NA
HETATM   11  C14 UNL     1      23.996  -1.498  56.014  1.00  0.00     0.234 A 
HETATM   12  N4  UNL     1      25.268  -1.079  55.878  1.00  0.00    -0.241 NA
HETATM   13  C15 UNL     1      25.576  -0.447  54.711  1.00  0.00     0.073 A 
HETATM   14  C16 UNL     1      26.879  -0.003  54.641  1.00  0.00     0.072 A 
HETATM   15  C17 UNL     1      27.378   0.692  53.562  1.00  0.00     0.103 A 
HETATM   16  C19 UNL     1      22.225  -0.499  52.946  1.00  0.00     0.194 C 
HETATM   17  C20 UNL     1      21.830   0.915  52.677  1.00  0.00     0.013 C 
HETATM   18  C21 UNL     1      21.641   2.219  52.384  1.00  0.00     0.028 C 
ENDROOT
BRANCH   1  19
HETATM   19  N2  UNL     1      21.041   4.386  51.980  1.00  0.00    -0.374 N 
HETATM   20  H9  UNL     1      20.787   4.694  52.944  1.00  0.00     0.161 HD
BRANCH  19  21
HETATM   21  C5  UNL     1      20.448   4.741  50.684  1.00  0.00     0.246 C 
BRANCH  21  22
HETATM   22  N1  UNL     1      19.700   3.623  50.157  1.00  0.00    -0.342 N 
HETATM   23  C4  UNL     1      18.497   3.210  50.837  1.00  0.00     0.242 C 
HETATM   24  O1  UNL     1      18.273   3.931  51.843  1.00  0.00    -0.269 OA
HETATM   25  H6  UNL     1      20.010   3.106  49.294  1.00  0.00     0.164 HD
BRANCH  23  26
HETATM   26  C3  UNL     1      17.680   2.093  50.375  1.00  0.00     0.070 C 
HETATM   27  C2  UNL     1      18.010   0.826  50.436  1.00  0.00    -0.026 C 
HETATM   28  C1  UNL     1      17.043  -0.186  49.912  1.00  0.00     0.036 C 
ENDBRANCH  23  26
ENDBRANCH  21  22
ENDBRANCH  19  21
ENDBRANCH   1  19
BRANCH  16  29
HETATM   29  O4  UNL     1      21.111  -1.225  53.363  1.00  0.00    -0.386 OA
HETATM   30  H20 UNL     1      20.857  -1.075  54.295  1.00  0.00     0.210 HD
ENDBRANCH  16  29
BRANCH  15  31
HETATM   31  O3  UNL     1      28.593   1.238  53.236  1.00  0.00    -0.353 OA
HETATM   32  C18 UNL     1      28.914   2.546  53.603  1.00  0.00     0.210 C 
ENDBRANCH  15  31
TORSDOF 6
ENDMDL
MODEL 4
REMARK VINA RESULT:      -8.1      2.022      2.468
REMARK  6 active torsions:
REMARK  status: ('A' for Active; 'I' for Inactive)
REMARK    1  A    between atoms: C3_3  and  C4_4 
REMARK       I    between atoms: C4_4  and  N1_6 
REMARK    2  A    between atoms: N1_6  and  C5_7 
REMARK    3  A    between atoms: C5_7  and  N2_8 
REMARK    4  A    between atoms: N2_8  and  C6_9 
REMARK    5  A    between atoms: C17_23  and  O3_24 
REMARK    6  A    between atoms: C19_26  and  O4_27 
ROOT
HETATM    1  C6  UNL     1      23.692   3.876  50.756  1.00  0.00     0.028 C 
HETATM    2  C7  UNL     1      24.973   3.861  50.847  1.00  0.00     0.028 C 
HETATM    3  C8  UNL     1      26.032   2.860  51.141  1.00  0.00     0.010 C 
HETATM    4  C9  UNL     1      26.525   1.626  51.447  1.00  0.00     0.185 C 
HETATM    5  O2  UNL     1      26.701   0.233  51.766  1.00  0.00    -0.336 OA
HETATM    6  C10 UNL     1      25.916  -0.211  52.878  1.00  0.00     0.104 A 
HETATM    7  C11 UNL     1      24.602  -0.084  52.453  1.00  0.00     0.055 A 
HETATM    8  C12 UNL     1      23.436  -0.344  53.113  1.00  0.00     0.023 A 
HETATM    9  C13 UNL     1      22.140  -0.166  52.707  1.00  0.00     0.081 A 
HETATM   10  N3  UNL     1      21.205  -0.481  53.620  1.00  0.00    -0.243 NA
HETATM   11  C14 UNL     1      21.442  -0.937  54.854  1.00  0.00     0.234 A 
HETATM   12  N4  UNL     1      22.708  -1.115  55.274  1.00  0.00    -0.241 NA
HETATM   13  C15 UNL     1      23.692  -0.808  54.382  1.00  0.00     0.073 A 
HETATM   14  C16 UNL     1      24.968  -0.970  54.878  1.00  0.00     0.072 A 
HETATM   15  C17 UNL     1      26.098  -0.678  54.147  1.00  0.00     0.103 A 
HETATM   16  C19 UNL     1      21.646   0.370  51.420  1.00  0.00     0.194 C 
HETATM   17  C20 UNL     1      22.043   1.778  51.123  1.00  0.00     0.013 C 
HETATM   18  C21 UNL     1      22.568   2.997  50.880  1.00  0.00     0.028 C 
ENDROOT
BRANCH   1  19
HETATM   19  N2  UNL     1      23.178   5.154  50.437  1.00  0.00    -0.374 N 
HETATM   20  H9  UNL     1      23.449   5.502  49.491  1.00  0.00     0.161 HD
BRANCH  19  21
HETATM   21  C5  UNL     1      22.351   5.782  51.477  1.00  0.00     0.246 C 
BRANCH  21  22
HETATM   22  N1  UNL     1      22.105   7.167  51.145  1.00  0.00    -0.342 N 
HETATM   23  C4  UNL     1      21.111   7.475  50.145  1.00  0.00     0.242 C 
HETATM   24  O1  UNL     1      20.583   6.427  49.692  1.00  0.00    -0.269 OA
HETATM   25  H6  UNL     1      22.629   7.952  51.612  1.00  0.00     0.164 HD
BRANCH  23  26
HETATM   26  C3  UNL     1      20.797   8.843  49.749  1.00  0.00     0.070 C 
HETATM   27  C2  UNL     1      19.598   9.369  49.696  1.00  0.00    -0.026 C 
HETATM   28  C1  UNL     1      19.467  10.795  49.266  1.00  0.00     0.036 C 
ENDBRANCH  23  26
ENDBRANCH  21  22
ENDBRANCH  19  21
ENDBRANCH   1  19
BRANCH  16  29
HETATM   29  O4  UNL     1      20.265   0.237  51.296  1.00  0.00    -0.386 OA
HETATM   30  H20 UNL     1      19.859  -0.376  51.939  1.00  0.00     0.210 HD
ENDBRANCH  16  29
BRANCH  15  31
HETATM   31  O3  UNL     1      27.448  -0.739  54.381  1.00  0.00    -0.353 OA
HETATM   32  C18 UNL     1      28.132   0.349  54.926  1.00  0.00     0.210 C 
ENDBRANCH  15  31
TORSDOF 6
ENDMDL
MODEL 5
REMARK VINA RESULT:      -8.1      3.533      7.617
REMARK  6 active torsions:
REMARK  status: ('A' for Active; 'I' for Inactive)
REMARK    1  A    between atoms: C3_3  and  C4_4 
REMARK       I    between atoms: C4_4  and  N1_6 
REMARK    2  A    between atoms: N1_6  and  C5_7 
REMARK    3  A    between atoms: C5_7  and  N2_8 
REMARK    4  A    between atoms: N2_8  and  C6_9 
REMARK    5  A    between atoms: C17_23  and  O3_24 
REMARK    6  A    between atoms: C19_26  and  O4_27 
ROOT
HETATM    1  C6  UNL     1      20.323   1.053  52.362  1.00  0.00     0.028 C 
HETATM    2  C7  UNL     1      20.566  -0.095  52.884  1.00  0.00     0.028 C 
HETATM    3  C8  UNL     1      21.698  -0.752  53.588  1.00  0.00     0.010 C 
HETATM    4  C9  UNL     1      22.947  -0.832  54.129  1.00  0.00     0.185 C 
HETATM    5  O2  UNL     1      24.289  -0.580  54.586  1.00  0.00    -0.336 OA
HETATM    6  C10 UNL     1      25.162  -0.075  53.570  1.00  0.00     0.104 A 
HETATM    7  C11 UNL     1      24.636   1.165  53.240  1.00  0.00     0.055 A 
HETATM    8  C12 UNL     1      25.053   2.079  52.315  1.00  0.00     0.023 A 
HETATM    9  C13 UNL     1      24.498   3.279  51.957  1.00  0.00     0.081 A 
HETATM   10  N3  UNL     1      25.134   3.931  50.968  1.00  0.00    -0.243 NA
HETATM   11  C14 UNL     1      26.228   3.505  50.330  1.00  0.00     0.234 A 
HETATM   12  N4  UNL     1      26.786   2.328  50.664  1.00  0.00    -0.241 NA
HETATM   13  C15 UNL     1      26.177   1.629  51.663  1.00  0.00     0.073 A 
HETATM   14  C16 UNL     1      26.765   0.413  51.937  1.00  0.00     0.072 A 
HETATM   15  C17 UNL     1      26.278  -0.459  52.885  1.00  0.00     0.103 A 
HETATM   16  C19 UNL     1      23.271   3.918  52.482  1.00  0.00     0.194 C 
HETATM   17  C20 UNL     1      22.011   3.150  52.263  1.00  0.00     0.013 C 
HETATM   18  C21 UNL     1      20.952   2.321  52.146  1.00  0.00     0.028 C 
ENDROOT
BRANCH   1  19
HETATM   19  N2  UNL     1      19.027   1.140  51.802  1.00  0.00    -0.374 N 
HETATM   20  H9  UNL     1      18.626   2.103  51.795  1.00  0.00     0.161 HD
BRANCH  19  21
HETATM   21  C5  UNL     1      18.456  -0.127  51.326  1.00  0.00     0.246 C 
BRANCH  21  22
HETATM   22  N1  UNL     1      17.013  -0.061  51.346  1.00  0.00    -0.342 N 
HETATM   23  C4  UNL     1      16.317  -0.457  52.545  1.00  0.00     0.242 C 
HETATM   24  O1  UNL     1      17.123  -0.820  53.440  1.00  0.00    -0.269 OA
HETATM   25  H6  UNL     1      16.461   0.268  50.511  1.00  0.00     0.164 HD
BRANCH  23  26
HETATM   26  C3  UNL     1      14.862  -0.421  52.654  1.00  0.00     0.070 C 
HETATM   27  C2  UNL     1      14.166   0.470  53.315  1.00  0.00    -0.026 C 
HETATM   28  C1  UNL     1      12.675   0.349  53.315  1.00  0.00     0.036 C 
ENDBRANCH  23  26
ENDBRANCH  21  22
ENDBRANCH  19  21
ENDBRANCH   1  19
BRANCH  16  29
HETATM   29  O4  UNL     1      23.116   5.218  52.006  1.00  0.00    -0.386 OA
HETATM   30  H20 UNL     1      23.406   5.913  52.629  1.00  0.00     0.210 HD
ENDBRANCH  16  29
BRANCH  15  31
HETATM   31  O3  UNL     1      26.648  -1.695  53.348  1.00  0.00    -0.353 OA
HETATM   32  C18 UNL     1      27.575  -2.474  52.653  1.00  0.00     0.210 C 
ENDBRANCH  15  31
TORSDOF 6
ENDMDL
MODEL 6
REMARK VINA RESULT:      -8.1      3.013      4.406
REMARK  6 active torsions:
REMARK  status: ('A' for Active; 'I' for Inactive)
REMARK    1  A    between atoms: C3_3  and  C4_4 
REMARK       I    between atoms: C4_4  and  N1_6 
REMARK    2  A    between atoms: N1_6  and  C5_7 
REMARK    3  A    between atoms: C5_7  and  N2_8 
REMARK    4  A    between atoms: N2_8  and  C6_9 
REMARK    5  A    between atoms: C17_23  and  O3_24 
REMARK    6  A    between atoms: C19_26  and  O4_27 
ROOT
HETATM    1  C6  UNL     1      26.076   3.260  50.449  1.00  0.00     0.028 C 
HETATM    2  C7  UNL     1      26.487   2.476  51.380  1.00  0.00     0.028 C 
HETATM    3  C8  UNL     1      25.955   1.315  52.140  1.00  0.00     0.010 C 
HETATM    4  C9  UNL     1      25.030   0.375  52.486  1.00  0.00     0.185 C 
HETATM    5  O2  UNL     1      23.860  -0.457  52.599  1.00  0.00    -0.336 OA
HETATM    6  C10 UNL     1      22.645   0.275  52.788  1.00  0.00     0.104 A 
HETATM    7  C11 UNL     1      22.483   0.997  51.615  1.00  0.00     0.055 A 
HETATM    8  C12 UNL     1      21.507   1.879  51.252  1.00  0.00     0.023 A 
HETATM    9  C13 UNL     1      21.382   2.628  50.112  1.00  0.00     0.081 A 
HETATM   10  N3  UNL     1      20.314   3.445  50.078  1.00  0.00    -0.243 NA
HETATM   11  C14 UNL     1      19.400   3.576  51.045  1.00  0.00     0.234 A 
HETATM   12  N4  UNL     1      19.508   2.851  52.174  1.00  0.00    -0.241 NA
HETATM   13  C15 UNL     1      20.575   2.008  52.255  1.00  0.00     0.073 A 
HETATM   14  C16 UNL     1      20.658   1.322  53.448  1.00  0.00     0.072 A 
HETATM   15  C17 UNL     1      21.683   0.450  53.740  1.00  0.00     0.103 A 
HETATM   16  C19 UNL     1      22.290   2.687  48.946  1.00  0.00     0.194 C 
HETATM   17  C20 UNL     1      23.670   3.173  49.241  1.00  0.00     0.013 C 
HETATM   18  C21 UNL     1      24.925   3.485  49.628  1.00  0.00     0.028 C 
ENDROOT
BRANCH   1  19
HETATM   19  N2  UNL     1      27.034   4.235  50.087  1.00  0.00    -0.374 N 
HETATM   20  H9  UNL     1      27.926   4.180  50.624  1.00  0.00     0.161 HD
BRANCH  19  21
HETATM   21  C5  UNL     1      26.624   5.162  49.023  1.00  0.00     0.246 C 
BRANCH  21  22
HETATM   22  N1  UNL     1      27.572   6.246  48.917  1.00  0.00    -0.342 N 
HETATM   23  C4  UNL     1      28.891   5.968  48.402  1.00  0.00     0.242 C 
HETATM   24  O1  UNL     1      29.016   4.751  48.107  1.00  0.00    -0.269 OA
HETATM   25  H6  UNL     1      27.326   7.229  49.205  1.00  0.00     0.164 HD
BRANCH  23  26
HETATM   26  C3  UNL     1      29.910   7.002  48.260  1.00  0.00     0.070 C 
HETATM   27  C2  UNL     1      30.969   7.142  49.019  1.00  0.00    -0.026 C 
HETATM   28  C1  UNL     1      31.911   8.265  48.722  1.00  0.00     0.036 C 
ENDBRANCH  23  26
ENDBRANCH  21  22
ENDBRANCH  19  21
ENDBRANCH   1  19
BRANCH  16  29
HETATM   29  O4  UNL     1      21.746   3.427  47.898  1.00  0.00    -0.386 OA
HETATM   30  H20 UNL     1      21.290   4.245  48.177  1.00  0.00     0.210 HD
ENDBRANCH  16  29
BRANCH  15  31
HETATM   31  O3  UNL     1      22.009  -0.340  54.813  1.00  0.00    -0.353 OA
HETATM   32  C18 UNL     1      21.682  -1.697  54.831  1.00  0.00     0.210 C 
ENDBRANCH  15  31
TORSDOF 6
ENDMDL
MODEL 7
REMARK VINA RESULT:      -8.0      2.636      8.054
REMARK  6 active torsions:
REMARK  status: ('A' for Active; 'I' for Inactive)
REMARK    1  A    between atoms: C3_3  and  C4_4 
REMARK       I    between atoms: C4_4  and  N1_6 
REMARK    2  A    between atoms: N1_6  and  C5_7 
REMARK    3  A    between atoms: C5_7  and  N2_8 
REMARK    4  A    between atoms: N2_8  and  C6_9 
REMARK    5  A    between atoms: C17_23  and  O3_24 
REMARK    6  A    between atoms: C19_26  and  O4_27 
ROOT
HETATM    1  C6  UNL     1      23.235   0.897  52.408  1.00  0.00     0.028 C 
HETATM    2  C7  UNL     1      22.156   0.517  51.823  1.00  0.00     0.028 C 
HETATM    3  C8  UNL     1      21.538   0.661  50.479  1.00  0.00     0.010 C 
HETATM    4  C9  UNL     1      21.463   1.080  49.184  1.00  0.00     0.185 C 
HETATM    5  O2  UNL     1      21.701   1.668  47.892  1.00  0.00    -0.336 OA
HETATM    6  C10 UNL     1      22.017   3.063  47.939  1.00  0.00     0.104 A 
HETATM    7  C11 UNL     1      23.228   3.127  48.611  1.00  0.00     0.055 A 
HETATM    8  C12 UNL     1      23.986   4.208  48.958  1.00  0.00     0.023 A 
HETATM    9  C13 UNL     1      25.155   4.267  49.669  1.00  0.00     0.081 A 
HETATM   10  N3  UNL     1      25.633   5.506  49.883  1.00  0.00    -0.243 NA
HETATM   11  C14 UNL     1      25.067   6.643  49.469  1.00  0.00     0.234 A 
HETATM   12  N4  UNL     1      23.916   6.606  48.772  1.00  0.00    -0.241 NA
HETATM   13  C15 UNL     1      23.392   5.372  48.530  1.00  0.00     0.073 A 
HETATM   14  C16 UNL     1      22.193   5.395  47.850  1.00  0.00     0.072 A 
HETATM   15  C17 UNL     1      21.484   4.256  47.542  1.00  0.00     0.103 A 
HETATM   16  C19 UNL     1      25.925   3.154  50.267  1.00  0.00     0.194 C 
HETATM   17  C20 UNL     1      25.204   2.374  51.316  1.00  0.00     0.013 C 
HETATM   18  C21 UNL     1      24.426   1.646  52.143  1.00  0.00     0.028 C 
ENDROOT
BRANCH   1  19
HETATM   19  N2  UNL     1      23.316   0.461  53.750  1.00  0.00    -0.374 N 
HETATM   20  H9  UNL     1      22.903   1.124  54.443  1.00  0.00     0.161 HD
BRANCH  19  21
HETATM   21  C5  UNL     1      23.964  -0.842  53.956  1.00  0.00     0.246 C 
BRANCH  21  22
HETATM   22  N1  UNL     1      25.256  -0.862  53.310  1.00  0.00    -0.342 N 
HETATM   23  C4  UNL     1      26.418  -0.472  54.071  1.00  0.00     0.242 C 
HETATM   24  O1  UNL     1      26.106  -0.157  55.248  1.00  0.00    -0.269 OA
HETATM   25  H6  UNL     1      25.370  -1.152  52.305  1.00  0.00     0.164 HD
BRANCH  23  26
HETATM   26  C3  UNL     1      27.760  -0.462  53.500  1.00  0.00     0.070 C 
HETATM   27  C2  UNL     1      28.881  -0.544  54.175  1.00  0.00    -0.026 C 
HETATM   28  C1  UNL     1      30.169  -0.519  53.418  1.00  0.00     0.036 C 
ENDBRANCH  23  26
ENDBRANCH  21  22
ENDBRANCH  19  21
ENDBRANCH   1  19
BRANCH  16  29
HETATM   29  O4  UNL     1      27.156   3.579  50.762  1.00  0.00    -0.386 OA
HETATM   30  H20 UNL     1      27.533   3.002  51.455  1.00  0.00     0.210 HD
ENDBRANCH  16  29
BRANCH  15  31
HETATM   31  O3  UNL     1      20.303   3.992  46.897  1.00  0.00    -0.353 OA
HETATM   32  C18 UNL     1      19.077   4.193  47.534  1.00  0.00     0.210 C 
ENDBRANCH  15  31
TORSDOF 6
ENDMDL
MODEL 8
REMARK VINA RESULT:      -8.0      3.511     10.104
REMARK  6 active torsions:
REMARK  status: ('A' for Active; 'I' for Inactive)
REMARK    1  A    between atoms: C3_3  and  C4_4 
REMARK       I    between atoms: C4_4  and  N1_6 
REMARK    2  A    between atoms: N1_6  and  C5_7 
REMARK    3  A    between atoms: C5_7  and  N2_8 
REMARK    4  A    between atoms: N2_8  and  C6_9 
REMARK    5  A    between atoms: C17_23  and  O3_24 
REMARK    6  A    between atoms: C19_26  and  O4_27 
ROOT
HETATM    1  C6  UNL     1      25.789   4.756  49.185  1.00  0.00     0.028 C 
HETATM    2  C7  UNL     1      24.822   5.593  49.055  1.00  0.00     0.028 C 
HETATM    3  C8  UNL     1      24.633   6.958  48.499  1.00  0.00     0.010 C 
HETATM    4  C9  UNL     1      25.016   8.117  47.890  1.00  0.00     0.185 C 
HETATM    5  O2  UNL     1      25.738   9.179  47.240  1.00  0.00    -0.336 OA
HETATM    6  C10 UNL     1      26.923   9.583  47.933  1.00  0.00     0.104 A 
HETATM    7  C11 UNL     1      27.755   8.474  47.882  1.00  0.00     0.055 A 
HETATM    8  C12 UNL     1      29.005   8.288  48.400  1.00  0.00     0.023 A 
HETATM    9  C13 UNL     1      29.799   7.172  48.392  1.00  0.00     0.081 A 
HETATM   10  N3  UNL     1      30.973   7.300  49.035  1.00  0.00    -0.243 NA
HETATM   11  C14 UNL     1      31.403   8.399  49.662  1.00  0.00     0.234 A 
HETATM   12  N4  UNL     1      30.635   9.505  49.685  1.00  0.00    -0.241 NA
HETATM   13  C15 UNL     1      29.435   9.423  49.046  1.00  0.00     0.073 A 
HETATM   14  C16 UNL     1      28.673  10.568  49.135  1.00  0.00     0.072 A 
HETATM   15  C17 UNL     1      27.413  10.675  48.588  1.00  0.00     0.103 A 
HETATM   16  C19 UNL     1      29.510   5.842  47.812  1.00  0.00     0.194 C 
HETATM   17  C20 UNL     1      28.338   5.132  48.404  1.00  0.00     0.013 C 
HETATM   18  C21 UNL     1      27.186   4.634  48.900  1.00  0.00     0.028 C 
ENDROOT
BRANCH   1  19
HETATM   19  N2  UNL     1      25.394   3.553  49.814  1.00  0.00    -0.374 N 
HETATM   20  H9  UNL     1      25.067   2.812  49.156  1.00  0.00     0.161 HD
BRANCH  19  21
HETATM   21  C5  UNL     1      25.505   3.537  51.279  1.00  0.00     0.246 C 
BRANCH  21  22
HETATM   22  N1  UNL     1      26.532   2.607  51.689  1.00  0.00    -0.342 N 
HETATM   23  C4  UNL     1      26.165   1.235  51.941  1.00  0.00     0.242 C 
HETATM   24  O1  UNL     1      24.935   1.051  51.753  1.00  0.00    -0.269 OA
HETATM   25  H6  UNL     1      27.535   2.905  51.808  1.00  0.00     0.164 HD
BRANCH  23  26
HETATM   26  C3  UNL     1      27.136   0.229  52.357  1.00  0.00     0.070 C 
HETATM   27  C2  UNL     1      27.952   0.329  53.378  1.00  0.00    -0.026 C 
HETATM   28  C1  UNL     1      28.883  -0.808  53.656  1.00  0.00     0.036 C 
ENDBRANCH  23  26
ENDBRANCH  21  22
ENDBRANCH  19  21
ENDBRANCH   1  19
BRANCH  16  29
HETATM   29  O4  UNL     1      30.626   5.008  47.839  1.00  0.00    -0.386 OA
HETATM   30  H20 UNL     1      30.594   4.270  47.199  1.00  0.00     0.210 HD
ENDBRANCH  16  29
BRANCH  15  31
HETATM   31  O3  UNL     1      26.461  11.660  48.529  1.00  0.00    -0.353 OA
HETATM   32  C18 UNL     1      26.786  12.947  48.099  1.00  0.00     0.210 C 
ENDBRANCH  15  31
TORSDOF 6
ENDMDL
MODEL 9
REMARK VINA RESULT:      -8.0      4.025      7.623
REMARK  6 active torsions:
REMARK  status: ('A' for Active; 'I' for Inactive)
REMARK    1  A    between atoms: C3_3  and  C4_4 
REMARK       I    between atoms: C4_4  and  N1_6 
REMARK    2  A    between atoms: N1_6  and  C5_7 
REMARK    3  A    between atoms: C5_7  and  N2_8 
REMARK    4  A    between atoms: N2_8  and  C6_9 
REMARK    5  A    between atoms: C17_23  and  O3_24 
REMARK    6  A    between atoms: C19_26  and  O4_27 
ROOT
HETATM    1  C6  UNL     1      22.840   0.854  52.886  1.00  0.00     0.028 C 
HETATM    2  C7  UNL     1      22.165   0.289  53.822  1.00  0.00     0.028 C 
HETATM    3  C8  UNL     1      20.847  -0.384  53.959  1.00  0.00     0.010 C 
HETATM    4  C9  UNL     1      19.643  -0.860  53.529  1.00  0.00     0.185 C 
HETATM    5  O2  UNL     1      18.482  -1.230  52.762  1.00  0.00    -0.336 OA
HETATM    6  C10 UNL     1      17.897  -0.144  52.035  1.00  0.00     0.104 A 
HETATM    7  C11 UNL     1      18.862   0.218  51.108  1.00  0.00     0.055 A 
HETATM    8  C12 UNL     1      18.851   1.208  50.168  1.00  0.00     0.023 A 
HETATM    9  C13 UNL     1      19.828   1.595  49.290  1.00  0.00     0.081 A 
HETATM   10  N3  UNL     1      19.517   2.648  48.514  1.00  0.00    -0.243 NA
HETATM   11  C14 UNL     1      18.364   3.323  48.540  1.00  0.00     0.234 A 
HETATM   12  N4  UNL     1      17.392   2.961  49.398  1.00  0.00    -0.241 NA
HETATM   13  C15 UNL     1      17.661   1.897  50.206  1.00  0.00     0.073 A 
HETATM   14  C16 UNL     1      16.649   1.595  51.092  1.00  0.00     0.072 A 
HETATM   15  C17 UNL     1      16.741   0.580  52.017  1.00  0.00     0.103 A 
HETATM   16  C19 UNL     1      21.188   1.036  49.124  1.00  0.00     0.194 C 
HETATM   17  C20 UNL     1      22.072   1.148  50.322  1.00  0.00     0.013 C 
HETATM   18  C21 UNL     1      22.743   1.167  51.493  1.00  0.00     0.028 C 
ENDROOT
BRANCH   1  19
HETATM   19  N2  UNL     1      24.089   1.346  53.329  1.00  0.00    -0.374 N 
HETATM   20  H9  UNL     1      24.220   1.316  54.364  1.00  0.00     0.161 HD
BRANCH  19  21
HETATM   21  C5  UNL     1      24.995   1.818  52.273  1.00  0.00     0.246 C 
BRANCH  21  22
HETATM   22  N1  UNL     1      26.240   1.087  52.323  1.00  0.00    -0.342 N 
HETATM   23  C4  UNL     1      27.186   1.397  53.367  1.00  0.00     0.242 C 
HETATM   24  O1  UNL     1      26.753   2.310  54.116  1.00  0.00    -0.269 OA
HETATM   25  H6  UNL     1      26.473   0.337  51.621  1.00  0.00     0.164 HD
BRANCH  23  26
HETATM   26  C3  UNL     1      28.466   0.708  53.494  1.00  0.00     0.070 C 
HETATM   27  C2  UNL     1      28.634  -0.590  53.556  1.00  0.00    -0.026 C 
HETATM   28  C1  UNL     1      30.027  -1.119  53.685  1.00  0.00     0.036 C 
ENDBRANCH  23  26
ENDBRANCH  21  22
ENDBRANCH  19  21
ENDBRANCH   1  19
BRANCH  16  29
HETATM   29  O4  UNL     1      21.838   1.567  48.011  1.00  0.00    -0.386 OA
HETATM   30  H20 UNL     1      21.420   2.372  47.647  1.00  0.00     0.210 HD
ENDBRANCH  16  29
BRANCH  15  31
HETATM   31  O3  UNL     1      15.917   0.077  52.991  1.00  0.00    -0.353 OA
HETATM   32  C18 UNL     1      14.580  -0.219  52.718  1.00  0.00     0.210 C 
ENDBRANCH  15  31
TORSDOF 6
ENDMDL
