MODEL 1
REMARK VINA RESULT:      -7.2      0.000      0.000
REMARK  7 active torsions:
REMARK  status: ('A' for Active; 'I' for Inactive)
REMARK    1  A    between atoms: N1_2  and  C3_4 
REMARK    2  A    between atoms: C3_4  and  C4_5 
REMARK    3  A    between atoms: C4_5  and  C5_6 
REMARK    4  A    between atoms: C5_6  and  C6_7 
REMARK       I    between atoms: C6_7  and  N2_9 
REMARK    5  A    between atoms: N2_9  and  C7_10 
REMARK    6  A    between atoms: N3_14  and  C11_15 
REMARK    7  A    between atoms: N4_23  and  C18_24 
ROOT
HETATM    1  C18 UNL     1      23.069   4.882  52.077  1.00  0.00     0.130 C 
HETATM    2  C19 UNL     1      21.807   4.866  51.638  1.00  0.00     0.112 C 
HETATM    3  C20 UNL     1      20.778   4.018  52.224  1.00  0.00     0.089 C 
HETATM    4  N5  UNL     1      19.964   3.344  52.708  1.00  0.00    -0.192 NA
ENDROOT
BRANCH   1   5
HETATM    5  N4  UNL     1      23.889   5.759  51.385  1.00  0.00    -0.242 NA
HETATM    6  C17 UNL     1      24.837   5.652  50.598  1.00  0.00     0.134 C 
HETATM    7  N3  UNL     1      25.442   4.470  50.115  1.00  0.00    -0.307 N 
HETATM    8  C21 UNL     1      25.201   7.052  50.270  1.00  0.00     0.053 C 
HETATM    9  C10 UNL     1      26.607   4.038  49.432  1.00  0.00     0.099 C 
HETATM   10  C9  UNL     1      27.545   4.663  48.740  1.00  0.00     0.020 C 
HETATM   11  C8  UNL     1      27.761   6.063  48.399  1.00  0.00     0.031 C 
HETATM   12  C7  UNL     1      27.229   7.262  48.690  1.00  0.00     0.035 C 
HETATM   13  C22 UNL     1      26.123   7.704  49.534  1.00  0.00     0.033 C 
BRANCH   7  14
HETATM   14  C11 UNL     1      24.600   3.367  50.420  1.00  0.00     0.041 A 
HETATM   15  C12 UNL     1      24.604   2.495  51.507  1.00  0.00     0.030 A 
HETATM   16  C13 UNL     1      23.672   1.482  51.567  1.00  0.00     0.004 A 
HETATM   17  C14 UNL     1      22.728   1.301  50.579  1.00  0.00     0.019 A 
HETATM   18  C15 UNL     1      22.718   2.157  49.502  1.00  0.00     0.013 A 
HETATM   19 BR1  UNL     1      21.390   1.857  48.166  1.00  0.00    -0.051 Br
HETATM   20  C16 UNL     1      23.647   3.195  49.408  1.00  0.00     0.049 A 
ENDBRANCH   7  14
BRANCH  12  21
HETATM   21  N2  UNL     1      27.855   8.399  48.044  1.00  0.00    -0.324 N 
HETATM   22  C6  UNL     1      27.449   8.937  46.767  1.00  0.00     0.245 C 
HETATM   23  O1  UNL     1      26.483   8.153  46.476  1.00  0.00    -0.268 OA
HETATM   24  H11 UNL     1      28.572   8.589  48.784  1.00  0.00     0.169 HD
BRANCH  22  25
HETATM   25  C5  UNL     1      28.329  10.057  46.493  1.00  0.00     0.072 C 
BRANCH  25  26
HETATM   26  C4  UNL     1      29.290  10.925  46.429  1.00  0.00     0.008 C 
BRANCH  26  27
HETATM   27  C3  UNL     1      30.474  10.879  47.285  1.00  0.00     0.299 C 
BRANCH  27  28
HETATM   28  N1  UNL     1      30.163  11.061  48.708  1.00  0.00     0.083 N 
HETATM   29  C1  UNL     1      30.683   9.984  49.507  1.00  0.00     0.309 C 
HETATM   30  C2  UNL     1      30.615  12.357  49.114  1.00  0.00     0.309 C 
ENDBRANCH  27  28
ENDBRANCH  26  27
ENDBRANCH  25  26
ENDBRANCH  22  25
ENDBRANCH  12  21
ENDBRANCH   1   5
TORSDOF 7
ENDMDL
MODEL 2
REMARK VINA RESULT:      -7.2      3.157      9.381
REMARK  7 active torsions:
REMARK  status: ('A' for Active; 'I' for Inactive)
REMARK    1  A    between atoms: N1_2  and  C3_4 
REMARK    2  A    between atoms: C3_4  and  C4_5 
REMARK    3  A    between atoms: C4_5  and  C5_6 
REMARK    4  A    between atoms: C5_6  and  C6_7 
REMARK       I    between atoms: C6_7  and  N2_9 
REMARK    5  A    between atoms: N2_9  and  C7_10 
REMARK    6  A    between atoms: N3_14  and  C11_15 
REMARK    7  A    between atoms: N4_23  and  C18_24 
ROOT
HETATM    1  C18 UNL     1      29.243   5.942  47.954  1.00  0.00     0.130 C 
HETATM    2  C19 UNL     1      30.485   5.523  48.214  1.00  0.00     0.112 C 
HETATM    3  C20 UNL     1      31.671   6.250  47.782  1.00  0.00     0.089 C 
HETATM    4  N5  UNL     1      32.607   6.847  47.440  1.00  0.00    -0.192 NA
ENDROOT
BRANCH   1   5
HETATM    5  N4  UNL     1      28.257   5.105  48.455  1.00  0.00    -0.242 NA
HETATM    6  C17 UNL     1      27.161   5.258  49.004  1.00  0.00     0.134 C 
HETATM    7  N3  UNL     1      26.507   6.468  49.329  1.00  0.00    -0.307 N 
HETATM    8  C21 UNL     1      26.677   3.878  49.250  1.00  0.00     0.053 C 
HETATM    9  C10 UNL     1      25.427   6.954  50.109  1.00  0.00     0.099 C 
HETATM   10  C9  UNL     1      24.401   6.374  50.709  1.00  0.00     0.020 C 
HETATM   11  C8  UNL     1      23.965   4.988  50.813  1.00  0.00     0.031 C 
HETATM   12  C7  UNL     1      24.413   3.766  50.480  1.00  0.00     0.035 C 
HETATM   13  C22 UNL     1      25.616   3.271  49.819  1.00  0.00     0.033 C 
BRANCH   7  14
HETATM   14  C11 UNL     1      27.152   7.535  48.646  1.00  0.00     0.041 A 
HETATM   15  C12 UNL     1      28.120   8.438  49.081  1.00  0.00     0.030 A 
HETATM   16  C13 UNL     1      28.588   9.402  48.215  1.00  0.00     0.004 A 
HETATM   17  C14 UNL     1      28.125   9.503  46.920  1.00  0.00     0.019 A 
HETATM   18  C15 UNL     1      27.169   8.615  46.483  1.00  0.00     0.013 A 
HETATM   19 BR1  UNL     1      26.566   8.805  44.683  1.00  0.00    -0.051 Br
HETATM   20  C16 UNL     1      26.672   7.626  47.333  1.00  0.00     0.049 A 
ENDBRANCH   7  14
BRANCH  12  21
HETATM   21  N2  UNL     1      23.541   2.662  50.829  1.00  0.00    -0.324 N 
HETATM   22  C6  UNL     1      22.595   2.052  49.925  1.00  0.00     0.245 C 
HETATM   23  O1  UNL     1      22.794   2.746  48.871  1.00  0.00    -0.268 OA
HETATM   24  H11 UNL     1      23.860   2.554  51.821  1.00  0.00     0.169 HD
BRANCH  22  25
HETATM   25  C5  UNL     1      21.933   0.997  50.670  1.00  0.00     0.072 C 
BRANCH  25  26
HETATM   26  C4  UNL     1      21.385   0.228  51.557  1.00  0.00     0.008 C 
BRANCH  26  27
HETATM   27  C3  UNL     1      21.686   0.304  52.986  1.00  0.00     0.299 C 
BRANCH  27  28
HETATM   28  N1  UNL     1      22.546  -0.790  53.452  1.00  0.00     0.083 N 
HETATM   29  C1  UNL     1      23.904  -0.356  53.635  1.00  0.00     0.309 C 
HETATM   30  C2  UNL     1      21.957  -1.368  54.621  1.00  0.00     0.309 C 
ENDBRANCH  27  28
ENDBRANCH  26  27
ENDBRANCH  25  26
ENDBRANCH  22  25
ENDBRANCH  12  21
ENDBRANCH   1   5
TORSDOF 7
ENDMDL
MODEL 3
REMARK VINA RESULT:      -7.1      7.036      9.098
REMARK  7 active torsions:
REMARK  status: ('A' for Active; 'I' for Inactive)
REMARK    1  A    between atoms: N1_2  and  C3_4 
REMARK    2  A    between atoms: C3_4  and  C4_5 
REMARK    3  A    between atoms: C4_5  and  C5_6 
REMARK    4  A    between atoms: C5_6  and  C6_7 
REMARK       I    between atoms: C6_7  and  N2_9 
REMARK    5  A    between atoms: N2_9  and  C7_10 
REMARK    6  A    between atoms: N3_14  and  C11_15 
REMARK    7  A    between atoms: N4_23  and  C18_24 
ROOT
HETATM    1  C18 UNL     1      17.401  -0.928  52.867  1.00  0.00     0.130 C 
HETATM    2  C19 UNL     1      17.110  -2.232  52.912  1.00  0.00     0.112 C 
HETATM    3  C20 UNL     1      15.754  -2.744  52.766  1.00  0.00     0.089 C 
HETATM    4  N5  UNL     1      14.669  -3.139  52.637  1.00  0.00    -0.192 NA
ENDROOT
BRANCH   1   5
HETATM    5  N4  UNL     1      18.750  -0.653  53.027  1.00  0.00    -0.242 NA
HETATM    6  C17 UNL     1      19.620  -0.075  52.366  1.00  0.00     0.134 C 
HETATM    7  N3  UNL     1      19.489   0.550  51.105  1.00  0.00    -0.307 N 
HETATM    8  C21 UNL     1      20.844  -0.181  53.197  1.00  0.00     0.053 C 
HETATM    9  C10 UNL     1      20.286   1.066  50.052  1.00  0.00     0.099 C 
HETATM   10  C9  UNL     1      21.566   1.378  49.943  1.00  0.00     0.020 C 
HETATM   11  C8  UNL     1      22.686   1.315  50.873  1.00  0.00     0.031 C 
HETATM   12  C7  UNL     1      22.942   0.853  52.109  1.00  0.00     0.035 C 
HETATM   13  C22 UNL     1      22.143   0.170  53.122  1.00  0.00     0.033 C 
BRANCH   7  14
HETATM   14  C11 UNL     1      18.107   0.702  50.811  1.00  0.00     0.041 A 
HETATM   15  C12 UNL     1      17.251  -0.082  50.041  1.00  0.00     0.030 A 
HETATM   16  C13 UNL     1      15.932   0.290  49.901  1.00  0.00     0.004 A 
HETATM   17  C14 UNL     1      15.427   1.423  50.503  1.00  0.00     0.019 A 
HETATM   18  C15 UNL     1      16.267   2.204  51.264  1.00  0.00     0.013 A 
HETATM   19 BR1  UNL     1      15.513   3.759  52.070  1.00  0.00    -0.051 Br
HETATM   20  C16 UNL     1      17.609   1.857  51.428  1.00  0.00     0.049 A 
ENDBRANCH   7  14
BRANCH  12  21
HETATM   21  N2  UNL     1      24.294   1.059  52.588  1.00  0.00    -0.324 N 
HETATM   22  C6  UNL     1      24.793   2.311  53.107  1.00  0.00     0.245 C 
HETATM   23  O1  UNL     1      23.752   3.044  53.000  1.00  0.00    -0.268 OA
HETATM   24  H11 UNL     1      24.643   0.087  52.413  1.00  0.00     0.169 HD
BRANCH  22  25
HETATM   25  C5  UNL     1      26.180   2.083  53.470  1.00  0.00     0.072 C 
BRANCH  25  26
HETATM   26  C4  UNL     1      27.332   1.610  53.826  1.00  0.00     0.008 C 
BRANCH  26  27
HETATM   27  C3  UNL     1      27.492   0.399  54.630  1.00  0.00     0.299 C 
BRANCH  27  28
HETATM   28  N1  UNL     1      28.401  -0.580  54.020  1.00  0.00     0.083 N 
HETATM   29  C1  UNL     1      27.795  -1.237  52.894  1.00  0.00     0.309 C 
HETATM   30  C2  UNL     1      29.639   0.071  53.718  1.00  0.00     0.309 C 
ENDBRANCH  27  28
ENDBRANCH  26  27
ENDBRANCH  25  26
ENDBRANCH  22  25
ENDBRANCH  12  21
ENDBRANCH   1   5
TORSDOF 7
ENDMDL
MODEL 4
REMARK VINA RESULT:      -7.1      3.487      9.587
REMARK  7 active torsions:
REMARK  status: ('A' for Active; 'I' for Inactive)
REMARK    1  A    between atoms: N1_2  and  C3_4 
REMARK    2  A    between atoms: C3_4  and  C4_5 
REMARK    3  A    between atoms: C4_5  and  C5_6 
REMARK    4  A    between atoms: C5_6  and  C6_7 
REMARK       I    between atoms: C6_7  and  N2_9 
REMARK    5  A    between atoms: N2_9  and  C7_10 
REMARK    6  A    between atoms: N3_14  and  C11_15 
REMARK    7  A    between atoms: N4_23  and  C18_24 
ROOT
HETATM    1  C18 UNL     1      29.795   5.860  47.786  1.00  0.00     0.130 C 
HETATM    2  C19 UNL     1      30.947   5.779  48.459  1.00  0.00     0.112 C 
HETATM    3  C20 UNL     1      32.148   6.497  48.057  1.00  0.00     0.089 C 
HETATM    4  N5  UNL     1      33.096   7.085  47.732  1.00  0.00    -0.192 NA
ENDROOT
BRANCH   1   5
HETATM    5  N4  UNL     1      28.774   5.100  48.335  1.00  0.00    -0.242 NA
HETATM    6  C17 UNL     1      27.645   5.326  48.786  1.00  0.00     0.134 C 
HETATM    7  N3  UNL     1      26.979   6.567  48.892  1.00  0.00    -0.307 N 
HETATM    8  C21 UNL     1      27.139   3.993  49.193  1.00  0.00     0.053 C 
HETATM    9  C10 UNL     1      25.854   7.155  49.524  1.00  0.00     0.099 C 
HETATM   10  C9  UNL     1      24.788   6.663  50.134  1.00  0.00     0.020 C 
HETATM   11  C8  UNL     1      24.339   5.304  50.405  1.00  0.00     0.031 C 
HETATM   12  C7  UNL     1      24.800   4.048  50.278  1.00  0.00     0.035 C 
HETATM   13  C22 UNL     1      26.040   3.469  49.772  1.00  0.00     0.033 C 
BRANCH   7  14
HETATM   14  C11 UNL     1      27.673   7.528  48.108  1.00  0.00     0.041 A 
HETATM   15  C12 UNL     1      27.637   7.779  46.738  1.00  0.00     0.030 A 
HETATM   16  C13 UNL     1      28.425   8.779  46.210  1.00  0.00     0.004 A 
HETATM   17  C14 UNL     1      29.254   9.547  47.001  1.00  0.00     0.019 A 
HETATM   18  C15 UNL     1      29.296   9.305  48.354  1.00  0.00     0.013 A 
HETATM   19 BR1  UNL     1      30.462  10.396  49.396  1.00  0.00    -0.051 Br
HETATM   20  C16 UNL     1      28.512   8.299  48.923  1.00  0.00     0.049 A 
ENDBRANCH   7  14
BRANCH  12  21
HETATM   21  N2  UNL     1      23.901   3.002  50.723  1.00  0.00    -0.324 N 
HETATM   22  C6  UNL     1      22.946   2.330  49.873  1.00  0.00     0.245 C 
HETATM   23  O1  UNL     1      23.167   2.917  48.759  1.00  0.00    -0.268 OA
HETATM   24  H11 UNL     1      24.211   2.982  51.723  1.00  0.00     0.169 HD
BRANCH  22  25
HETATM   25  C5  UNL     1      22.257   1.365  50.709  1.00  0.00     0.072 C 
BRANCH  25  26
HETATM   26  C4  UNL     1      21.612   0.725  51.633  1.00  0.00     0.008 C 
BRANCH  26  27
HETATM   27  C3  UNL     1      22.066   0.638  53.020  1.00  0.00     0.299 C 
BRANCH  27  28
HETATM   28  N1  UNL     1      22.667  -0.660  53.348  1.00  0.00     0.083 N 
HETATM   29  C1  UNL     1      24.051  -0.525  53.714  1.00  0.00     0.309 C 
HETATM   30  C2  UNL     1      21.862  -1.299  54.343  1.00  0.00     0.309 C 
ENDBRANCH  27  28
ENDBRANCH  26  27
ENDBRANCH  25  26
ENDBRANCH  22  25
ENDBRANCH  12  21
ENDBRANCH   1   5
TORSDOF 7
ENDMDL
MODEL 5
REMARK VINA RESULT:      -6.9      2.082      2.533
REMARK  7 active torsions:
REMARK  status: ('A' for Active; 'I' for Inactive)
REMARK    1  A    between atoms: N1_2  and  C3_4 
REMARK    2  A    between atoms: C3_4  and  C4_5 
REMARK    3  A    between atoms: C4_5  and  C5_6 
REMARK    4  A    between atoms: C5_6  and  C6_7 
REMARK       I    between atoms: C6_7  and  N2_9 
REMARK    5  A    between atoms: N2_9  and  C7_10 
REMARK    6  A    between atoms: N3_14  and  C11_15 
REMARK    7  A    between atoms: N4_23  and  C18_24 
ROOT
HETATM    1  C18 UNL     1      21.128   4.458  49.629  1.00  0.00     0.130 C 
HETATM    2  C19 UNL     1      20.686   4.706  50.865  1.00  0.00     0.112 C 
HETATM    3  C20 UNL     1      19.516   4.050  51.432  1.00  0.00     0.089 C 
HETATM    4  N5  UNL     1      18.587   3.510  51.875  1.00  0.00    -0.192 NA
ENDROOT
BRANCH   1   5
HETATM    5  N4  UNL     1      22.255   5.187  49.284  1.00  0.00    -0.242 NA
HETATM    6  C17 UNL     1      23.465   4.953  49.183  1.00  0.00     0.134 C 
HETATM    7  N3  UNL     1      24.142   3.735  49.417  1.00  0.00    -0.307 N 
HETATM    8  C21 UNL     1      24.055   6.245  48.756  1.00  0.00     0.053 C 
HETATM    9  C10 UNL     1      25.455   3.230  49.599  1.00  0.00     0.099 C 
HETATM   10  C9  UNL     1      26.662   3.724  49.382  1.00  0.00     0.020 C 
HETATM   11  C8  UNL     1      27.133   5.002  48.865  1.00  0.00     0.031 C 
HETATM   12  C7  UNL     1      26.622   6.194  48.510  1.00  0.00     0.035 C 
HETATM   13  C22 UNL     1      25.274   6.753  48.487  1.00  0.00     0.033 C 
BRANCH   7  14
HETATM   14  C11 UNL     1      23.186   2.687  49.496  1.00  0.00     0.041 A 
HETATM   15  C12 UNL     1      22.393   2.106  48.508  1.00  0.00     0.030 A 
HETATM   16  C13 UNL     1      21.523   1.092  48.845  1.00  0.00     0.004 A 
HETATM   17  C14 UNL     1      21.411   0.630  50.139  1.00  0.00     0.019 A 
HETATM   18  C15 UNL     1      22.189   1.199  51.121  1.00  0.00     0.013 A 
HETATM   19 BR1  UNL     1      21.988   0.520  52.891  1.00  0.00    -0.051 Br
HETATM   20  C16 UNL     1      23.081   2.228  50.815  1.00  0.00     0.049 A 
ENDBRANCH   7  14
BRANCH  12  21
HETATM   21  N2  UNL     1      27.580   7.171  48.033  1.00  0.00    -0.324 N 
HETATM   22  C6  UNL     1      27.957   8.363  48.755  1.00  0.00     0.245 C 
HETATM   23  O1  UNL     1      27.239   8.241  49.804  1.00  0.00    -0.268 OA
HETATM   24  H11 UNL     1      27.806   6.698  47.126  1.00  0.00     0.169 HD
BRANCH  22  25
HETATM   25  C5  UNL     1      28.930   9.055  47.930  1.00  0.00     0.072 C 
BRANCH  25  26
HETATM   26  C4  UNL     1      29.932   9.420  47.192  1.00  0.00     0.008 C 
BRANCH  26  27
HETATM   27  C3  UNL     1      31.315   9.444  47.665  1.00  0.00     0.299 C 
BRANCH  27  28
HETATM   28  N1  UNL     1      31.861   8.104  47.914  1.00  0.00     0.083 N 
HETATM   29  C1  UNL     1      32.997   7.832  47.076  1.00  0.00     0.309 C 
HETATM   30  C2  UNL     1      32.125   7.970  49.314  1.00  0.00     0.309 C 
ENDBRANCH  27  28
ENDBRANCH  26  27
ENDBRANCH  25  26
ENDBRANCH  22  25
ENDBRANCH  12  21
ENDBRANCH   1   5
TORSDOF 7
ENDMDL
MODEL 6
REMARK VINA RESULT:      -6.8      5.609     11.621
REMARK  7 active torsions:
REMARK  status: ('A' for Active; 'I' for Inactive)
REMARK    1  A    between atoms: N1_2  and  C3_4 
REMARK    2  A    between atoms: C3_4  and  C4_5 
REMARK    3  A    between atoms: C4_5  and  C5_6 
REMARK    4  A    between atoms: C5_6  and  C6_7 
REMARK       I    between atoms: C6_7  and  N2_9 
REMARK    5  A    between atoms: N2_9  and  C7_10 
REMARK    6  A    between atoms: N3_14  and  C11_15 
REMARK    7  A    between atoms: N4_23  and  C18_24 
ROOT
HETATM    1  C18 UNL     1      24.580   2.083  50.611  1.00  0.00     0.130 C 
HETATM    2  C19 UNL     1      24.773   3.168  49.855  1.00  0.00     0.112 C 
HETATM    3  C20 UNL     1      26.095   3.712  49.576  1.00  0.00     0.089 C 
HETATM    4  N5  UNL     1      27.157   4.127  49.352  1.00  0.00    -0.192 NA
ENDROOT
BRANCH   1   5
HETATM    5  N4  UNL     1      23.247   1.732  50.751  1.00  0.00    -0.242 NA
HETATM    6  C17 UNL     1      22.568   1.156  51.609  1.00  0.00     0.134 C 
HETATM    7  N3  UNL     1      22.994   0.618  52.844  1.00  0.00    -0.307 N 
HETATM    8  C21 UNL     1      21.194   1.154  51.050  1.00  0.00     0.053 C 
HETATM    9  C10 UNL     1      22.543  -0.243  53.877  1.00  0.00     0.099 C 
HETATM   10  C9  UNL     1      21.360  -0.739  54.201  1.00  0.00     0.020 C 
HETATM   11  C8  UNL     1      20.032  -0.599  53.620  1.00  0.00     0.031 C 
HETATM   12  C7  UNL     1      19.462  -0.052  52.533  1.00  0.00     0.035 C 
HETATM   13  C22 UNL     1      19.973   0.694  51.387  1.00  0.00     0.033 C 
BRANCH   7  14
HETATM   14  C11 UNL     1      24.297   1.106  53.131  1.00  0.00     0.041 A 
HETATM   15  C12 UNL     1      24.731   2.383  53.483  1.00  0.00     0.030 A 
HETATM   16  C13 UNL     1      26.073   2.606  53.706  1.00  0.00     0.004 A 
HETATM   17  C14 UNL     1      27.007   1.599  53.591  1.00  0.00     0.019 A 
HETATM   18  C15 UNL     1      26.587   0.336  53.243  1.00  0.00     0.013 A 
HETATM   19 BR1  UNL     1      27.925  -1.016  53.097  1.00  0.00    -0.051 Br
HETATM   20  C16 UNL     1      25.235   0.073  53.010  1.00  0.00     0.049 A 
ENDBRANCH   7  14
BRANCH  12  21
HETATM   21  N2  UNL     1      18.025  -0.207  52.432  1.00  0.00    -0.324 N 
HETATM   22  C6  UNL     1      17.308  -1.410  52.784  1.00  0.00     0.245 C 
HETATM   23  O1  UNL     1      18.272  -2.160  53.158  1.00  0.00    -0.268 OA
HETATM   24  H11 UNL     1      17.817   0.752  52.066  1.00  0.00     0.169 HD
BRANCH  22  25
HETATM   25  C5  UNL     1      15.903  -1.141  52.534  1.00  0.00     0.072 C 
BRANCH  25  26
HETATM   26  C4  UNL     1      14.614  -1.166  52.408  1.00  0.00     0.008 C 
BRANCH  26  27
HETATM   27  C3  UNL     1      13.798   0.033  52.223  1.00  0.00     0.299 C 
BRANCH  27  28
HETATM   28  N1  UNL     1      13.957   1.009  53.308  1.00  0.00     0.083 N 
HETATM   29  C1  UNL     1      14.492   2.254  52.827  1.00  0.00     0.309 C 
HETATM   30  C2  UNL     1      12.708   1.138  53.993  1.00  0.00     0.309 C 
ENDBRANCH  27  28
ENDBRANCH  26  27
ENDBRANCH  25  26
ENDBRANCH  22  25
ENDBRANCH  12  21
ENDBRANCH   1   5
TORSDOF 7
ENDMDL
MODEL 7
REMARK VINA RESULT:      -6.8      2.174      3.294
REMARK  7 active torsions:
REMARK  status: ('A' for Active; 'I' for Inactive)
REMARK    1  A    between atoms: N1_2  and  C3_4 
REMARK    2  A    between atoms: C3_4  and  C4_5 
REMARK    3  A    between atoms: C4_5  and  C5_6 
REMARK    4  A    between atoms: C5_6  and  C6_7 
REMARK       I    between atoms: C6_7  and  N2_9 
REMARK    5  A    between atoms: N2_9  and  C7_10 
REMARK    6  A    between atoms: N3_14  and  C11_15 
REMARK    7  A    between atoms: N4_23  and  C18_24 
ROOT
HETATM    1  C18 UNL     1      26.176   2.285  50.418  1.00  0.00     0.130 C 
HETATM    2  C19 UNL     1      26.822   1.824  51.494  1.00  0.00     0.112 C 
HETATM    3  C20 UNL     1      26.337   0.702  52.285  1.00  0.00     0.089 C 
HETATM    4  N5  UNL     1      25.944  -0.202  52.901  1.00  0.00    -0.192 NA
ENDROOT
BRANCH   1   5
HETATM    5  N4  UNL     1      26.806   3.358  49.808  1.00  0.00    -0.242 NA
HETATM    6  C17 UNL     1      26.447   4.437  49.322  1.00  0.00     0.134 C 
HETATM    7  N3  UNL     1      25.138   4.960  49.228  1.00  0.00    -0.307 N 
HETATM    8  C21 UNL     1      27.706   5.067  48.856  1.00  0.00     0.053 C 
HETATM    9  C10 UNL     1      24.415   5.989  48.573  1.00  0.00     0.099 C 
HETATM   10  C9  UNL     1      24.771   7.075  47.908  1.00  0.00     0.020 C 
HETATM   11  C8  UNL     1      26.066   7.657  47.579  1.00  0.00     0.031 C 
HETATM   12  C7  UNL     1      27.367   7.340  47.685  1.00  0.00     0.035 C 
HETATM   13  C22 UNL     1      28.091   6.191  48.219  1.00  0.00     0.033 C 
BRANCH   7  14
HETATM   14  C11 UNL     1      24.279   4.199  50.067  1.00  0.00     0.041 A 
HETATM   15  C12 UNL     1      24.116   4.213  51.451  1.00  0.00     0.030 A 
HETATM   16  C13 UNL     1      23.208   3.357  52.036  1.00  0.00     0.004 A 
HETATM   17  C14 UNL     1      22.449   2.481  51.290  1.00  0.00     0.019 A 
HETATM   18  C15 UNL     1      22.605   2.460  49.923  1.00  0.00     0.013 A 
HETATM   19 BR1  UNL     1      21.530   1.225  48.945  1.00  0.00    -0.051 Br
HETATM   20  C16 UNL     1      23.516   3.313  49.297  1.00  0.00     0.049 A 
ENDBRANCH   7  14
BRANCH  12  21
HETATM   21  N2  UNL     1      28.297   8.328  47.175  1.00  0.00    -0.324 N 
HETATM   22  C6  UNL     1      28.858   9.402  47.959  1.00  0.00     0.245 C 
HETATM   23  O1  UNL     1      28.309   9.180  49.091  1.00  0.00    -0.268 OA
HETATM   24  H11 UNL     1      28.347   7.963  46.194  1.00  0.00     0.169 HD
BRANCH  22  25
HETATM   25  C5  UNL     1      29.729  10.150  47.072  1.00  0.00     0.072 C 
BRANCH  25  26
HETATM   26  C4  UNL     1      30.700  10.621  46.353  1.00  0.00     0.008 C 
BRANCH  26  27
HETATM   27  C3  UNL     1      31.813   9.806  45.870  1.00  0.00     0.299 C 
BRANCH  27  28
HETATM   28  N1  UNL     1      31.972   8.550  46.614  1.00  0.00     0.083 N 
HETATM   29  C1  UNL     1      31.872   7.406  45.750  1.00  0.00     0.309 C 
HETATM   30  C2  UNL     1      33.192   8.611  47.359  1.00  0.00     0.309 C 
ENDBRANCH  27  28
ENDBRANCH  26  27
ENDBRANCH  25  26
ENDBRANCH  22  25
ENDBRANCH  12  21
ENDBRANCH   1   5
TORSDOF 7
ENDMDL
MODEL 8
REMARK VINA RESULT:      -6.7      1.721      2.264
REMARK  7 active torsions:
REMARK  status: ('A' for Active; 'I' for Inactive)
REMARK    1  A    between atoms: N1_2  and  C3_4 
REMARK    2  A    between atoms: C3_4  and  C4_5 
REMARK    3  A    between atoms: C4_5  and  C5_6 
REMARK    4  A    between atoms: C5_6  and  C6_7 
REMARK       I    between atoms: C6_7  and  N2_9 
REMARK    5  A    between atoms: N2_9  and  C7_10 
REMARK    6  A    between atoms: N3_14  and  C11_15 
REMARK    7  A    between atoms: N4_23  and  C18_24 
ROOT
HETATM    1  C18 UNL     1      21.283   3.968  51.799  1.00  0.00     0.130 C 
HETATM    2  C19 UNL     1      20.084   4.283  51.299  1.00  0.00     0.112 C 
HETATM    3  C20 UNL     1      18.879   3.523  51.599  1.00  0.00     0.089 C 
HETATM    4  N5  UNL     1      17.924   2.914  51.857  1.00  0.00    -0.192 NA
ENDROOT
BRANCH   1   5
HETATM    5  N4  UNL     1      22.298   4.819  51.390  1.00  0.00    -0.242 NA
HETATM    6  C17 UNL     1      23.385   4.690  50.815  1.00  0.00     0.134 C 
HETATM    7  N3  UNL     1      23.992   3.501  50.351  1.00  0.00    -0.307 N 
HETATM    8  C21 UNL     1      23.916   6.071  50.719  1.00  0.00     0.053 C 
HETATM    9  C10 UNL     1      25.243   3.019  49.888  1.00  0.00     0.099 C 
HETATM   10  C9  UNL     1      26.354   3.608  49.479  1.00  0.00     0.020 C 
HETATM   11  C8  UNL     1      26.743   5.005  49.338  1.00  0.00     0.031 C 
HETATM   12  C7  UNL     1      26.252   6.221  49.633  1.00  0.00     0.035 C 
HETATM   13  C22 UNL     1      25.023   6.692  50.265  1.00  0.00     0.033 C 
BRANCH   7  14
HETATM   14  C11 UNL     1      23.024   2.461  50.354  1.00  0.00     0.041 A 
HETATM   15  C12 UNL     1      22.041   2.132  49.423  1.00  0.00     0.030 A 
HETATM   16  C13 UNL     1      21.206   1.063  49.665  1.00  0.00     0.004 A 
HETATM   17  C14 UNL     1      21.312   0.302  50.810  1.00  0.00     0.019 A 
HETATM   18  C15 UNL     1      22.279   0.621  51.735  1.00  0.00     0.013 A 
HETATM   19 BR1  UNL     1      22.377  -0.467  53.299  1.00  0.00    -0.051 Br
HETATM   20  C16 UNL     1      23.142   1.697  51.522  1.00  0.00     0.049 A 
ENDBRANCH   7  14
BRANCH  12  21
HETATM   21  N2  UNL     1      27.087   7.343  49.256  1.00  0.00    -0.324 N 
HETATM   22  C6  UNL     1      26.947   8.087  48.026  1.00  0.00     0.245 C 
HETATM   23  O1  UNL     1      25.963   7.474  47.490  1.00  0.00    -0.268 OA
HETATM   24  H11 UNL     1      27.694   7.345  50.110  1.00  0.00     0.169 HD
BRANCH  22  25
HETATM   25  C5  UNL     1      27.972   9.114  48.047  1.00  0.00     0.072 C 
BRANCH  25  26
HETATM   26  C4  UNL     1      28.907   9.962  48.341  1.00  0.00     0.008 C 
BRANCH  26  27
HETATM   27  C3  UNL     1      29.426  10.950  47.396  1.00  0.00     0.299 C 
BRANCH  27  28
HETATM   28  N1  UNL     1      29.855  12.195  48.043  1.00  0.00     0.083 N 
HETATM   29  C1  UNL     1      28.878  12.667  48.986  1.00  0.00     0.309 C 
HETATM   30  C2  UNL     1      31.156  11.994  48.603  1.00  0.00     0.309 C 
ENDBRANCH  27  28
ENDBRANCH  26  27
ENDBRANCH  25  26
ENDBRANCH  22  25
ENDBRANCH  12  21
ENDBRANCH   1   5
TORSDOF 7
ENDMDL
MODEL 9
REMARK VINA RESULT:      -6.6      4.206      9.193
REMARK  7 active torsions:
REMARK  status: ('A' for Active; 'I' for Inactive)
REMARK    1  A    between atoms: N1_2  and  C3_4 
REMARK    2  A    between atoms: C3_4  and  C4_5 
REMARK    3  A    between atoms: C4_5  and  C5_6 
REMARK    4  A    between atoms: C5_6  and  C6_7 
REMARK       I    between atoms: C6_7  and  N2_9 
REMARK    5  A    between atoms: N2_9  and  C7_10 
REMARK    6  A    between atoms: N3_14  and  C11_15 
REMARK    7  A    between atoms: N4_23  and  C18_24 
ROOT
HETATM    1  C18 UNL     1      32.030   5.007  47.627  1.00  0.00     0.130 C 
HETATM    2  C19 UNL     1      32.540   3.795  47.866  1.00  0.00     0.112 C 
HETATM    3  C20 UNL     1      33.945   3.475  47.661  1.00  0.00     0.089 C 
HETATM    4  N5  UNL     1      35.072   3.237  47.503  1.00  0.00    -0.192 NA
ENDROOT
BRANCH   1   5
HETATM    5  N4  UNL     1      30.671   5.101  47.888  1.00  0.00    -0.242 NA
HETATM    6  C17 UNL     1      29.890   6.007  48.201  1.00  0.00     0.134 C 
HETATM    7  N3  UNL     1      30.178   7.373  48.416  1.00  0.00    -0.307 N 
HETATM    8  C21 UNL     1      28.572   5.335  48.303  1.00  0.00     0.053 C 
HETATM    9  C10 UNL     1      29.592   8.541  48.967  1.00  0.00     0.099 C 
HETATM   10  C9  UNL     1      28.361   8.864  49.325  1.00  0.00     0.020 C 
HETATM   11  C8  UNL     1      27.097   8.140  49.298  1.00  0.00     0.031 C 
HETATM   12  C7  UNL     1      26.654   6.899  49.031  1.00  0.00     0.035 C 
HETATM   13  C22 UNL     1      27.302   5.657  48.622  1.00  0.00     0.033 C 
BRANCH   7  14
HETATM   14  C11 UNL     1      31.477   7.653  47.912  1.00  0.00     0.041 A 
HETATM   15  C12 UNL     1      32.707   7.725  48.563  1.00  0.00     0.030 A 
HETATM   16  C13 UNL     1      33.841   8.026  47.840  1.00  0.00     0.004 A 
HETATM   17  C14 UNL     1      33.797   8.261  46.482  1.00  0.00     0.019 A 
HETATM   18  C15 UNL     1      32.586   8.192  45.832  1.00  0.00     0.013 A 
HETATM   19 BR1  UNL     1      32.588   8.527  43.954  1.00  0.00    -0.051 Br
HETATM   20  C16 UNL     1      31.417   7.890  46.533  1.00  0.00     0.049 A 
ENDBRANCH   7  14
BRANCH  12  21
HETATM   21  N2  UNL     1      25.224   6.702  49.161  1.00  0.00    -0.324 N 
HETATM   22  C6  UNL     1      24.262   7.011  48.130  1.00  0.00     0.245 C 
HETATM   23  O1  UNL     1      25.032   7.450  47.211  1.00  0.00    -0.268 OA
HETATM   24  H11 UNL     1      25.235   6.319  50.136  1.00  0.00     0.169 HD
BRANCH  22  25
HETATM   25  C5  UNL     1      22.958   6.667  48.667  1.00  0.00     0.072 C 
BRANCH  25  26
HETATM   26  C4  UNL     1      21.932   6.134  49.251  1.00  0.00     0.008 C 
BRANCH  26  27
HETATM   27  C3  UNL     1      21.873   5.862  50.687  1.00  0.00     0.299 C 
BRANCH  27  28
HETATM   28  N1  UNL     1      22.714   4.730  51.093  1.00  0.00     0.083 N 
HETATM   29  C1  UNL     1      22.980   4.747  52.506  1.00  0.00     0.309 C 
HETATM   30  C2  UNL     1      22.107   3.520  50.629  1.00  0.00     0.309 C 
ENDBRANCH  27  28
ENDBRANCH  26  27
ENDBRANCH  25  26
ENDBRANCH  22  25
ENDBRANCH  12  21
ENDBRANCH   1   5
TORSDOF 7
ENDMDL
