MODEL 1
REMARK VINA RESULT:      -8.7      0.000      0.000
REMARK  4 active torsions:
REMARK  status: ('A' for Active; 'I' for Inactive)
REMARK    1  A    between atoms: C2_2  and  C3_3 
REMARK    2  A    between atoms: C9_11  and  N1_12 
REMARK    3  A    between atoms: N1_12  and  C10_13 
REMARK    4  A    between atoms: C17_21  and  O3_22 
ROOT
HETATM    1  C10 UNL     1      23.936   1.023  51.980  1.00  0.00     0.065 A 
HETATM    2  C11 UNL     1      22.573   0.932  51.846  1.00  0.00     0.055 A 
HETATM    3  C12 UNL     1      21.729   0.195  52.647  1.00  0.00     0.052 A 
HETATM    4  C13 UNL     1      20.309   0.139  52.459  1.00  0.00     0.100 C 
HETATM    5  N2  UNL     1      19.169   0.083  52.294  1.00  0.00    -0.191 NA
HETATM    6  C14 UNL     1      22.292  -0.521  53.680  1.00  0.00    -0.038 A 
HETATM    7  C15 UNL     1      21.430  -1.332  54.572  1.00  0.00     0.050 C 
HETATM    8  C16 UNL     1      23.638  -0.481  53.874  1.00  0.00     0.047 A 
HETATM    9  C17 UNL     1      24.414   0.278  53.032  1.00  0.00     0.092 A 
ENDROOT
BRANCH   1  10
HETATM   10  N1  UNL     1      24.783   1.795  51.160  1.00  0.00    -0.356 N 
HETATM   11  H14 UNL     1      25.551   1.217  50.719  1.00  0.00     0.162 HD
BRANCH  10  12
HETATM   12  C9  UNL     1      24.847   3.141  50.790  1.00  0.00     0.153 C 
HETATM   13  C8  UNL     1      26.193   3.497  50.191  1.00  0.00     0.068 C 
HETATM   14  C7  UNL     1      26.502   4.486  49.324  1.00  0.00     0.104 C 
HETATM   15  O2  UNL     1      27.802   4.522  48.866  1.00  0.00    -0.346 OA
HETATM   16  C20 UNL     1      25.401   5.428  48.961  1.00  0.00     0.128 C 
HETATM   17  C6  UNL     1      28.589   5.590  48.354  1.00  0.00     0.202 C 
HETATM   18  C5  UNL     1      27.842   6.926  48.456  1.00  0.00     0.198 C 
HETATM   19  O1  UNL     1      26.974   7.165  47.437  1.00  0.00    -0.353 OA
HETATM   20  C3  UNL     1      25.720   7.610  47.757  1.00  0.00     0.166 C 
HETATM   21  C4  UNL     1      25.684   8.724  48.778  1.00  0.00     0.079 C 
HETATM   22  O4  UNL     1      24.871   6.556  48.283  1.00  0.00    -0.310 OA
HETATM   23  C19 UNL     1      24.308   5.000  49.639  1.00  0.00     0.051 C 
HETATM   24  C18 UNL     1      23.916   3.506  49.578  1.00  0.00     0.120 C 
HETATM   25  N3  UNL     1      23.542   5.897  50.490  1.00  0.00    -0.352 N 
HETATM   26  C21 UNL     1      23.700   5.124  51.744  1.00  0.00     0.204 C 
HETATM   27  H23 UNL     1      23.218   6.700  49.923  1.00  0.00     0.166 HD
HETATM   28  N4  UNL     1      24.372   4.022  51.806  1.00  0.00    -0.248 NA
BRANCH  20  29
HETATM   29  C2  UNL     1      24.993   8.166  46.528  1.00  0.00     0.064 C 
HETATM   30  C1  UNL     1      23.635   7.507  46.343  1.00  0.00     0.010 C 
ENDBRANCH  20  29
ENDBRANCH  10  12
ENDBRANCH   1  10
BRANCH   9  31
HETATM   31  O3  UNL     1      25.790   0.260  53.308  1.00  0.00    -0.358 OA
HETATM   32  H20 UNL     1      26.042   0.741  54.169  1.00  0.00     0.217 HD
ENDBRANCH   9  31
TORSDOF 4
ENDMDL
MODEL 2
REMARK VINA RESULT:      -8.7      1.598      2.191
REMARK  4 active torsions:
REMARK  status: ('A' for Active; 'I' for Inactive)
REMARK    1  A    between atoms: C2_2  and  C3_3 
REMARK    2  A    between atoms: C9_11  and  N1_12 
REMARK    3  A    between atoms: N1_12  and  C10_13 
REMARK    4  A    between atoms: C17_21  and  O3_22 
ROOT
HETATM    1  C10 UNL     1      23.799   1.378  51.550  1.00  0.00     0.065 A 
HETATM    2  C11 UNL     1      24.579   0.824  52.535  1.00  0.00     0.055 A 
HETATM    3  C12 UNL     1      24.133   0.034  53.571  1.00  0.00     0.052 A 
HETATM    4  C13 UNL     1      24.999  -0.519  54.572  1.00  0.00     0.100 C 
HETATM    5  N2  UNL     1      25.695  -0.947  55.385  1.00  0.00    -0.191 NA
HETATM    6  C14 UNL     1      22.785  -0.233  53.637  1.00  0.00    -0.038 A 
HETATM    7  C15 UNL     1      22.251  -1.078  54.731  1.00  0.00     0.050 C 
HETATM    8  C16 UNL     1      21.948   0.283  52.696  1.00  0.00     0.047 A 
HETATM    9  C17 UNL     1      22.469   1.063  51.692  1.00  0.00     0.092 A 
ENDROOT
BRANCH   1  10
HETATM   10  N1  UNL     1      24.274   2.172  50.488  1.00  0.00    -0.356 N 
HETATM   11  H14 UNL     1      24.476   1.602  49.619  1.00  0.00     0.162 HD
BRANCH  10  12
HETATM   12  C9  UNL     1      24.538   3.532  50.308  1.00  0.00     0.153 C 
HETATM   13  C8  UNL     1      25.935   3.769  49.771  1.00  0.00     0.068 C 
HETATM   14  C7  UNL     1      26.403   4.812  49.051  1.00  0.00     0.104 C 
HETATM   15  O2  UNL     1      27.706   4.723  48.609  1.00  0.00    -0.346 OA
HETATM   16  C20 UNL     1      25.457   5.944  48.817  1.00  0.00     0.128 C 
HETATM   17  C6  UNL     1      28.650   5.726  48.255  1.00  0.00     0.202 C 
HETATM   18  C5  UNL     1      28.098   7.129  48.536  1.00  0.00     0.198 C 
HETATM   19  O1  UNL     1      27.299   7.627  47.556  1.00  0.00    -0.353 OA
HETATM   20  C3  UNL     1      26.112   8.201  47.928  1.00  0.00     0.166 C 
HETATM   21  C4  UNL     1      26.210   9.158  49.093  1.00  0.00     0.079 C 
HETATM   22  O4  UNL     1      25.110   7.218  48.298  1.00  0.00    -0.310 OA
HETATM   23  C19 UNL     1      24.297   5.589  49.422  1.00  0.00     0.051 C 
HETATM   24  C18 UNL     1      23.699   4.190  49.153  1.00  0.00     0.120 C 
HETATM   25  N3  UNL     1      23.646   6.463  50.386  1.00  0.00    -0.352 N 
HETATM   26  C21 UNL     1      23.661   5.511  51.522  1.00  0.00     0.204 C 
HETATM   27  H23 UNL     1      23.453   7.374  49.934  1.00  0.00     0.166 HD
HETATM   28  N4  UNL     1      24.167   4.326  51.433  1.00  0.00    -0.248 NA
BRANCH  20  29
HETATM   29  C2  UNL     1      25.503   9.018  46.783  1.00  0.00     0.064 C 
HETATM   30  C1  UNL     1      24.766   8.124  45.797  1.00  0.00     0.010 C 
ENDBRANCH  20  29
ENDBRANCH  10  12
ENDBRANCH   1  10
BRANCH   9  31
HETATM   31  O3  UNL     1      21.532   1.551  50.766  1.00  0.00    -0.358 OA
HETATM   32  H20 UNL     1      21.244   0.862  50.074  1.00  0.00     0.217 HD
ENDBRANCH   9  31
TORSDOF 4
ENDMDL
MODEL 3
REMARK VINA RESULT:      -8.5      3.853      6.815
REMARK  4 active torsions:
REMARK  status: ('A' for Active; 'I' for Inactive)
REMARK    1  A    between atoms: C2_2  and  C3_3 
REMARK    2  A    between atoms: C9_11  and  N1_12 
REMARK    3  A    between atoms: N1_12  and  C10_13 
REMARK    4  A    between atoms: C17_21  and  O3_22 
ROOT
HETATM    1  C10 UNL     1      26.680   1.520  53.175  1.00  0.00     0.065 A 
HETATM    2  C11 UNL     1      26.617   0.190  52.843  1.00  0.00     0.055 A 
HETATM    3  C12 UNL     1      27.633  -0.728  52.988  1.00  0.00     0.052 A 
HETATM    4  C13 UNL     1      27.508  -2.110  52.623  1.00  0.00     0.100 C 
HETATM    5  N2  UNL     1      27.409  -3.215  52.313  1.00  0.00    -0.191 NA
HETATM    6  C14 UNL     1      28.826  -0.285  53.512  1.00  0.00    -0.038 A 
HETATM    7  C15 UNL     1      29.953  -1.230  53.689  1.00  0.00     0.050 C 
HETATM    8  C16 UNL     1      28.964   1.023  53.863  1.00  0.00     0.047 A 
HETATM    9  C17 UNL     1      27.904   1.879  53.688  1.00  0.00     0.092 A 
ENDROOT
BRANCH   1  10
HETATM   10  N1  UNL     1      25.625   2.443  53.035  1.00  0.00    -0.356 N 
HETATM   11  H14 UNL     1      25.773   3.315  53.616  1.00  0.00     0.162 HD
BRANCH  10  12
HETATM   12  C9  UNL     1      24.432   2.483  52.308  1.00  0.00     0.153 C 
HETATM   13  C8  UNL     1      23.441   1.444  52.793  1.00  0.00     0.068 C 
HETATM   14  C7  UNL     1      22.093   1.450  52.705  1.00  0.00     0.104 C 
HETATM   15  O2  UNL     1      21.429   0.411  53.323  1.00  0.00    -0.346 OA
HETATM   16  C20 UNL     1      21.475   2.580  51.949  1.00  0.00     0.128 C 
HETATM   17  C6  UNL     1      20.149  -0.161  53.084  1.00  0.00     0.202 C 
HETATM   18  C5  UNL     1      19.490   0.458  51.845  1.00  0.00     0.198 C 
HETATM   19  O1  UNL     1      18.848   1.633  52.078  1.00  0.00    -0.353 OA
HETATM   20  C3  UNL     1      19.075   2.668  51.210  1.00  0.00     0.166 C 
HETATM   21  C4  UNL     1      19.017   2.292  49.747  1.00  0.00     0.079 C 
HETATM   22  O4  UNL     1      20.371   3.292  51.413  1.00  0.00    -0.310 OA
HETATM   23  C19 UNL     1      22.506   3.357  51.536  1.00  0.00     0.051 C 
HETATM   24  C18 UNL     1      23.587   3.785  52.552  1.00  0.00     0.120 C 
HETATM   25  N3  UNL     1      22.663   3.728  50.138  1.00  0.00    -0.352 N 
HETATM   26  C21 UNL     1      24.010   3.140  49.952  1.00  0.00     0.204 C 
HETATM   27  H23 UNL     1      21.806   4.216  49.823  1.00  0.00     0.166 HD
HETATM   28  N4  UNL     1      24.640   2.524  50.897  1.00  0.00    -0.248 NA
BRANCH  20  29
HETATM   29  C2  UNL     1      18.037   3.782  51.383  1.00  0.00     0.064 C 
HETATM   30  C1  UNL     1      16.630   3.215  51.488  1.00  0.00     0.010 C 
ENDBRANCH  20  29
ENDBRANCH  10  12
ENDBRANCH   1  10
BRANCH   9  31
HETATM   31  O3  UNL     1      28.136   3.207  54.079  1.00  0.00    -0.358 OA
HETATM   32  H20 UNL     1      28.959   3.623  53.646  1.00  0.00     0.217 HD
ENDBRANCH   9  31
TORSDOF 4
ENDMDL
MODEL 4
REMARK VINA RESULT:      -8.4      3.598      5.438
REMARK  4 active torsions:
REMARK  status: ('A' for Active; 'I' for Inactive)
REMARK    1  A    between atoms: C2_2  and  C3_3 
REMARK    2  A    between atoms: C9_11  and  N1_12 
REMARK    3  A    between atoms: N1_12  and  C10_13 
REMARK    4  A    between atoms: C17_21  and  O3_22 
ROOT
HETATM    1  C10 UNL     1      26.495   1.309  53.483  1.00  0.00     0.065 A 
HETATM    2  C11 UNL     1      26.548  -0.030  53.185  1.00  0.00     0.055 A 
HETATM    3  C12 UNL     1      27.678  -0.817  53.200  1.00  0.00     0.052 A 
HETATM    4  C13 UNL     1      27.671  -2.215  52.879  1.00  0.00     0.100 C 
HETATM    5  N2  UNL     1      27.665  -3.334  52.603  1.00  0.00    -0.191 NA
HETATM    6  C14 UNL     1      28.869  -0.220  53.542  1.00  0.00    -0.038 A 
HETATM    7  C15 UNL     1      30.115  -1.020  53.574  1.00  0.00     0.050 C 
HETATM    8  C16 UNL     1      28.895   1.106  53.850  1.00  0.00     0.047 A 
HETATM    9  C17 UNL     1      27.726   1.825  53.813  1.00  0.00     0.092 A 
ENDROOT
BRANCH   1  10
HETATM   10  N1  UNL     1      25.327   2.096  53.479  1.00  0.00    -0.356 N 
HETATM   11  H14 UNL     1      25.281   2.752  54.308  1.00  0.00     0.162 HD
BRANCH  10  12
HETATM   12  C9  UNL     1      24.217   2.220  52.638  1.00  0.00     0.153 C 
HETATM   13  C8  UNL     1      23.752   3.658  52.528  1.00  0.00     0.068 C 
HETATM   14  C7  UNL     1      23.071   4.256  51.525  1.00  0.00     0.104 C 
HETATM   15  O2  UNL     1      22.860   5.614  51.645  1.00  0.00    -0.346 OA
HETATM   16  C20 UNL     1      22.623   3.379  50.402  1.00  0.00     0.128 C 
HETATM   17  C6  UNL     1      21.864   6.463  51.089  1.00  0.00     0.202 C 
HETATM   18  C5  UNL     1      20.812   5.653  50.321  1.00  0.00     0.198 C 
HETATM   19  O1  UNL     1      21.164   5.340  49.046  1.00  0.00    -0.353 OA
HETATM   20  C3  UNL     1      20.974   4.049  48.629  1.00  0.00     0.166 C 
HETATM   21  C4  UNL     1      19.629   3.459  48.987  1.00  0.00     0.079 C 
HETATM   22  O4  UNL     1      21.968   3.137  49.167  1.00  0.00    -0.310 OA
HETATM   23  C19 UNL     1      23.062   2.133  50.707  1.00  0.00     0.051 C 
HETATM   24  C18 UNL     1      24.536   1.931  51.127  1.00  0.00     0.120 C 
HETATM   25  N3  UNL     1      22.158   0.994  50.729  1.00  0.00    -0.352 N 
HETATM   26  C21 UNL     1      22.393   0.613  52.142  1.00  0.00     0.204 C 
HETATM   27  H23 UNL     1      21.706   0.908  49.802  1.00  0.00     0.166 HD
HETATM   28  N4  UNL     1      23.197   1.263  52.916  1.00  0.00    -0.248 NA
BRANCH  20  29
HETATM   29  C2  UNL     1      21.074   3.933  47.104  1.00  0.00     0.064 C 
HETATM   30  C1  UNL     1      21.956   5.026  46.523  1.00  0.00     0.010 C 
ENDBRANCH  20  29
ENDBRANCH  10  12
ENDBRANCH   1  10
BRANCH   9  31
HETATM   31  O3  UNL     1      27.848   3.184  54.145  1.00  0.00    -0.358 OA
HETATM   32  H20 UNL     1      28.507   3.363  54.900  1.00  0.00     0.217 HD
ENDBRANCH   9  31
TORSDOF 4
ENDMDL
MODEL 5
REMARK VINA RESULT:      -8.3      2.277      8.137
REMARK  4 active torsions:
REMARK  status: ('A' for Active; 'I' for Inactive)
REMARK    1  A    between atoms: C2_2  and  C3_3 
REMARK    2  A    between atoms: C9_11  and  N1_12 
REMARK    3  A    between atoms: N1_12  and  C10_13 
REMARK    4  A    between atoms: C17_21  and  O3_22 
ROOT
HETATM    1  C10 UNL     1      25.289   6.196  49.881  1.00  0.00     0.065 A 
HETATM    2  C11 UNL     1      25.404   6.502  48.548  1.00  0.00     0.055 A 
HETATM    3  C12 UNL     1      25.075   7.705  47.963  1.00  0.00     0.052 A 
HETATM    4  C13 UNL     1      25.219   7.967  46.560  1.00  0.00     0.100 C 
HETATM    5  N2  UNL     1      25.318   8.168  45.430  1.00  0.00    -0.191 NA
HETATM    6  C14 UNL     1      24.585   8.700  48.779  1.00  0.00    -0.038 A 
HETATM    7  C15 UNL     1      24.216  10.013  48.202  1.00  0.00     0.050 C 
HETATM    8  C16 UNL     1      24.442   8.470  50.112  1.00  0.00     0.047 A 
HETATM    9  C17 UNL     1      24.792   7.243  50.621  1.00  0.00     0.092 A 
ENDROOT
BRANCH   1  10
HETATM   10  N1  UNL     1      25.645   4.965  50.466  1.00  0.00    -0.356 N 
HETATM   11  H14 UNL     1      26.674   4.917  50.706  1.00  0.00     0.162 HD
BRANCH  10  12
HETATM   12  C9  UNL     1      24.961   3.795  50.808  1.00  0.00     0.153 C 
HETATM   13  C8  UNL     1      25.848   2.823  51.560  1.00  0.00     0.068 C 
HETATM   14  C7  UNL     1      25.496   1.854  52.433  1.00  0.00     0.104 C 
HETATM   15  O2  UNL     1      26.527   1.174  53.049  1.00  0.00    -0.346 OA
HETATM   16  C20 UNL     1      24.034   1.629  52.632  1.00  0.00     0.128 C 
HETATM   17  C6  UNL     1      26.583  -0.124  53.627  1.00  0.00     0.202 C 
HETATM   18  C5  UNL     1      25.273  -0.888  53.399  1.00  0.00     0.198 C 
HETATM   19  O1  UNL     1      24.292  -0.603  54.296  1.00  0.00    -0.353 OA
HETATM   20  C3  UNL     1      23.036  -0.353  53.812  1.00  0.00     0.166 C 
HETATM   21  C4  UNL     1      22.554  -1.332  52.766  1.00  0.00     0.079 C 
HETATM   22  O4  UNL     1      22.921   0.964  53.211  1.00  0.00    -0.310 OA
HETATM   23  C19 UNL     1      23.408   2.529  51.836  1.00  0.00     0.051 C 
HETATM   24  C18 UNL     1      23.838   4.012  51.885  1.00  0.00     0.120 C 
HETATM   25  N3  UNL     1      22.397   2.118  50.873  1.00  0.00    -0.352 N 
HETATM   26  C21 UNL     1      23.080   2.645  49.668  1.00  0.00     0.204 C 
HETATM   27  H23 UNL     1      21.641   1.620  51.375  1.00  0.00     0.166 HD
HETATM   28  N4  UNL     1      24.225   3.241  49.719  1.00  0.00    -0.248 NA
BRANCH  20  29
HETATM   29  C2  UNL     1      21.985  -0.403  54.927  1.00  0.00     0.064 C 
HETATM   30  C1  UNL     1      20.663   0.191  54.468  1.00  0.00     0.010 C 
ENDBRANCH  20  29
ENDBRANCH  10  12
ENDBRANCH   1  10
BRANCH   9  31
HETATM   31  O3  UNL     1      24.611   7.096  52.006  1.00  0.00    -0.358 OA
HETATM   32  H20 UNL     1      25.434   6.745  52.492  1.00  0.00     0.217 HD
ENDBRANCH   9  31
TORSDOF 4
ENDMDL
MODEL 6
REMARK VINA RESULT:      -8.1      2.376      3.912
REMARK  4 active torsions:
REMARK  status: ('A' for Active; 'I' for Inactive)
REMARK    1  A    between atoms: C2_2  and  C3_3 
REMARK    2  A    between atoms: C9_11  and  N1_12 
REMARK    3  A    between atoms: N1_12  and  C10_13 
REMARK    4  A    between atoms: C17_21  and  O3_22 
ROOT
HETATM    1  C10 UNL     1      25.032   2.852  51.848  1.00  0.00     0.065 A 
HETATM    2  C11 UNL     1      24.193   1.920  52.404  1.00  0.00     0.055 A 
HETATM    3  C12 UNL     1      24.533   0.631  52.751  1.00  0.00     0.052 A 
HETATM    4  C13 UNL     1      23.611  -0.302  53.331  1.00  0.00     0.100 C 
HETATM    5  N2  UNL     1      22.862  -1.053  53.781  1.00  0.00    -0.191 NA
HETATM    6  C14 UNL     1      25.830   0.229  52.524  1.00  0.00    -0.038 A 
HETATM    7  C15 UNL     1      26.250  -1.147  52.878  1.00  0.00     0.050 C 
HETATM    8  C16 UNL     1      26.719   1.099  51.973  1.00  0.00     0.047 A 
HETATM    9  C17 UNL     1      26.304   2.369  51.654  1.00  0.00     0.092 A 
ENDROOT
BRANCH   1  10
HETATM   10  N1  UNL     1      24.671   4.172  51.513  1.00  0.00    -0.356 N 
HETATM   11  H14 UNL     1      24.496   4.770  52.368  1.00  0.00     0.162 HD
BRANCH  10  12
HETATM   12  C9  UNL     1      24.494   4.881  50.321  1.00  0.00     0.153 C 
HETATM   13  C8  UNL     1      23.689   4.089  49.310  1.00  0.00     0.068 C 
HETATM   14  C7  UNL     1      22.930   4.542  48.288  1.00  0.00     0.104 C 
HETATM   15  O2  UNL     1      22.223   3.594  47.578  1.00  0.00    -0.346 OA
HETATM   16  C20 UNL     1      22.942   6.015  48.044  1.00  0.00     0.128 C 
HETATM   17  C6  UNL     1      21.720   3.599  46.247  1.00  0.00     0.202 C 
HETATM   18  C5  UNL     1      22.166   4.857  45.492  1.00  0.00     0.198 C 
HETATM   19  O1  UNL     1      21.394   5.952  45.718  1.00  0.00    -0.353 OA
HETATM   20  C3  UNL     1      22.026   7.136  45.990  1.00  0.00     0.166 C 
HETATM   21  C4  UNL     1      23.183   7.461  45.073  1.00  0.00     0.079 C 
HETATM   22  O4  UNL     1      22.558   7.186  47.340  1.00  0.00    -0.310 OA
HETATM   23  C19 UNL     1      23.761   6.540  48.988  1.00  0.00     0.051 C 
HETATM   24  C18 UNL     1      23.566   6.140  50.468  1.00  0.00     0.120 C 
HETATM   25  N3  UNL     1      24.872   7.408  48.631  1.00  0.00    -0.352 N 
HETATM   26  C21 UNL     1      25.942   6.578  49.233  1.00  0.00     0.204 C 
HETATM   27  H23 UNL     1      24.507   8.219  48.100  1.00  0.00     0.166 HD
HETATM   28  N4  UNL     1      25.703   5.457  49.830  1.00  0.00    -0.248 NA
BRANCH  20  29
HETATM   29  C2  UNL     1      21.067   8.325  45.868  1.00  0.00     0.064 C 
HETATM   30  C1  UNL     1      21.711   9.608  46.368  1.00  0.00     0.010 C 
ENDBRANCH  20  29
ENDBRANCH  10  12
ENDBRANCH   1  10
BRANCH   9  31
HETATM   31  O3  UNL     1      27.289   3.197  51.092  1.00  0.00    -0.358 OA
HETATM   32  H20 UNL     1      27.830   2.748  50.356  1.00  0.00     0.217 HD
ENDBRANCH   9  31
TORSDOF 4
ENDMDL
MODEL 7
REMARK VINA RESULT:      -8.0      3.095      4.495
REMARK  4 active torsions:
REMARK  status: ('A' for Active; 'I' for Inactive)
REMARK    1  A    between atoms: C2_2  and  C3_3 
REMARK    2  A    between atoms: C9_11  and  N1_12 
REMARK    3  A    between atoms: N1_12  and  C10_13 
REMARK    4  A    between atoms: C17_21  and  O3_22 
ROOT
HETATM    1  C10 UNL     1      24.859   2.502  51.132  1.00  0.00     0.065 A 
HETATM    2  C11 UNL     1      24.098   1.592  51.821  1.00  0.00     0.055 A 
HETATM    3  C12 UNL     1      24.527   0.804  52.866  1.00  0.00     0.052 A 
HETATM    4  C13 UNL     1      23.682  -0.131  53.550  1.00  0.00     0.100 C 
HETATM    5  N2  UNL     1      23.005  -0.895  54.086  1.00  0.00    -0.191 NA
HETATM    6  C14 UNL     1      25.838   0.932  53.266  1.00  0.00    -0.038 A 
HETATM    7  C15 UNL     1      26.353   0.110  54.386  1.00  0.00     0.050 C 
HETATM    8  C16 UNL     1      26.655   1.814  52.629  1.00  0.00     0.047 A 
HETATM    9  C17 UNL     1      26.153   2.565  51.594  1.00  0.00     0.092 A 
ENDROOT
BRANCH   1  10
HETATM   10  N1  UNL     1      24.400   3.311  50.074  1.00  0.00    -0.356 N 
HETATM   11  H14 UNL     1      24.425   2.809  49.143  1.00  0.00     0.162 HD
BRANCH  10  12
HETATM   12  C9  UNL     1      23.914   4.617  49.963  1.00  0.00     0.153 C 
HETATM   13  C8  UNL     1      23.088   4.807  48.707  1.00  0.00     0.068 C 
HETATM   14  C7  UNL     1      22.106   5.702  48.464  1.00  0.00     0.104 C 
HETATM   15  O2  UNL     1      21.450   5.587  47.256  1.00  0.00    -0.346 OA
HETATM   16  C20 UNL     1      21.841   6.714  49.530  1.00  0.00     0.128 C 
HETATM   17  C6  UNL     1      20.738   6.541  46.478  1.00  0.00     0.202 C 
HETATM   18  C5  UNL     1      20.844   7.943  47.091  1.00  0.00     0.198 C 
HETATM   19  O1  UNL     1      19.955   8.190  48.089  1.00  0.00    -0.353 OA
HETATM   20  C3  UNL     1      20.427   8.770  49.236  1.00  0.00     0.166 C 
HETATM   21  C4  UNL     1      21.347   9.949  49.018  1.00  0.00     0.079 C 
HETATM   22  O4  UNL     1      21.163   7.837  50.071  1.00  0.00    -0.310 OA
HETATM   23  C19 UNL     1      22.712   6.435  50.531  1.00  0.00     0.051 C 
HETATM   24  C18 UNL     1      22.835   4.983  51.045  1.00  0.00     0.120 C 
HETATM   25  N3  UNL     1      23.595   7.455  51.075  1.00  0.00    -0.352 N 
HETATM   26  C21 UNL     1      24.869   6.758  50.780  1.00  0.00     0.204 C 
HETATM   27  H23 UNL     1      23.021   8.244  51.421  1.00  0.00     0.166 HD
HETATM   28  N4  UNL     1      24.916   5.606  50.197  1.00  0.00    -0.248 NA
BRANCH  20  29
HETATM   29  C2  UNL     1      19.283   9.305  50.105  1.00  0.00     0.064 C 
HETATM   30  C1  UNL     1      18.366  10.220  49.309  1.00  0.00     0.010 C 
ENDBRANCH  20  29
ENDBRANCH  10  12
ENDBRANCH   1  10
BRANCH   9  31
HETATM   31  O3  UNL     1      27.066   3.448  50.997  1.00  0.00    -0.358 OA
HETATM   32  H20 UNL     1      26.630   4.143  50.394  1.00  0.00     0.217 HD
ENDBRANCH   9  31
TORSDOF 4
ENDMDL
MODEL 8
REMARK VINA RESULT:      -8.0      2.434      8.053
REMARK  4 active torsions:
REMARK  status: ('A' for Active; 'I' for Inactive)
REMARK    1  A    between atoms: C2_2  and  C3_3 
REMARK    2  A    between atoms: C9_11  and  N1_12 
REMARK    3  A    between atoms: N1_12  and  C10_13 
REMARK    4  A    between atoms: C17_21  and  O3_22 
ROOT
HETATM    1  C10 UNL     1      26.645   5.854  48.822  1.00  0.00     0.065 A 
HETATM    2  C11 UNL     1      25.776   6.732  48.223  1.00  0.00     0.055 A 
HETATM    3  C12 UNL     1      26.119   7.740  47.350  1.00  0.00     0.052 A 
HETATM    4  C13 UNL     1      25.163   8.628  46.754  1.00  0.00     0.100 C 
HETATM    5  N2  UNL     1      24.394   9.351  46.290  1.00  0.00    -0.191 NA
HETATM    6  C14 UNL     1      27.451   7.892  47.041  1.00  0.00    -0.038 A 
HETATM    7  C15 UNL     1      27.875   8.961  46.106  1.00  0.00     0.050 C 
HETATM    8  C16 UNL     1      28.372   7.060  47.597  1.00  0.00     0.047 A 
HETATM    9  C17 UNL     1      27.952   6.077  48.460  1.00  0.00     0.092 A 
ENDROOT
BRANCH   1  10
HETATM   10  N1  UNL     1      26.276   4.817  49.701  1.00  0.00    -0.356 N 
HETATM   11  H14 UNL     1      27.101   4.223  49.991  1.00  0.00     0.162 HD
BRANCH  10  12
HETATM   12  C9  UNL     1      25.079   4.391  50.285  1.00  0.00     0.153 C 
HETATM   13  C8  UNL     1      24.222   3.612  49.307  1.00  0.00     0.068 C 
HETATM   14  C7  UNL     1      23.282   2.676  49.562  1.00  0.00     0.104 C 
HETATM   15  O2  UNL     1      22.718   2.053  48.468  1.00  0.00    -0.346 OA
HETATM   16  C20 UNL     1      22.959   2.421  50.998  1.00  0.00     0.128 C 
HETATM   17  C6  UNL     1      21.464   1.405  48.298  1.00  0.00     0.202 C 
HETATM   18  C5  UNL     1      20.592   1.551  49.551  1.00  0.00     0.198 C 
HETATM   19  O1  UNL     1      20.854   0.643  50.528  1.00  0.00    -0.353 OA
HETATM   20  C3  UNL     1      20.980   1.104  51.812  1.00  0.00     0.166 C 
HETATM   21  C4  UNL     1      19.908   2.079  52.243  1.00  0.00     0.079 C 
HETATM   22  O4  UNL     1      22.248   1.774  52.041  1.00  0.00    -0.310 OA
HETATM   23  C19 UNL     1      23.762   3.249  51.710  1.00  0.00     0.051 C 
HETATM   24  C18 UNL     1      25.274   3.295  51.394  1.00  0.00     0.120 C 
HETATM   25  N3  UNL     1      23.221   4.157  52.710  1.00  0.00    -0.352 N 
HETATM   26  C21 UNL     1      23.727   5.409  52.100  1.00  0.00     0.204 C 
HETATM   27  H23 UNL     1      22.698   3.606  53.414  1.00  0.00     0.166 HD
HETATM   28  N4  UNL     1      24.409   5.425  51.003  1.00  0.00    -0.248 NA
BRANCH  20  29
HETATM   29  C2  UNL     1      20.917  -0.042  52.827  1.00  0.00     0.064 C 
HETATM   30  C1  UNL     1      22.283  -0.319  53.435  1.00  0.00     0.010 C 
ENDBRANCH  20  29
ENDBRANCH  10  12
ENDBRANCH   1  10
BRANCH   9  31
HETATM   31  O3  UNL     1      28.971   5.265  48.984  1.00  0.00    -0.358 OA
HETATM   32  H20 UNL     1      29.151   4.428  48.434  1.00  0.00     0.217 HD
ENDBRANCH   9  31
TORSDOF 4
ENDMDL
MODEL 9
REMARK VINA RESULT:      -8.0      1.585      1.988
REMARK  4 active torsions:
REMARK  status: ('A' for Active; 'I' for Inactive)
REMARK    1  A    between atoms: C2_2  and  C3_3 
REMARK    2  A    between atoms: C9_11  and  N1_12 
REMARK    3  A    between atoms: N1_12  and  C10_13 
REMARK    4  A    between atoms: C17_21  and  O3_22 
ROOT
HETATM    1  C10 UNL     1      23.894   2.340  50.761  1.00  0.00     0.065 A 
HETATM    2  C11 UNL     1      22.606   1.867  50.749  1.00  0.00     0.055 A 
HETATM    3  C12 UNL     1      22.023   1.084  51.721  1.00  0.00     0.052 A 
HETATM    4  C13 UNL     1      20.668   0.619  51.654  1.00  0.00     0.100 C 
HETATM    5  N2  UNL     1      19.584   0.232  51.588  1.00  0.00    -0.191 NA
HETATM    6  C14 UNL     1      22.792   0.738  52.809  1.00  0.00    -0.038 A 
HETATM    7  C15 UNL     1      22.215  -0.103  53.884  1.00  0.00     0.050 C 
HETATM    8  C16 UNL     1      24.080   1.170  52.890  1.00  0.00     0.047 A 
HETATM    9  C17 UNL     1      24.590   1.948  51.880  1.00  0.00     0.092 A 
ENDROOT
BRANCH   1  10
HETATM   10  N1  UNL     1      24.470   3.154  49.765  1.00  0.00    -0.356 N 
HETATM   11  H14 UNL     1      24.459   2.693  48.813  1.00  0.00     0.162 HD
BRANCH  10  12
HETATM   12  C9  UNL     1      25.048   4.426  49.736  1.00  0.00     0.153 C 
HETATM   13  C8  UNL     1      26.506   4.373  49.327  1.00  0.00     0.068 C 
HETATM   14  C7  UNL     1      27.261   5.331  48.746  1.00  0.00     0.104 C 
HETATM   15  O2  UNL     1      28.546   4.976  48.391  1.00  0.00    -0.346 OA
HETATM   16  C20 UNL     1      26.619   6.666  48.553  1.00  0.00     0.128 C 
HETATM   17  C6  UNL     1      29.719   5.757  48.204  1.00  0.00     0.202 C 
HETATM   18  C5  UNL     1      29.472   7.224  48.578  1.00  0.00     0.198 C 
HETATM   19  O1  UNL     1      28.899   7.967  47.595  1.00  0.00    -0.353 OA
HETATM   20  C3  UNL     1      27.843   8.771  47.934  1.00  0.00     0.166 C 
HETATM   21  C4  UNL     1      28.046   9.587  49.190  1.00  0.00     0.079 C 
HETATM   22  O4  UNL     1      26.616   8.022  48.136  1.00  0.00    -0.310 OA
HETATM   23  C19 UNL     1      25.358   6.544  49.037  1.00  0.00     0.051 C 
HETATM   24  C18 UNL     1      24.488   5.347  48.593  1.00  0.00     0.120 C 
HETATM   25  N3  UNL     1      24.834   7.468  50.031  1.00  0.00    -0.352 N 
HETATM   26  C21 UNL     1      24.530   6.455  51.068  1.00  0.00     0.204 C 
HETATM   27  H23 UNL     1      24.894   8.431  49.656  1.00  0.00     0.166 HD
HETATM   28  N4  UNL     1      24.764   5.195  50.903  1.00  0.00    -0.248 NA
BRANCH  20  29
HETATM   29  C2  UNL     1      27.541   9.792  46.833  1.00  0.00     0.064 C 
HETATM   30  C1  UNL     1      27.592   9.151  45.455  1.00  0.00     0.010 C 
ENDBRANCH  20  29
ENDBRANCH  10  12
ENDBRANCH   1  10
BRANCH   9  31
HETATM   31  O3  UNL     1      25.926   2.347  52.048  1.00  0.00    -0.358 OA
HETATM   32  H20 UNL     1      26.029   3.242  52.522  1.00  0.00     0.217 HD
ENDBRANCH   9  31
TORSDOF 4
ENDMDL
