MODEL 1
REMARK VINA RESULT:      -7.8      0.000      0.000
REMARK  4 active torsions:
REMARK  status: ('A' for Active; 'I' for Inactive)
REMARK    1  A    between atoms: O1_2  and  C2_3 
REMARK    2  A    between atoms: C6_9  and  N3_10 
REMARK    3  A    between atoms: N3_10  and  C7_11 
REMARK    4  A    between atoms: C15_19  and  O2_20 
ROOT
HETATM    1  C2  UNL     1      20.765   0.624  52.787  1.00  0.00     0.104 A 
HETATM    2  C3  UNL     1      21.032  -0.154  53.892  1.00  0.00     0.072 A 
HETATM    3  C4  UNL     1      22.334  -0.460  54.218  1.00  0.00     0.075 A 
HETATM    4  N1  UNL     1      22.519  -1.233  55.322  1.00  0.00    -0.241 NA
HETATM    5  C5  UNL     1      23.750  -1.563  55.690  1.00  0.00     0.236 A 
HETATM    6  N2  UNL     1      24.761  -1.125  54.963  1.00  0.00    -0.224 NA
HETATM    7  C6  UNL     1      24.723  -0.365  53.865  1.00  0.00     0.142 A 
HETATM    8  C13 UNL     1      23.435  -0.036  53.504  1.00  0.00     0.042 A 
HETATM    9  C14 UNL     1      23.105   0.733  52.417  1.00  0.00     0.058 A 
HETATM   10  C15 UNL     1      21.828   1.078  52.032  1.00  0.00     0.118 A 
ENDROOT
BRANCH   7  11
HETATM   11  N3  UNL     1      25.794   0.095  53.099  1.00  0.00    -0.340 N 
HETATM   12  H6  UNL     1      25.658   0.709  52.275  1.00  0.00     0.167 HD
BRANCH  11  13
HETATM   13  C7  UNL     1      27.173  -0.163  53.279  1.00  0.00     0.033 A 
HETATM   14  C8  UNL     1      28.049   0.800  53.719  1.00  0.00     0.029 A 
HETATM   15  C9  UNL     1      29.396   0.582  53.905  1.00  0.00     0.002 A 
HETATM   16  C10 UNL     1      29.953  -0.650  53.652  1.00  0.00     0.000 A 
HETATM   17  C11 UNL     1      29.117  -1.648  53.209  1.00  0.00     0.002 A 
HETATM   18  C12 UNL     1      27.782  -1.376  53.040  1.00  0.00     0.029 A 
ENDBRANCH  11  13
ENDBRANCH   7  11
BRANCH  10  19
HETATM   19  O2  UNL     1      21.572   1.866  50.911  1.00  0.00    -0.268 OA
HETATM   20 BR1  UNL     1      21.330   0.986  49.270  1.00  0.00     0.106 Br
ENDBRANCH  10  19
BRANCH   1  21
HETATM   21  O1  UNL     1      19.454   0.916  52.482  1.00  0.00    -0.353 OA
HETATM   22  C1  UNL     1      18.663  -0.079  51.867  1.00  0.00     0.210 C 
ENDBRANCH   1  21
TORSDOF 4
ENDMDL
MODEL 2
REMARK VINA RESULT:      -7.5      2.588      3.834
REMARK  4 active torsions:
REMARK  status: ('A' for Active; 'I' for Inactive)
REMARK    1  A    between atoms: O1_2  and  C2_3 
REMARK    2  A    between atoms: C6_9  and  N3_10 
REMARK    3  A    between atoms: N3_10  and  C7_11 
REMARK    4  A    between atoms: C15_19  and  O2_20 
ROOT
HETATM    1  C2  UNL     1      22.116   2.123  51.582  1.00  0.00     0.104 A 
HETATM    2  C3  UNL     1      23.000   2.735  50.719  1.00  0.00     0.072 A 
HETATM    3  C4  UNL     1      24.356   2.625  50.934  1.00  0.00     0.075 A 
HETATM    4  N1  UNL     1      25.165   3.256  50.042  1.00  0.00    -0.241 NA
HETATM    5  C5  UNL     1      26.482   3.188  50.192  1.00  0.00     0.236 A 
HETATM    6  N2  UNL     1      26.962   2.503  51.213  1.00  0.00    -0.224 NA
HETATM    7  C6  UNL     1      26.287   1.841  52.157  1.00  0.00     0.142 A 
HETATM    8  C13 UNL     1      24.924   1.926  51.979  1.00  0.00     0.042 A 
HETATM    9  C14 UNL     1      23.994   1.341  52.800  1.00  0.00     0.058 A 
HETATM   10  C15 UNL     1      22.627   1.410  52.646  1.00  0.00     0.118 A 
ENDROOT
BRANCH   7  11
HETATM   11  N3  UNL     1      26.798   1.119  53.235  1.00  0.00    -0.340 N 
HETATM   12  H6  UNL     1      26.652   1.417  54.217  1.00  0.00     0.167 HD
BRANCH  11  13
HETATM   13  C7  UNL     1      27.559  -0.073  53.207  1.00  0.00     0.033 A 
HETATM   14  C8  UNL     1      27.017  -1.282  52.842  1.00  0.00     0.029 A 
HETATM   15  C9  UNL     1      27.729  -2.460  52.804  1.00  0.00     0.002 A 
HETATM   16  C10 UNL     1      29.063  -2.491  53.140  1.00  0.00     0.000 A 
HETATM   17  C11 UNL     1      29.652  -1.305  53.513  1.00  0.00     0.002 A 
HETATM   18  C12 UNL     1      28.895  -0.160  53.534  1.00  0.00     0.029 A 
ENDBRANCH  11  13
ENDBRANCH   7  11
BRANCH  10  19
HETATM   19  O2  UNL     1      21.743   0.786  53.526  1.00  0.00    -0.268 OA
HETATM   20 BR1  UNL     1      22.344  -0.760  54.407  1.00  0.00     0.106 Br
ENDBRANCH  10  19
BRANCH   1  21
HETATM   21  O1  UNL     1      20.765   2.248  51.346  1.00  0.00    -0.353 OA
HETATM   22  C1  UNL     1      20.157   3.509  51.539  1.00  0.00     0.210 C 
ENDBRANCH   1  21
TORSDOF 4
ENDMDL
MODEL 3
REMARK VINA RESULT:      -7.4      3.222      6.258
REMARK  4 active torsions:
REMARK  status: ('A' for Active; 'I' for Inactive)
REMARK    1  A    between atoms: O1_2  and  C2_3 
REMARK    2  A    between atoms: C6_9  and  N3_10 
REMARK    3  A    between atoms: N3_10  and  C7_11 
REMARK    4  A    between atoms: C15_19  and  O2_20 
ROOT
HETATM    1  C2  UNL     1      27.020   0.559  53.154  1.00  0.00     0.104 A 
HETATM    2  C3  UNL     1      26.189  -0.269  53.878  1.00  0.00     0.072 A 
HETATM    3  C4  UNL     1      24.824  -0.114  53.794  1.00  0.00     0.075 A 
HETATM    4  N1  UNL     1      24.069  -0.967  54.538  1.00  0.00    -0.241 NA
HETATM    5  C5  UNL     1      22.746  -0.871  54.500  1.00  0.00     0.236 A 
HETATM    6  N2  UNL     1      22.206   0.060  53.736  1.00  0.00    -0.224 NA
HETATM    7  C6  UNL     1      22.823   0.956  52.961  1.00  0.00     0.142 A 
HETATM    8  C13 UNL     1      24.195   0.835  53.016  1.00  0.00     0.042 A 
HETATM    9  C14 UNL     1      25.074   1.627  52.321  1.00  0.00     0.058 A 
HETATM   10  C15 UNL     1      26.447   1.529  52.358  1.00  0.00     0.118 A 
ENDROOT
BRANCH   7  11
HETATM   11  N3  UNL     1      22.249   1.938  52.155  1.00  0.00    -0.340 N 
HETATM   12  H6  UNL     1      21.789   2.778  52.552  1.00  0.00     0.167 HD
BRANCH  11  13
HETATM   13  C7  UNL     1      22.185   1.983  50.743  1.00  0.00     0.033 A 
HETATM   14  C8  UNL     1      21.577   0.997  50.003  1.00  0.00     0.029 A 
HETATM   15  C9  UNL     1      21.497   1.010  48.628  1.00  0.00     0.002 A 
HETATM   16  C10 UNL     1      22.039   2.043  47.899  1.00  0.00     0.000 A 
HETATM   17  C11 UNL     1      22.660   3.055  48.594  1.00  0.00     0.002 A 
HETATM   18  C12 UNL     1      22.711   2.992  49.964  1.00  0.00     0.029 A 
ENDBRANCH  11  13
ENDBRANCH   7  11
BRANCH  10  19
HETATM   19  O2  UNL     1      27.276   2.373  51.620  1.00  0.00    -0.268 OA
HETATM   20 BR1  UNL     1      26.521   3.260  50.148  1.00  0.00     0.106 Br
ENDBRANCH  10  19
BRANCH   1  21
HETATM   21  O1  UNL     1      28.383   0.384  53.255  1.00  0.00    -0.353 OA
HETATM   22  C1  UNL     1      28.929   0.018  54.505  1.00  0.00     0.210 C 
ENDBRANCH   1  21
TORSDOF 4
ENDMDL
MODEL 4
REMARK VINA RESULT:      -7.4      4.914      6.112
REMARK  4 active torsions:
REMARK  status: ('A' for Active; 'I' for Inactive)
REMARK    1  A    between atoms: O1_2  and  C2_3 
REMARK    2  A    between atoms: C6_9  and  N3_10 
REMARK    3  A    between atoms: N3_10  and  C7_11 
REMARK    4  A    between atoms: C15_19  and  O2_20 
ROOT
HETATM    1  C2  UNL     1      25.239   0.169  53.832  1.00  0.00     0.104 A 
HETATM    2  C3  UNL     1      24.135   0.035  53.018  1.00  0.00     0.072 A 
HETATM    3  C4  UNL     1      23.759   1.075  52.197  1.00  0.00     0.075 A 
HETATM    4  N1  UNL     1      22.659   0.869  51.423  1.00  0.00    -0.241 NA
HETATM    5  C5  UNL     1      22.243   1.831  50.609  1.00  0.00     0.236 A 
HETATM    6  N2  UNL     1      22.919   2.965  50.582  1.00  0.00    -0.224 NA
HETATM    7  C6  UNL     1      24.006   3.298  51.283  1.00  0.00     0.142 A 
HETATM    8  C13 UNL     1      24.418   2.283  52.119  1.00  0.00     0.042 A 
HETATM    9  C14 UNL     1      25.506   2.355  52.952  1.00  0.00     0.058 A 
HETATM   10  C15 UNL     1      25.940   1.358  53.797  1.00  0.00     0.118 A 
ENDROOT
BRANCH   7  11
HETATM   11  N3  UNL     1      24.717   4.498  51.252  1.00  0.00    -0.340 N 
HETATM   12  H6  UNL     1      24.641   5.203  52.007  1.00  0.00     0.167 HD
BRANCH  11  13
HETATM   13  C7  UNL     1      25.615   4.956  50.260  1.00  0.00     0.033 A 
HETATM   14  C8  UNL     1      25.565   6.235  49.758  1.00  0.00     0.029 A 
HETATM   15  C9  UNL     1      26.423   6.712  48.793  1.00  0.00     0.002 A 
HETATM   16  C10 UNL     1      27.407   5.911  48.264  1.00  0.00     0.000 A 
HETATM   17  C11 UNL     1      27.499   4.621  48.733  1.00  0.00     0.002 A 
HETATM   18  C12 UNL     1      26.617   4.196  49.696  1.00  0.00     0.029 A 
ENDBRANCH  11  13
ENDBRANCH   7  11
BRANCH  10  19
HETATM   19  O2  UNL     1      27.058   1.506  54.616  1.00  0.00    -0.268 OA
HETATM   20 BR1  UNL     1      28.707   0.907  53.949  1.00  0.00     0.106 Br
ENDBRANCH  10  19
BRANCH   1  21
HETATM   21  O1  UNL     1      25.597  -0.884  54.644  1.00  0.00    -0.353 OA
HETATM   22  C1  UNL     1      24.712  -1.279  55.672  1.00  0.00     0.210 C 
ENDBRANCH   1  21
TORSDOF 4
ENDMDL
MODEL 5
REMARK VINA RESULT:      -7.3      3.336      6.966
REMARK  4 active torsions:
REMARK  status: ('A' for Active; 'I' for Inactive)
REMARK    1  A    between atoms: O1_2  and  C2_3 
REMARK    2  A    between atoms: C6_9  and  N3_10 
REMARK    3  A    between atoms: N3_10  and  C7_11 
REMARK    4  A    between atoms: C15_19  and  O2_20 
ROOT
HETATM    1  C2  UNL     1      27.004  -0.260  53.469  1.00  0.00     0.104 A 
HETATM    2  C3  UNL     1      27.375   0.648  52.501  1.00  0.00     0.072 A 
HETATM    3  C4  UNL     1      26.465   1.577  52.047  1.00  0.00     0.075 A 
HETATM    4  N1  UNL     1      26.904   2.439  51.090  1.00  0.00    -0.241 NA
HETATM    5  C5  UNL     1      26.076   3.359  50.611  1.00  0.00     0.236 A 
HETATM    6  N2  UNL     1      24.845   3.403  51.085  1.00  0.00    -0.224 NA
HETATM    7  C6  UNL     1      24.287   2.624  52.016  1.00  0.00     0.142 A 
HETATM    8  C13 UNL     1      25.166   1.678  52.498  1.00  0.00     0.042 A 
HETATM    9  C14 UNL     1      24.858   0.749  53.459  1.00  0.00     0.058 A 
HETATM   10  C15 UNL     1      25.715  -0.207  53.959  1.00  0.00     0.118 A 
ENDROOT
BRANCH   7  11
HETATM   11  N3  UNL     1      22.985   2.673  52.514  1.00  0.00    -0.340 N 
HETATM   12  H6  UNL     1      22.698   3.356  53.239  1.00  0.00     0.167 HD
BRANCH  11  13
HETATM   13  C7  UNL     1      21.882   1.864  52.157  1.00  0.00     0.033 A 
HETATM   14  C8  UNL     1      21.521   1.650  50.848  1.00  0.00     0.029 A 
HETATM   15  C9  UNL     1      20.453   0.868  50.467  1.00  0.00     0.002 A 
HETATM   16  C10 UNL     1      19.666   0.241  51.404  1.00  0.00     0.000 A 
HETATM   17  C11 UNL     1      19.986   0.425  52.729  1.00  0.00     0.002 A 
HETATM   18  C12 UNL     1      21.061   1.214  53.054  1.00  0.00     0.029 A 
ENDBRANCH  11  13
ENDBRANCH   7  11
BRANCH  10  19
HETATM   19  O2  UNL     1      25.327  -1.119  54.938  1.00  0.00    -0.268 OA
HETATM   20 BR1  UNL     1      23.494  -1.255  55.319  1.00  0.00     0.106 Br
ENDBRANCH  10  19
BRANCH   1  21
HETATM   21  O1  UNL     1      27.932  -1.179  53.907  1.00  0.00    -0.353 OA
HETATM   22  C1  UNL     1      29.304  -0.868  53.786  1.00  0.00     0.210 C 
ENDBRANCH   1  21
TORSDOF 4
ENDMDL
MODEL 6
REMARK VINA RESULT:      -7.1      2.821      6.415
REMARK  4 active torsions:
REMARK  status: ('A' for Active; 'I' for Inactive)
REMARK    1  A    between atoms: O1_2  and  C2_3 
REMARK    2  A    between atoms: C6_9  and  N3_10 
REMARK    3  A    between atoms: N3_10  and  C7_11 
REMARK    4  A    between atoms: C15_19  and  O2_20 
ROOT
HETATM    1  C2  UNL     1      27.435   0.647  53.462  1.00  0.00     0.104 A 
HETATM    2  C3  UNL     1      26.853  -0.067  54.487  1.00  0.00     0.072 A 
HETATM    3  C4  UNL     1      25.510  -0.366  54.438  1.00  0.00     0.075 A 
HETATM    4  N1  UNL     1      25.006  -1.074  55.485  1.00  0.00    -0.241 NA
HETATM    5  C5  UNL     1      23.718  -1.395  55.498  1.00  0.00     0.236 A 
HETATM    6  N2  UNL     1      22.966  -1.011  54.484  1.00  0.00    -0.224 NA
HETATM    7  C6  UNL     1      23.327  -0.318  53.400  1.00  0.00     0.142 A 
HETATM    8  C13 UNL     1      24.667   0.003  53.410  1.00  0.00     0.042 A 
HETATM    9  C14 UNL     1      25.305   0.710  52.422  1.00  0.00     0.058 A 
HETATM   10  C15 UNL     1      26.642   1.045  52.406  1.00  0.00     0.118 A 
ENDROOT
BRANCH   7  11
HETATM   11  N3  UNL     1      22.529   0.087  52.330  1.00  0.00    -0.340 N 
HETATM   12  H6  UNL     1      22.434  -0.481  51.468  1.00  0.00     0.167 HD
BRANCH  11  13
HETATM   13  C7  UNL     1      21.750   1.262  52.216  1.00  0.00     0.033 A 
HETATM   14  C8  UNL     1      20.377   1.241  52.279  1.00  0.00     0.029 A 
HETATM   15  C9  UNL     1      19.589   2.366  52.171  1.00  0.00     0.002 A 
HETATM   16  C10 UNL     1      20.152   3.608  51.990  1.00  0.00     0.000 A 
HETATM   17  C11 UNL     1      21.523   3.681  51.921  1.00  0.00     0.002 A 
HETATM   18  C12 UNL     1      22.261   2.529  52.034  1.00  0.00     0.029 A 
ENDBRANCH  11  13
ENDBRANCH   7  11
BRANCH  10  19
HETATM   19  O2  UNL     1      27.218   1.768  51.364  1.00  0.00    -0.268 OA
HETATM   20 BR1  UNL     1      26.165   3.083  50.535  1.00  0.00     0.106 Br
ENDBRANCH  10  19
BRANCH   1  21
HETATM   21  O1  UNL     1      28.780   0.934  53.535  1.00  0.00    -0.353 OA
HETATM   22  C1  UNL     1      29.693  -0.131  53.708  1.00  0.00     0.210 C 
ENDBRANCH   1  21
TORSDOF 4
ENDMDL
MODEL 7
REMARK VINA RESULT:      -7.1      1.692      2.148
REMARK  4 active torsions:
REMARK  status: ('A' for Active; 'I' for Inactive)
REMARK    1  A    between atoms: O1_2  and  C2_3 
REMARK    2  A    between atoms: C6_9  and  N3_10 
REMARK    3  A    between atoms: N3_10  and  C7_11 
REMARK    4  A    between atoms: C15_19  and  O2_20 
ROOT
HETATM    1  C2  UNL     1      21.525   2.514  51.679  1.00  0.00     0.104 A 
HETATM    2  C3  UNL     1      21.396   1.551  52.656  1.00  0.00     0.072 A 
HETATM    3  C4  UNL     1      22.496   0.822  53.050  1.00  0.00     0.075 A 
HETATM    4  N1  UNL     1      22.291  -0.110  54.019  1.00  0.00    -0.241 NA
HETATM    5  C5  UNL     1      23.311  -0.846  54.443  1.00  0.00     0.236 A 
HETATM    6  N2  UNL     1      24.498  -0.645  53.903  1.00  0.00    -0.224 NA
HETATM    7  C6  UNL     1      24.837   0.230  52.951  1.00  0.00     0.142 A 
HETATM    8  C13 UNL     1      23.762   0.981  52.528  1.00  0.00     0.042 A 
HETATM    9  C14 UNL     1      23.826   1.953  51.561  1.00  0.00     0.058 A 
HETATM   10  C15 UNL     1      22.769   2.718  51.119  1.00  0.00     0.118 A 
ENDROOT
BRANCH   7  11
HETATM   11  N3  UNL     1      26.093   0.440  52.382  1.00  0.00    -0.340 N 
HETATM   12  H6  UNL     1      26.220   1.005  51.523  1.00  0.00     0.167 HD
BRANCH  11  13
HETATM   13  C7  UNL     1      27.346  -0.040  52.829  1.00  0.00     0.033 A 
HETATM   14  C8  UNL     1      27.684  -1.371  52.778  1.00  0.00     0.029 A 
HETATM   15  C9  UNL     1      28.894  -1.870  53.204  1.00  0.00     0.002 A 
HETATM   16  C10 UNL     1      29.860  -1.037  53.719  1.00  0.00     0.000 A 
HETATM   17  C11 UNL     1      29.570   0.305  53.791  1.00  0.00     0.002 A 
HETATM   18  C12 UNL     1      28.347   0.749  53.352  1.00  0.00     0.029 A 
ENDBRANCH  11  13
ENDBRANCH   7  11
BRANCH  10  19
HETATM   19  O2  UNL     1      22.912   3.689  50.129  1.00  0.00    -0.268 OA
HETATM   20 BR1  UNL     1      24.635   3.976  49.440  1.00  0.00     0.106 Br
ENDBRANCH  10  19
BRANCH   1  21
HETATM   21  O1  UNL     1      20.410   3.230  51.302  1.00  0.00    -0.353 OA
HETATM   22  C1  UNL     1      19.527   2.663  50.357  1.00  0.00     0.210 C 
ENDBRANCH   1  21
TORSDOF 4
ENDMDL
MODEL 8
REMARK VINA RESULT:      -6.9      4.234      6.964
REMARK  4 active torsions:
REMARK  status: ('A' for Active; 'I' for Inactive)
REMARK    1  A    between atoms: O1_2  and  C2_3 
REMARK    2  A    between atoms: C6_9  and  N3_10 
REMARK    3  A    between atoms: N3_10  and  C7_11 
REMARK    4  A    between atoms: C15_19  and  O2_20 
ROOT
HETATM    1  C2  UNL     1      26.294   3.576  49.797  1.00  0.00     0.104 A 
HETATM    2  C3  UNL     1      25.068   3.852  49.230  1.00  0.00     0.072 A 
HETATM    3  C4  UNL     1      23.912   3.503  49.892  1.00  0.00     0.075 A 
HETATM    4  N1  UNL     1      22.741   3.808  49.271  1.00  0.00    -0.241 NA
HETATM    5  C5  UNL     1      21.591   3.498  49.857  1.00  0.00     0.236 A 
HETATM    6  N2  UNL     1      21.627   2.900  51.032  1.00  0.00    -0.224 NA
HETATM    7  C6  UNL     1      22.697   2.545  51.749  1.00  0.00     0.142 A 
HETATM    8  C13 UNL     1      23.878   2.877  51.121  1.00  0.00     0.042 A 
HETATM    9  C14 UNL     1      25.127   2.629  51.631  1.00  0.00     0.058 A 
HETATM   10  C15 UNL     1      26.322   2.950  51.026  1.00  0.00     0.118 A 
ENDROOT
BRANCH   7  11
HETATM   11  N3  UNL     1      22.731   1.912  52.991  1.00  0.00    -0.340 N 
HETATM   12  H6  UNL     1      23.293   2.279  53.782  1.00  0.00     0.167 HD
BRANCH  11  13
HETATM   13  C7  UNL     1      22.058   0.734  53.390  1.00  0.00     0.033 A 
HETATM   14  C8  UNL     1      22.722  -0.348  53.920  1.00  0.00     0.029 A 
HETATM   15  C9  UNL     1      22.098  -1.509  54.318  1.00  0.00     0.002 A 
HETATM   16  C10 UNL     1      20.735  -1.653  54.204  1.00  0.00     0.000 A 
HETATM   17  C11 UNL     1      20.025  -0.598  53.680  1.00  0.00     0.002 A 
HETATM   18  C12 UNL     1      20.698   0.536  53.298  1.00  0.00     0.029 A 
ENDBRANCH  11  13
ENDBRANCH   7  11
BRANCH  10  19
HETATM   19  O2  UNL     1      27.555   2.664  51.609  1.00  0.00    -0.268 OA
HETATM   20 BR1  UNL     1      27.553   2.041  53.381  1.00  0.00     0.106 Br
ENDBRANCH  10  19
BRANCH   1  21
HETATM   21  O1  UNL     1      27.435   3.935  49.115  1.00  0.00    -0.353 OA
HETATM   22  C1  UNL     1      27.529   5.243  48.591  1.00  0.00     0.210 C 
ENDBRANCH   1  21
TORSDOF 4
ENDMDL
MODEL 9
REMARK VINA RESULT:      -6.7      3.887      5.236
REMARK  4 active torsions:
REMARK  status: ('A' for Active; 'I' for Inactive)
REMARK    1  A    between atoms: O1_2  and  C2_3 
REMARK    2  A    between atoms: C6_9  and  N3_10 
REMARK    3  A    between atoms: N3_10  and  C7_11 
REMARK    4  A    between atoms: C15_19  and  O2_20 
ROOT
HETATM    1  C2  UNL     1      22.733   5.195  51.023  1.00  0.00     0.104 A 
HETATM    2  C3  UNL     1      23.761   5.616  50.207  1.00  0.00     0.072 A 
HETATM    3  C4  UNL     1      24.889   4.840  50.069  1.00  0.00     0.075 A 
HETATM    4  N1  UNL     1      25.861   5.321  49.247  1.00  0.00    -0.241 NA
HETATM    5  C5  UNL     1      26.974   4.621  49.072  1.00  0.00     0.236 A 
HETATM    6  N2  UNL     1      27.099   3.471  49.708  1.00  0.00    -0.224 NA
HETATM    7  C6  UNL     1      26.231   2.885  50.538  1.00  0.00     0.142 A 
HETATM    8  C13 UNL     1      25.085   3.631  50.704  1.00  0.00     0.042 A 
HETATM    9  C14 UNL     1      24.028   3.267  51.500  1.00  0.00     0.058 A 
HETATM   10  C15 UNL     1      22.872   3.993  51.684  1.00  0.00     0.118 A 
ENDROOT
BRANCH   7  11
HETATM   11  N3  UNL     1      26.367   1.671  51.209  1.00  0.00    -0.340 N 
HETATM   12  H6  UNL     1      25.819   0.831  50.945  1.00  0.00     0.167 HD
BRANCH  11  13
HETATM   13  C7  UNL     1      27.214   1.364  52.300  1.00  0.00     0.033 A 
HETATM   14  C8  UNL     1      27.995   2.315  52.912  1.00  0.00     0.029 A 
HETATM   15  C9  UNL     1      28.830   2.050  53.975  1.00  0.00     0.002 A 
HETATM   16  C10 UNL     1      28.929   0.782  54.497  1.00  0.00     0.000 A 
HETATM   17  C11 UNL     1      28.166  -0.206  53.919  1.00  0.00     0.002 A 
HETATM   18  C12 UNL     1      27.351   0.113  52.861  1.00  0.00     0.029 A 
ENDBRANCH  11  13
ENDBRANCH   7  11
BRANCH  10  19
HETATM   19  O2  UNL     1      21.840   3.555  52.513  1.00  0.00    -0.268 OA
HETATM   20 BR1  UNL     1      21.349   1.746  52.406  1.00  0.00     0.106 Br
ENDBRANCH  10  19
BRANCH   1  21
HETATM   21  O1  UNL     1      21.614   5.989  51.144  1.00  0.00    -0.353 OA
HETATM   22  C1  UNL     1      21.678   7.325  50.689  1.00  0.00     0.210 C 
ENDBRANCH   1  21
TORSDOF 4
ENDMDL
