MODEL 1
REMARK VINA RESULT:      -7.2      0.000      0.000
REMARK  2 active torsions:
REMARK  status: ('A' for Active; 'I' for Inactive)
REMARK       I    between atoms: N1_2  and  C2_3 
REMARK    1  A    between atoms: C2_3  and  C3_5 
REMARK    2  A    between atoms: C15_19  and  O3_20 
ROOT
HETATM    1  C3  UNL     1      25.340   2.709  51.882  1.00  0.00     0.062 C 
HETATM    2  C4  UNL     1      24.204   3.256  52.108  1.00  0.00     0.022 C 
HETATM    3  C5  UNL     1      22.952   4.009  52.075  1.00  0.00     0.298 C 
HETATM    4  N2  UNL     1      21.820   3.105  52.275  1.00  0.00     0.087 N 
HETATM    5  C6  UNL     1      21.619   2.171  51.213  1.00  0.00     0.273 C 
HETATM    6  C7  UNL     1      20.558   1.127  51.460  1.00  0.00     0.056 C 
HETATM    7  C8  UNL     1      20.845   0.103  52.483  1.00  0.00    -0.028 C 
HETATM    8  C9  UNL     1      21.525  -0.613  53.435  1.00  0.00    -0.025 C 
HETATM    9  C10 UNL     1      22.949  -0.328  53.885  1.00  0.00     0.047 C 
HETATM   10  C11 UNL     1      23.265  -1.306  54.874  1.00  0.00     0.004 C 
HETATM   11  C12 UNL     1      24.578  -1.379  55.557  1.00  0.00     0.169 C 
HETATM   12  O2  UNL     1      25.490  -0.527  55.196  1.00  0.00    -0.387 OA
HETATM   13  C13 UNL     1      26.247   0.332  54.885  1.00  0.00     0.197 C 
HETATM   14  C14 UNL     1      26.002   1.253  53.617  1.00  0.00     0.036 C 
HETATM   15  C15 UNL     1      26.134   1.808  52.577  1.00  0.00     0.079 C 
HETATM   16  H8  UNL     1      20.994   3.590  52.636  1.00  0.00     0.316 HD
ENDROOT
BRANCH   1  17
HETATM   17  C2  UNL     1      25.642   3.224  50.622  1.00  0.00     0.253 C 
HETATM   18  N1  UNL     1      26.855   3.906  50.429  1.00  0.00    -0.361 N 
HETATM   19  C1  UNL     1      26.980   4.358  49.052  1.00  0.00     0.149 C 
HETATM   20  H4  UNL     1      27.649   4.134  51.062  1.00  0.00     0.162 HD
HETATM   21  O1  UNL     1      25.089   3.255  49.511  1.00  0.00    -0.268 OA
ENDBRANCH   1  17
BRANCH  15  22
HETATM   22  O3  UNL     1      27.309   1.280  52.289  1.00  0.00    -0.360 OA
HETATM   23  H22 UNL     1      27.418   0.322  51.931  1.00  0.00     0.217 HD
ENDBRANCH  15  22
TORSDOF 2
ENDMDL
MODEL 2
REMARK VINA RESULT:      -7.2      2.501      5.301
REMARK  2 active torsions:
REMARK  status: ('A' for Active; 'I' for Inactive)
REMARK       I    between atoms: N1_2  and  C2_3 
REMARK    1  A    between atoms: C2_3  and  C3_5 
REMARK    2  A    between atoms: C15_19  and  O3_20 
ROOT
HETATM    1  C3  UNL     1      24.077   0.237  53.297  1.00  0.00     0.062 C 
HETATM    2  C4  UNL     1      24.424   1.468  53.258  1.00  0.00     0.022 C 
HETATM    3  C5  UNL     1      25.113   2.757  53.277  1.00  0.00     0.298 C 
HETATM    4  N2  UNL     1      24.900   3.456  52.011  1.00  0.00     0.087 N 
HETATM    5  C6  UNL     1      25.507   2.826  50.881  1.00  0.00     0.273 C 
HETATM    6  C7  UNL     1      25.176   3.437  49.542  1.00  0.00     0.056 C 
HETATM    7  C8  UNL     1      23.792   3.280  49.052  1.00  0.00    -0.028 C 
HETATM    8  C9  UNL     1      22.482   2.878  48.998  1.00  0.00    -0.025 C 
HETATM    9  C10 UNL     1      21.798   2.000  50.034  1.00  0.00     0.047 C 
HETATM   10  C11 UNL     1      20.455   1.821  49.589  1.00  0.00     0.004 C 
HETATM   11  C12 UNL     1      19.455   1.009  50.322  1.00  0.00     0.169 C 
HETATM   12  O2  UNL     1      19.851   0.403  51.401  1.00  0.00    -0.387 OA
HETATM   13  C13 UNL     1      20.250  -0.052  52.422  1.00  0.00     0.197 C 
HETATM   14  C14 UNL     1      21.793  -0.074  52.789  1.00  0.00     0.036 C 
HETATM   15  C15 UNL     1      22.884  -0.438  53.082  1.00  0.00     0.079 C 
HETATM   16  H8  UNL     1      25.017   4.470  52.101  1.00  0.00     0.316 HD
ENDROOT
BRANCH   1  17
HETATM   17  C2  UNL     1      25.293  -0.379  53.589  1.00  0.00     0.253 C 
HETATM   18  N1  UNL     1      26.256  -0.518  52.575  1.00  0.00    -0.361 N 
HETATM   19  C1  UNL     1      27.448  -1.180  53.082  1.00  0.00     0.149 C 
HETATM   20  H4  UNL     1      26.274  -0.243  51.572  1.00  0.00     0.162 HD
HETATM   21  O1  UNL     1      25.820  -0.892  54.589  1.00  0.00    -0.268 OA
ENDBRANCH   1  17
BRANCH  15  22
HETATM   22  O3  UNL     1      22.586  -1.723  53.142  1.00  0.00    -0.360 OA
HETATM   23  H22 UNL     1      22.139  -2.154  53.962  1.00  0.00     0.217 HD
ENDBRANCH  15  22
TORSDOF 2
ENDMDL
MODEL 3
REMARK VINA RESULT:      -7.0      2.366      4.152
REMARK  2 active torsions:
REMARK  status: ('A' for Active; 'I' for Inactive)
REMARK       I    between atoms: N1_2  and  C2_3 
REMARK    1  A    between atoms: C2_3  and  C3_5 
REMARK    2  A    between atoms: C15_19  and  O3_20 
ROOT
HETATM    1  C3  UNL     1      24.265   1.206  52.826  1.00  0.00     0.062 C 
HETATM    2  C4  UNL     1      24.051   2.332  52.254  1.00  0.00     0.022 C 
HETATM    3  C5  UNL     1      24.121   3.601  51.534  1.00  0.00     0.298 C 
HETATM    4  N2  UNL     1      23.162   3.602  50.430  1.00  0.00     0.087 N 
HETATM    5  C6  UNL     1      23.459   2.667  49.391  1.00  0.00     0.273 C 
HETATM    6  C7  UNL     1      22.407   2.536  48.317  1.00  0.00     0.056 C 
HETATM    7  C8  UNL     1      21.129   1.905  48.699  1.00  0.00    -0.028 C 
HETATM    8  C9  UNL     1      20.182   1.270  49.461  1.00  0.00    -0.025 C 
HETATM    9  C10 UNL     1      20.377   0.832  50.904  1.00  0.00     0.047 C 
HETATM   10  C11 UNL     1      19.158   0.210  51.306  1.00  0.00     0.004 C 
HETATM   11  C12 UNL     1      18.945  -0.368  52.654  1.00  0.00     0.169 C 
HETATM   12  O2  UNL     1      19.944  -0.336  53.485  1.00  0.00    -0.387 OA
HETATM   13  C13 UNL     1      20.863  -0.196  54.223  1.00  0.00     0.197 C 
HETATM   14  C14 UNL     1      22.295   0.255  53.711  1.00  0.00     0.036 C 
HETATM   15  C15 UNL     1      23.458   0.285  53.478  1.00  0.00     0.079 C 
HETATM   16  H8  UNL     1      22.895   4.550  50.147  1.00  0.00     0.316 HD
ENDROOT
BRANCH   1  17
HETATM   17  C2  UNL     1      25.630   1.042  52.599  1.00  0.00     0.253 C 
HETATM   18  N1  UNL     1      26.479   0.750  53.680  1.00  0.00    -0.361 N 
HETATM   19  C1  UNL     1      27.857   0.615  53.232  1.00  0.00     0.149 C 
HETATM   20  H4  UNL     1      26.310   0.616  54.697  1.00  0.00     0.162 HD
HETATM   21  O1  UNL     1      26.386   1.085  51.614  1.00  0.00    -0.268 OA
ENDBRANCH   1  17
BRANCH  15  22
HETATM   22  O3  UNL     1      23.742  -0.868  54.056  1.00  0.00    -0.360 OA
HETATM   23  H22 UNL     1      23.200  -1.244  54.844  1.00  0.00     0.217 HD
ENDBRANCH  15  22
TORSDOF 2
ENDMDL
MODEL 4
REMARK VINA RESULT:      -6.9      2.425      4.599
REMARK  2 active torsions:
REMARK  status: ('A' for Active; 'I' for Inactive)
REMARK       I    between atoms: N1_2  and  C2_3 
REMARK    1  A    between atoms: C2_3  and  C3_5 
REMARK    2  A    between atoms: C15_19  and  O3_20 
ROOT
HETATM    1  C3  UNL     1      22.291   3.146  51.807  1.00  0.00     0.062 C 
HETATM    2  C4  UNL     1      23.379   2.692  51.307  1.00  0.00     0.022 C 
HETATM    3  C5  UNL     1      24.700   2.484  50.720  1.00  0.00     0.298 C 
HETATM    4  N2  UNL     1      25.493   1.600  51.573  1.00  0.00     0.087 N 
HETATM    5  C6  UNL     1      25.831   2.157  52.845  1.00  0.00     0.273 C 
HETATM    6  C7  UNL     1      26.514   1.214  53.804  1.00  0.00     0.056 C 
HETATM    7  C8  UNL     1      25.704   0.110  54.356  1.00  0.00    -0.028 C 
HETATM    8  C9  UNL     1      24.619  -0.687  54.616  1.00  0.00    -0.025 C 
HETATM    9  C10 UNL     1      23.218  -0.453  54.075  1.00  0.00     0.047 C 
HETATM   10  C11 UNL     1      22.403  -1.503  54.594  1.00  0.00     0.004 C 
HETATM   11  C12 UNL     1      20.954  -1.626  54.307  1.00  0.00     0.169 C 
HETATM   12  O2  UNL     1      20.406  -0.701  53.579  1.00  0.00    -0.387 OA
HETATM   13  C13 UNL     1      19.986   0.125  52.837  1.00  0.00     0.197 C 
HETATM   14  C14 UNL     1      20.815   1.427  52.468  1.00  0.00     0.036 C 
HETATM   15  C15 UNL     1      21.146   2.557  52.325  1.00  0.00     0.079 C 
HETATM   16  H8  UNL     1      26.239   1.126  51.056  1.00  0.00     0.316 HD
ENDROOT
BRANCH   1  17
HETATM   17  C2  UNL     1      22.527   4.519  51.769  1.00  0.00     0.253 C 
HETATM   18  N1  UNL     1      21.634   5.354  51.077  1.00  0.00    -0.361 N 
HETATM   19  C1  UNL     1      22.056   6.743  51.160  1.00  0.00     0.149 C 
HETATM   20  H4  UNL     1      20.761   5.169  50.542  1.00  0.00     0.162 HD
HETATM   21  O1  UNL     1      23.390   5.292  52.216  1.00  0.00    -0.268 OA
ENDBRANCH   1  17
BRANCH  15  22
HETATM   22  O3  UNL     1      20.045   3.086  52.828  1.00  0.00    -0.360 OA
HETATM   23  H22 UNL     1      20.007   3.508  53.765  1.00  0.00     0.217 HD
ENDBRANCH  15  22
TORSDOF 2
ENDMDL
MODEL 5
REMARK VINA RESULT:      -6.8      1.868      2.168
REMARK  2 active torsions:
REMARK  status: ('A' for Active; 'I' for Inactive)
REMARK       I    between atoms: N1_2  and  C2_3 
REMARK    1  A    between atoms: C2_3  and  C3_5 
REMARK    2  A    between atoms: C15_19  and  O3_20 
ROOT
HETATM    1  C3  UNL     1      23.577   2.281  51.395  1.00  0.00     0.062 C 
HETATM    2  C4  UNL     1      22.468   2.671  51.903  1.00  0.00     0.022 C 
HETATM    3  C5  UNL     1      21.135   3.201  52.179  1.00  0.00     0.298 C 
HETATM    4  N2  UNL     1      20.314   2.176  52.821  1.00  0.00     0.087 N 
HETATM    5  C6  UNL     1      20.008   1.058  51.986  1.00  0.00     0.273 C 
HETATM    6  C7  UNL     1      19.294  -0.084  52.666  1.00  0.00     0.056 C 
HETATM    7  C8  UNL     1      20.062  -0.866  53.655  1.00  0.00    -0.028 C 
HETATM    8  C9  UNL     1      21.117  -1.296  54.420  1.00  0.00    -0.025 C 
HETATM    9  C10 UNL     1      22.522  -0.719  54.368  1.00  0.00     0.047 C 
HETATM   10  C11 UNL     1      23.297  -1.458  55.311  1.00  0.00     0.004 C 
HETATM   11  C12 UNL     1      24.738  -1.207  55.554  1.00  0.00     0.169 C 
HETATM   12  O2  UNL     1      25.318  -0.294  54.834  1.00  0.00    -0.387 OA
HETATM   13  C13 UNL     1      25.765   0.610  54.208  1.00  0.00     0.197 C 
HETATM   14  C14 UNL     1      24.987   1.257  52.986  1.00  0.00     0.036 C 
HETATM   15  C15 UNL     1      24.701   1.645  51.902  1.00  0.00     0.079 C 
HETATM   16  H8  UNL     1      19.545   2.578  53.367  1.00  0.00     0.316 HD
ENDROOT
BRANCH   1  17
HETATM   17  C2  UNL     1      23.396   2.619  50.055  1.00  0.00     0.253 C 
HETATM   18  N1  UNL     1      22.533   1.847  49.259  1.00  0.00    -0.361 N 
HETATM   19  C1  UNL     1      22.482   2.365  47.901  1.00  0.00     0.149 C 
HETATM   20  H4  UNL     1      21.947   1.011  49.456  1.00  0.00     0.162 HD
HETATM   21  O1  UNL     1      23.825   3.496  49.287  1.00  0.00    -0.268 OA
ENDBRANCH   1  17
BRANCH  15  22
HETATM   22  O3  UNL     1      25.826   1.268  51.322  1.00  0.00    -0.360 OA
HETATM   23  H22 UNL     1      25.873   0.494  50.647  1.00  0.00     0.217 HD
ENDBRANCH  15  22
TORSDOF 2
ENDMDL
MODEL 6
REMARK VINA RESULT:      -6.8      2.516      5.508
REMARK  2 active torsions:
REMARK  status: ('A' for Active; 'I' for Inactive)
REMARK       I    between atoms: N1_2  and  C2_3 
REMARK    1  A    between atoms: C2_3  and  C3_5 
REMARK    2  A    between atoms: C15_19  and  O3_20 
ROOT
HETATM    1  C3  UNL     1      21.284  -0.468  52.927  1.00  0.00     0.062 C 
HETATM    2  C4  UNL     1      21.408  -0.001  51.741  1.00  0.00     0.022 C 
HETATM    3  C5  UNL     1      21.228   0.531  50.392  1.00  0.00     0.298 C 
HETATM    4  N2  UNL     1      21.929   1.808  50.262  1.00  0.00     0.087 N 
HETATM    5  C6  UNL     1      21.386   2.862  51.059  1.00  0.00     0.273 C 
HETATM    6  C7  UNL     1      22.179   4.145  51.064  1.00  0.00     0.056 C 
HETATM    7  C8  UNL     1      23.488   4.127  51.746  1.00  0.00    -0.028 C 
HETATM    8  C9  UNL     1      24.554   3.668  52.477  1.00  0.00    -0.025 C 
HETATM    9  C10 UNL     1      24.657   2.279  53.088  1.00  0.00     0.047 C 
HETATM   10  C11 UNL     1      25.913   2.227  53.763  1.00  0.00     0.004 C 
HETATM   11  C12 UNL     1      26.389   1.035  54.505  1.00  0.00     0.169 C 
HETATM   12  O2  UNL     1      25.592   0.011  54.568  1.00  0.00    -0.387 OA
HETATM   13  C13 UNL     1      24.857  -0.920  54.514  1.00  0.00     0.197 C 
HETATM   14  C14 UNL     1      23.365  -0.787  53.993  1.00  0.00     0.036 C 
HETATM   15  C15 UNL     1      22.181  -0.816  53.927  1.00  0.00     0.079 C 
HETATM   16  H8  UNL     1      22.160   2.027  49.288  1.00  0.00     0.316 HD
ENDROOT
BRANCH   1  17
HETATM   17  C2  UNL     1      19.897  -0.523  53.053  1.00  0.00     0.253 C 
HETATM   18  N1  UNL     1      19.306  -1.620  53.703  1.00  0.00    -0.361 N 
HETATM   19  C1  UNL     1      17.858  -1.484  53.731  1.00  0.00     0.149 C 
HETATM   20  H4  UNL     1      19.698  -2.473  54.151  1.00  0.00     0.162 HD
HETATM   21  O1  UNL     1      18.938   0.193  52.721  1.00  0.00    -0.268 OA
ENDBRANCH   1  17
BRANCH  15  22
HETATM   22  O3  UNL     1      21.988  -1.299  55.140  1.00  0.00    -0.360 OA
HETATM   23  H22 UNL     1      22.083  -2.299  55.363  1.00  0.00     0.217 HD
ENDBRANCH  15  22
TORSDOF 2
ENDMDL
MODEL 7
REMARK VINA RESULT:      -6.8      2.881      6.522
REMARK  2 active torsions:
REMARK  status: ('A' for Active; 'I' for Inactive)
REMARK       I    between atoms: N1_2  and  C2_3 
REMARK    1  A    between atoms: C2_3  and  C3_5 
REMARK    2  A    between atoms: C15_19  and  O3_20 
ROOT
HETATM    1  C3  UNL     1      24.786   3.093  50.764  1.00  0.00     0.062 C 
HETATM    2  C4  UNL     1      23.646   3.328  50.229  1.00  0.00     0.022 C 
HETATM    3  C5  UNL     1      22.233   3.430  49.870  1.00  0.00     0.298 C 
HETATM    4  N2  UNL     1      21.856   4.835  49.726  1.00  0.00     0.087 N 
HETATM    5  C6  UNL     1      21.896   5.584  50.943  1.00  0.00     0.273 C 
HETATM    6  C7  UNL     1      21.662   7.067  50.799  1.00  0.00     0.056 C 
HETATM    7  C8  UNL     1      22.714   7.854  50.127  1.00  0.00    -0.028 C 
HETATM    8  C9  UNL     1      23.899   8.157  49.507  1.00  0.00    -0.025 C 
HETATM    9  C10 UNL     1      25.017   7.162  49.233  1.00  0.00     0.047 C 
HETATM   10  C11 UNL     1      26.057   7.892  48.586  1.00  0.00     0.004 C 
HETATM   11  C12 UNL     1      27.339   7.279  48.162  1.00  0.00     0.169 C 
HETATM   12  O2  UNL     1      27.523   6.023  48.438  1.00  0.00    -0.387 OA
HETATM   13  C13 UNL     1      27.593   4.856  48.640  1.00  0.00     0.197 C 
HETATM   14  C14 UNL     1      26.562   4.100  49.580  1.00  0.00     0.036 C 
HETATM   15  C15 UNL     1      26.090   3.451  50.454  1.00  0.00     0.079 C 
HETATM   16  H8  UNL     1      21.034   4.958  49.127  1.00  0.00     0.316 HD
ENDROOT
BRANCH   1  17
HETATM   17  C2  UNL     1      24.412   2.355  51.885  1.00  0.00     0.253 C 
HETATM   18  N1  UNL     1      24.915   1.053  52.053  1.00  0.00    -0.361 N 
HETATM   19  C1  UNL     1      24.410   0.458  53.280  1.00  0.00     0.149 C 
HETATM   20  H4  UNL     1      25.559   0.464  51.486  1.00  0.00     0.162 HD
HETATM   21  O1  UNL     1      23.687   2.536  52.877  1.00  0.00    -0.268 OA
ENDBRANCH   1  17
BRANCH  15  22
HETATM   22  O3  UNL     1      27.235   3.172  51.050  1.00  0.00    -0.360 OA
HETATM   23  H22 UNL     1      27.310   2.999  52.061  1.00  0.00     0.217 HD
ENDBRANCH  15  22
TORSDOF 2
ENDMDL
MODEL 8
REMARK VINA RESULT:      -6.7      2.609      5.335
REMARK  2 active torsions:
REMARK  status: ('A' for Active; 'I' for Inactive)
REMARK       I    between atoms: N1_2  and  C2_3 
REMARK    1  A    between atoms: C2_3  and  C3_5 
REMARK    2  A    between atoms: C15_19  and  O3_20 
ROOT
HETATM    1  C3  UNL     1      20.572   1.210  51.991  1.00  0.00     0.062 C 
HETATM    2  C4  UNL     1      20.949   1.202  50.767  1.00  0.00     0.022 C 
HETATM    3  C5  UNL     1      21.129   1.389  49.330  1.00  0.00     0.298 C 
HETATM    4  N2  UNL     1      22.474   1.894  49.056  1.00  0.00     0.087 N 
HETATM    5  C6  UNL     1      22.719   3.212  49.549  1.00  0.00     0.273 C 
HETATM    6  C7  UNL     1      24.141   3.699  49.418  1.00  0.00     0.056 C 
HETATM    7  C8  UNL     1      25.156   3.050  50.271  1.00  0.00    -0.028 C 
HETATM    8  C9  UNL     1      25.707   2.228  51.221  1.00  0.00    -0.025 C 
HETATM    9  C10 UNL     1      24.924   1.264  52.098  1.00  0.00     0.047 C 
HETATM   10  C11 UNL     1      25.876   0.621  52.942  1.00  0.00     0.004 C 
HETATM   11  C12 UNL     1      25.508  -0.391  53.961  1.00  0.00     0.169 C 
HETATM   12  O2  UNL     1      24.246  -0.663  54.107  1.00  0.00    -0.387 OA
HETATM   13  C13 UNL     1      23.090  -0.931  54.130  1.00  0.00     0.197 C 
HETATM   14  C14 UNL     1      22.005  -0.044  53.385  1.00  0.00     0.036 C 
HETATM   15  C15 UNL     1      21.063   0.641  53.157  1.00  0.00     0.079 C 
HETATM   16  H8  UNL     1      22.781   1.684  48.102  1.00  0.00     0.316 HD
ENDROOT
BRANCH   1  17
HETATM   17  C2  UNL     1      19.458   2.046  51.926  1.00  0.00     0.253 C 
HETATM   18  N1  UNL     1      18.241   1.536  51.443  1.00  0.00    -0.361 N 
HETATM   19  C1  UNL     1      17.209   2.562  51.459  1.00  0.00     0.149 C 
HETATM   20  H4  UNL     1      17.953   0.599  51.096  1.00  0.00     0.162 HD
HETATM   21  O1  UNL     1      19.211   3.232  52.199  1.00  0.00    -0.268 OA
ENDBRANCH   1  17
BRANCH  15  22
HETATM   22  O3  UNL     1      20.622   0.684  54.401  1.00  0.00    -0.360 OA
HETATM   23  H22 UNL     1      19.891   0.054  54.756  1.00  0.00     0.217 HD
ENDBRANCH  15  22
TORSDOF 2
ENDMDL
MODEL 9
REMARK VINA RESULT:      -6.6      6.143     10.008
REMARK  2 active torsions:
REMARK  status: ('A' for Active; 'I' for Inactive)
REMARK       I    between atoms: N1_2  and  C2_3 
REMARK    1  A    between atoms: C2_3  and  C3_5 
REMARK    2  A    between atoms: C15_19  and  O3_20 
ROOT
HETATM    1  C3  UNL     1      27.201   6.736  48.270  1.00  0.00     0.062 C 
HETATM    2  C4  UNL     1      27.015   7.781  47.552  1.00  0.00     0.022 C 
HETATM    3  C5  UNL     1      26.514   8.973  46.873  1.00  0.00     0.298 C 
HETATM    4  N2  UNL     1      27.416  10.100  47.112  1.00  0.00     0.087 N 
HETATM    5  C6  UNL     1      27.458  10.542  48.470  1.00  0.00     0.273 C 
HETATM    6  C7  UNL     1      28.491  11.598  48.776  1.00  0.00     0.056 C 
HETATM    7  C8  UNL     1      29.908  11.189  48.728  1.00  0.00    -0.028 C 
HETATM    8  C9  UNL     1      31.015  10.389  48.600  1.00  0.00    -0.025 C 
HETATM    9  C10 UNL     1      30.982   8.894  48.328  1.00  0.00     0.047 C 
HETATM   10  C11 UNL     1      32.340   8.461  48.280  1.00  0.00     0.004 C 
HETATM   11  C12 UNL     1      32.738   7.052  48.047  1.00  0.00     0.169 C 
HETATM   12  O2  UNL     1      31.788   6.174  47.923  1.00  0.00    -0.387 OA
HETATM   13  C13 UNL     1      30.877   5.438  47.731  1.00  0.00     0.197 C 
HETATM   14  C14 UNL     1      29.378   5.856  48.036  1.00  0.00     0.036 C 
HETATM   15  C15 UNL     1      28.275   5.882  48.474  1.00  0.00     0.079 C 
HETATM   16  H8  UNL     1      27.341  10.819  46.387  1.00  0.00     0.316 HD
ENDROOT
BRANCH   1  17
HETATM   17  C2  UNL     1      25.975   6.638  48.927  1.00  0.00     0.253 C 
HETATM   18  N1  UNL     1      25.941   6.670  50.331  1.00  0.00    -0.361 N 
HETATM   19  C1  UNL     1      24.574   6.557  50.817  1.00  0.00     0.149 C 
HETATM   20  H4  UNL     1      26.681   6.761  51.056  1.00  0.00     0.162 HD
HETATM   21  O1  UNL     1      24.786   6.515  48.591  1.00  0.00    -0.268 OA
ENDBRANCH   1  17
BRANCH  15  22
HETATM   22  O3  UNL     1      28.404   4.810  49.232  1.00  0.00    -0.360 OA
HETATM   23  H22 UNL     1      28.076   4.773  50.206  1.00  0.00     0.217 HD
ENDBRANCH  15  22
TORSDOF 2
ENDMDL
