MODEL 1
REMARK VINA RESULT:      -8.1      0.000      0.000
REMARK  7 active torsions:
REMARK  status: ('A' for Active; 'I' for Inactive)
REMARK    1  A    between atoms: C2_2  and  C3_3 
REMARK    2  A    between atoms: C3_3  and  C4_4 
REMARK    3  A    between atoms: C4_4  and  N1_5 
REMARK       I    between atoms: N1_5  and  C5_6 
REMARK       I    between atoms: C5_6  and  N2_8 
REMARK    4  A    between atoms: N2_8  and  C6_9 
REMARK    5  A    between atoms: C10_14  and  O3_15 
REMARK    6  A    between atoms: O3_15  and  C11_16 
REMARK    7  A    between atoms: C16_23  and  O4_24 
ROOT
HETATM    1  C6  UNL     1      24.029   0.773  53.054  1.00  0.00     0.036 C 
HETATM    2  C7  UNL     1      22.962   0.215  52.517  1.00  0.00     0.031 C 
HETATM    3  C8  UNL     1      21.878   0.712  51.680  1.00  0.00     0.026 C 
HETATM    4  C9  UNL     1      21.411   1.910  51.296  1.00  0.00     0.138 C 
HETATM    5  O2  UNL     1      21.921   3.151  51.650  1.00  0.00    -0.328 OA
HETATM    6  C10 UNL     1      23.138   3.812  51.574  1.00  0.00     0.298 C 
HETATM    7  C20 UNL     1      24.207   3.297  52.449  1.00  0.00     0.036 C 
HETATM    8  C21 UNL     1      24.562   2.141  53.023  1.00  0.00     0.030 C 
ENDROOT
BRANCH   6   9
HETATM    9  O3  UNL     1      23.616   4.007  50.244  1.00  0.00    -0.298 OA
BRANCH   9  10
HETATM   10  C11 UNL     1      23.587   5.289  49.700  1.00  0.00     0.181 A 
HETATM   11  N3  UNL     1      22.480   6.074  49.660  1.00  0.00    -0.217 NA
HETATM   12  C12 UNL     1      22.523   7.307  49.118  1.00  0.00     0.236 A 
HETATM   13  N4  UNL     1      23.675   7.775  48.605  1.00  0.00    -0.241 NA
HETATM   14  C13 UNL     1      24.813   7.050  48.610  1.00  0.00     0.072 A 
HETATM   15  C14 UNL     1      25.990   7.555  48.074  1.00  0.00     0.035 A 
HETATM   16  C19 UNL     1      24.773   5.770  49.172  1.00  0.00     0.048 A 
HETATM   17  C15 UNL     1      27.123   6.740  48.118  1.00  0.00     0.039 A 
HETATM   18  C16 UNL     1      27.084   5.475  48.675  1.00  0.00     0.069 A 
HETATM   19  C18 UNL     1      25.907   4.992  49.200  1.00  0.00     0.055 A 
BRANCH  18  20
HETATM   20  O4  UNL     1      28.308   4.824  48.625  1.00  0.00    -0.356 OA
HETATM   21  C17 UNL     1      29.479   5.495  48.205  1.00  0.00     0.210 C 
ENDBRANCH  18  20
ENDBRANCH   9  10
ENDBRANCH   6   9
BRANCH   1  22
HETATM   22  N2  UNL     1      24.872  -0.093  53.835  1.00  0.00    -0.309 N 
HETATM   23  C5  UNL     1      26.089  -0.450  53.176  1.00  0.00     0.320 C 
HETATM   24  N1  UNL     1      27.063  -1.295  53.769  1.00  0.00    -0.343 N 
HETATM   25  O1  UNL     1      26.184   0.059  52.045  1.00  0.00    -0.247 OA
HETATM   26  H10 UNL     1      26.894  -1.686  54.740  1.00  0.00     0.164 HD
HETATM   27  H11 UNL     1      24.672  -0.466  54.810  1.00  0.00     0.170 HD
BRANCH  24  28
HETATM   28  C4  UNL     1      28.281  -1.638  53.084  1.00  0.00     0.124 C 
BRANCH  28  29
HETATM   29  C3  UNL     1      29.438  -1.042  53.831  1.00  0.00     0.019 C 
BRANCH  29  30
HETATM   30  C2  UNL     1      29.752   0.366  53.369  1.00  0.00    -0.003 C 
HETATM   31  C1  UNL     1      29.283   1.292  54.479  1.00  0.00     0.005 C 
ENDBRANCH  29  30
ENDBRANCH  28  29
ENDBRANCH  24  28
ENDBRANCH   1  22
TORSDOF 7
ENDMDL
MODEL 2
REMARK VINA RESULT:      -7.9      3.017      7.706
REMARK  7 active torsions:
REMARK  status: ('A' for Active; 'I' for Inactive)
REMARK    1  A    between atoms: C2_2  and  C3_3 
REMARK    2  A    between atoms: C3_3  and  C4_4 
REMARK    3  A    between atoms: C4_4  and  N1_5 
REMARK       I    between atoms: N1_5  and  C5_6 
REMARK       I    between atoms: C5_6  and  N2_8 
REMARK    4  A    between atoms: N2_8  and  C6_9 
REMARK    5  A    between atoms: C10_14  and  O3_15 
REMARK    6  A    between atoms: O3_15  and  C11_16 
REMARK    7  A    between atoms: C16_23  and  O4_24 
ROOT
HETATM    1  C6  UNL     1      24.463   4.390  50.665  1.00  0.00     0.036 C 
HETATM    2  C7  UNL     1      23.860   4.661  51.805  1.00  0.00     0.031 C 
HETATM    3  C8  UNL     1      22.593   4.251  52.399  1.00  0.00     0.026 C 
HETATM    4  C9  UNL     1      21.475   3.636  51.985  1.00  0.00     0.138 C 
HETATM    5  O2  UNL     1      21.210   3.170  50.704  1.00  0.00    -0.328 OA
HETATM    6  C10 UNL     1      21.797   2.303  49.795  1.00  0.00     0.298 C 
HETATM    7  C20 UNL     1      23.065   2.757  49.198  1.00  0.00     0.036 C 
HETATM    8  C21 UNL     1      24.094   3.554  49.516  1.00  0.00     0.030 C 
ENDROOT
BRANCH   6   9
HETATM    9  O3  UNL     1      21.901   0.956  50.252  1.00  0.00    -0.298 OA
BRANCH   9  10
HETATM   10  C11 UNL     1      20.972   0.486  51.177  1.00  0.00     0.181 A 
HETATM   11  N3  UNL     1      19.631   0.470  50.969  1.00  0.00    -0.217 NA
HETATM   12  C12 UNL     1      18.788  -0.001  51.909  1.00  0.00     0.236 A 
HETATM   13  N4  UNL     1      19.273  -0.462  53.075  1.00  0.00    -0.241 NA
HETATM   14  C13 UNL     1      20.594  -0.477  53.350  1.00  0.00     0.072 A 
HETATM   15  C14 UNL     1      21.071  -0.959  54.562  1.00  0.00     0.035 A 
HETATM   16  C19 UNL     1      21.473   0.010  52.377  1.00  0.00     0.048 A 
HETATM   17  C15 UNL     1      22.452  -0.938  54.767  1.00  0.00     0.039 A 
HETATM   18  C16 UNL     1      23.321  -0.458  53.806  1.00  0.00     0.069 A 
HETATM   19  C18 UNL     1      22.829   0.017  52.611  1.00  0.00     0.055 A 
BRANCH  18  20
HETATM   20  O4  UNL     1      24.651  -0.521  54.196  1.00  0.00    -0.356 OA
HETATM   21  C17 UNL     1      25.697  -0.369  53.259  1.00  0.00     0.210 C 
ENDBRANCH  18  20
ENDBRANCH   9  10
ENDBRANCH   6   9
BRANCH   1  22
HETATM   22  N2  UNL     1      25.741   5.016  50.460  1.00  0.00    -0.309 N 
HETATM   23  C5  UNL     1      25.648   6.367  50.003  1.00  0.00     0.320 C 
HETATM   24  N1  UNL     1      26.790   7.168  49.739  1.00  0.00    -0.343 N 
HETATM   25  O1  UNL     1      24.470   6.744  49.870  1.00  0.00    -0.247 OA
HETATM   26  H10 UNL     1      27.758   6.761  49.880  1.00  0.00     0.164 HD
HETATM   27  H11 UNL     1      26.697   4.577  50.613  1.00  0.00     0.170 HD
BRANCH  24  28
HETATM   28  C4  UNL     1      26.668   8.527  49.281  1.00  0.00     0.124 C 
BRANCH  28  29
HETATM   29  C3  UNL     1      27.853   9.308  49.771  1.00  0.00     0.019 C 
BRANCH  29  30
HETATM   30  C2  UNL     1      29.138   8.881  49.094  1.00  0.00    -0.003 C 
HETATM   31  C1  UNL     1      30.097  10.053  49.224  1.00  0.00     0.005 C 
ENDBRANCH  29  30
ENDBRANCH  28  29
ENDBRANCH  24  28
ENDBRANCH   1  22
TORSDOF 7
ENDMDL
MODEL 3
REMARK VINA RESULT:      -7.9      2.989      8.144
REMARK  7 active torsions:
REMARK  status: ('A' for Active; 'I' for Inactive)
REMARK    1  A    between atoms: C2_2  and  C3_3 
REMARK    2  A    between atoms: C3_3  and  C4_4 
REMARK    3  A    between atoms: C4_4  and  N1_5 
REMARK       I    between atoms: N1_5  and  C5_6 
REMARK       I    between atoms: C5_6  and  N2_8 
REMARK    4  A    between atoms: N2_8  and  C6_9 
REMARK    5  A    between atoms: C10_14  and  O3_15 
REMARK    6  A    between atoms: O3_15  and  C11_16 
REMARK    7  A    between atoms: C16_23  and  O4_24 
ROOT
HETATM    1  C6  UNL     1      26.901   6.021  48.451  1.00  0.00     0.036 C 
HETATM    2  C7  UNL     1      25.742   6.627  48.296  1.00  0.00     0.031 C 
HETATM    3  C8  UNL     1      24.360   6.242  48.554  1.00  0.00     0.026 C 
HETATM    4  C9  UNL     1      23.699   5.111  48.840  1.00  0.00     0.138 C 
HETATM    5  O2  UNL     1      24.247   3.843  48.982  1.00  0.00    -0.328 OA
HETATM    6  C10 UNL     1      25.230   3.240  49.752  1.00  0.00     0.298 C 
HETATM    7  C20 UNL     1      26.617   3.635  49.452  1.00  0.00     0.036 C 
HETATM    8  C21 UNL     1      27.273   4.692  48.955  1.00  0.00     0.030 C 
ENDROOT
BRANCH   6   9
HETATM    9  O3  UNL     1      24.981   3.279  51.157  1.00  0.00    -0.298 OA
BRANCH   9  10
HETATM   10  C11 UNL     1      24.332   2.202  51.755  1.00  0.00     0.181 A 
HETATM   11  N3  UNL     1      23.065   1.815  51.457  1.00  0.00    -0.217 NA
HETATM   12  C12 UNL     1      22.498   0.760  52.077  1.00  0.00     0.236 A 
HETATM   13  N4  UNL     1      23.189   0.076  53.005  1.00  0.00    -0.241 NA
HETATM   14  C13 UNL     1      24.452   0.404  53.350  1.00  0.00     0.072 A 
HETATM   15  C14 UNL     1      25.144  -0.319  54.312  1.00  0.00     0.035 A 
HETATM   16  C19 UNL     1      25.044   1.497  52.711  1.00  0.00     0.048 A 
HETATM   17  C15 UNL     1      26.447   0.086  54.612  1.00  0.00     0.039 A 
HETATM   18  C16 UNL     1      27.033   1.166  53.980  1.00  0.00     0.069 A 
HETATM   19  C18 UNL     1      26.329   1.871  53.029  1.00  0.00     0.055 A 
BRANCH  18  20
HETATM   20  O4  UNL     1      28.328   1.410  54.413  1.00  0.00    -0.356 OA
HETATM   21  C17 UNL     1      29.413   0.628  53.957  1.00  0.00     0.210 C 
ENDBRANCH  18  20
ENDBRANCH   9  10
ENDBRANCH   6   9
BRANCH   1  22
HETATM   22  N2  UNL     1      28.066   6.771  48.064  1.00  0.00    -0.309 N 
HETATM   23  C5  UNL     1      28.232   7.985  48.799  1.00  0.00     0.320 C 
HETATM   24  N1  UNL     1      29.317   8.874  48.576  1.00  0.00    -0.343 N 
HETATM   25  O1  UNL     1      27.331   8.161  49.637  1.00  0.00    -0.247 OA
HETATM   26  H10 UNL     1      30.039   8.642  47.837  1.00  0.00     0.164 HD
HETATM   27  H11 UNL     1      28.774   6.507  47.316  1.00  0.00     0.170 HD
BRANCH  24  28
HETATM   28  C4  UNL     1      29.461  10.090  49.331  1.00  0.00     0.124 C 
BRANCH  28  29
HETATM   29  C3  UNL     1      30.673  10.825  48.835  1.00  0.00     0.019 C 
BRANCH  29  30
HETATM   30  C2  UNL     1      30.619  12.302  49.163  1.00  0.00    -0.003 C 
HETATM   31  C1  UNL     1      29.174  12.729  48.964  1.00  0.00     0.005 C 
ENDBRANCH  29  30
ENDBRANCH  28  29
ENDBRANCH  24  28
ENDBRANCH   1  22
TORSDOF 7
ENDMDL
MODEL 4
REMARK VINA RESULT:      -7.8      2.252      7.343
REMARK  7 active torsions:
REMARK  status: ('A' for Active; 'I' for Inactive)
REMARK    1  A    between atoms: C2_2  and  C3_3 
REMARK    2  A    between atoms: C3_3  and  C4_4 
REMARK    3  A    between atoms: C4_4  and  N1_5 
REMARK       I    between atoms: N1_5  and  C5_6 
REMARK       I    between atoms: C5_6  and  N2_8 
REMARK    4  A    between atoms: N2_8  and  C6_9 
REMARK    5  A    between atoms: C10_14  and  O3_15 
REMARK    6  A    between atoms: O3_15  and  C11_16 
REMARK    7  A    between atoms: C16_23  and  O4_24 
ROOT
HETATM    1  C6  UNL     1      25.067   7.005  50.511  1.00  0.00     0.036 C 
HETATM    2  C7  UNL     1      23.987   7.743  50.668  1.00  0.00     0.031 C 
HETATM    3  C8  UNL     1      22.573   7.438  50.846  1.00  0.00     0.026 C 
HETATM    4  C9  UNL     1      21.784   6.360  50.724  1.00  0.00     0.138 C 
HETATM    5  O2  UNL     1      22.177   5.084  50.343  1.00  0.00    -0.328 OA
HETATM    6  C10 UNL     1      23.092   4.132  50.766  1.00  0.00     0.298 C 
HETATM    7  C20 UNL     1      24.512   4.462  50.552  1.00  0.00     0.036 C 
HETATM    8  C21 UNL     1      25.283   5.553  50.451  1.00  0.00     0.030 C 
ENDROOT
BRANCH   6   9
HETATM    9  O3  UNL     1      22.872   3.656  52.093  1.00  0.00    -0.298 OA
BRANCH   9  10
HETATM   10  C11 UNL     1      22.778   2.284  52.309  1.00  0.00     0.181 A 
HETATM   11  N3  UNL     1      21.700   1.532  51.968  1.00  0.00    -0.217 NA
HETATM   12  C12 UNL     1      21.676   0.205  52.208  1.00  0.00     0.236 A 
HETATM   13  N4  UNL     1      22.730  -0.390  52.793  1.00  0.00    -0.241 NA
HETATM   14  C13 UNL     1      23.833   0.295  53.158  1.00  0.00     0.072 A 
HETATM   15  C14 UNL     1      24.908  -0.344  53.762  1.00  0.00     0.035 A 
HETATM   16  C19 UNL     1      23.863   1.671  52.912  1.00  0.00     0.048 A 
HETATM   17  C15 UNL     1      26.012   0.438  54.110  1.00  0.00     0.039 A 
HETATM   18  C16 UNL     1      26.043   1.798  53.866  1.00  0.00     0.069 A 
HETATM   19  C18 UNL     1      24.966   2.413  53.267  1.00  0.00     0.055 A 
BRANCH  18  20
HETATM   20  O4  UNL     1      27.223   2.398  54.282  1.00  0.00    -0.356 OA
HETATM   21  C17 UNL     1      28.400   2.315  53.505  1.00  0.00     0.210 C 
ENDBRANCH  18  20
ENDBRANCH   9  10
ENDBRANCH   6   9
BRANCH   1  22
HETATM   22  N2  UNL     1      26.308   7.717  50.366  1.00  0.00    -0.309 N 
HETATM   23  C5  UNL     1      26.709   7.893  49.005  1.00  0.00     0.320 C 
HETATM   24  N1  UNL     1      27.902   8.570  48.638  1.00  0.00    -0.343 N 
HETATM   25  O1  UNL     1      25.902   7.391  48.203  1.00  0.00    -0.247 OA
HETATM   26  H10 UNL     1      28.531   8.965  49.393  1.00  0.00     0.164 HD
HETATM   27  H11 UNL     1      26.916   8.103  51.148  1.00  0.00     0.170 HD
BRANCH  24  28
HETATM   28  C4  UNL     1      28.281   8.733  47.260  1.00  0.00     0.124 C 
BRANCH  28  29
HETATM   29  C3  UNL     1      29.075   7.533  46.833  1.00  0.00     0.019 C 
BRANCH  29  30
HETATM   30  C2  UNL     1      29.896   6.958  47.968  1.00  0.00    -0.003 C 
HETATM   31  C1  UNL     1      29.482   5.501  48.096  1.00  0.00     0.005 C 
ENDBRANCH  29  30
ENDBRANCH  28  29
ENDBRANCH  24  28
ENDBRANCH   1  22
TORSDOF 7
ENDMDL
MODEL 5
REMARK VINA RESULT:      -7.8      3.933      7.674
REMARK  7 active torsions:
REMARK  status: ('A' for Active; 'I' for Inactive)
REMARK    1  A    between atoms: C2_2  and  C3_3 
REMARK    2  A    between atoms: C3_3  and  C4_4 
REMARK    3  A    between atoms: C4_4  and  N1_5 
REMARK       I    between atoms: N1_5  and  C5_6 
REMARK       I    between atoms: C5_6  and  N2_8 
REMARK    4  A    between atoms: N2_8  and  C6_9 
REMARK    5  A    between atoms: C10_14  and  O3_15 
REMARK    6  A    between atoms: O3_15  and  C11_16 
REMARK    7  A    between atoms: C16_23  and  O4_24 
ROOT
HETATM    1  C6  UNL     1      24.017   2.271  52.593  1.00  0.00     0.036 C 
HETATM    2  C7  UNL     1      23.924   2.847  51.411  1.00  0.00     0.031 C 
HETATM    3  C8  UNL     1      23.049   2.655  50.261  1.00  0.00     0.026 C 
HETATM    4  C9  UNL     1      22.163   1.735  49.852  1.00  0.00     0.138 C 
HETATM    5  O2  UNL     1      21.808   0.571  50.520  1.00  0.00    -0.328 OA
HETATM    6  C10 UNL     1      21.307   0.224  51.766  1.00  0.00     0.298 C 
HETATM    7  C20 UNL     1      22.224   0.411  52.904  1.00  0.00     0.036 C 
HETATM    8  C21 UNL     1      23.264   1.187  53.236  1.00  0.00     0.030 C 
ENDROOT
BRANCH   6   9
HETATM    9  O3  UNL     1      20.019   0.769  52.052  1.00  0.00    -0.298 OA
BRANCH   9  10
HETATM   10  C11 UNL     1      18.961  -0.101  52.300  1.00  0.00     0.181 A 
HETATM   11  N3  UNL     1      18.937  -1.002  53.316  1.00  0.00    -0.217 NA
HETATM   12  C12 UNL     1      17.877  -1.815  53.498  1.00  0.00     0.236 A 
HETATM   13  N4  UNL     1      16.824  -1.740  52.665  1.00  0.00    -0.241 NA
HETATM   14  C13 UNL     1      16.779  -0.869  51.636  1.00  0.00     0.072 A 
HETATM   15  C14 UNL     1      15.679  -0.812  50.790  1.00  0.00     0.035 A 
HETATM   16  C19 UNL     1      17.876  -0.024  51.443  1.00  0.00     0.048 A 
HETATM   17  C15 UNL     1      15.713   0.117  49.748  1.00  0.00     0.039 A 
HETATM   18  C16 UNL     1      16.797   0.954  49.557  1.00  0.00     0.069 A 
HETATM   19  C18 UNL     1      17.878   0.881  50.406  1.00  0.00     0.055 A 
BRANCH  18  20
HETATM   20  O4  UNL     1      16.641   1.804  48.472  1.00  0.00    -0.356 OA
HETATM   21  C17 UNL     1      15.359   2.130  47.976  1.00  0.00     0.210 C 
ENDBRANCH  18  20
ENDBRANCH   9  10
ENDBRANCH   6   9
BRANCH   1  22
HETATM   22  N2  UNL     1      25.047   2.772  53.463  1.00  0.00    -0.309 N 
HETATM   23  C5  UNL     1      26.341   2.234  53.183  1.00  0.00     0.320 C 
HETATM   24  N1  UNL     1      27.498   2.595  53.922  1.00  0.00    -0.343 N 
HETATM   25  O1  UNL     1      26.327   1.430  52.234  1.00  0.00    -0.247 OA
HETATM   26  H10 UNL     1      27.414   3.289  54.718  1.00  0.00     0.164 HD
HETATM   27  H11 UNL     1      24.928   3.472  54.254  1.00  0.00     0.170 HD
BRANCH  24  28
HETATM   28  C4  UNL     1      28.790   2.039  53.618  1.00  0.00     0.124 C 
BRANCH  28  29
HETATM   29  C3  UNL     1      28.874   0.662  54.210  1.00  0.00     0.019 C 
BRANCH  29  30
HETATM   30  C2  UNL     1      29.946  -0.179  53.549  1.00  0.00    -0.003 C 
HETATM   31  C1  UNL     1      29.371  -1.581  53.426  1.00  0.00     0.005 C 
ENDBRANCH  29  30
ENDBRANCH  28  29
ENDBRANCH  24  28
ENDBRANCH   1  22
TORSDOF 7
ENDMDL
MODEL 6
REMARK VINA RESULT:      -7.7      3.219      7.500
REMARK  7 active torsions:
REMARK  status: ('A' for Active; 'I' for Inactive)
REMARK    1  A    between atoms: C2_2  and  C3_3 
REMARK    2  A    between atoms: C3_3  and  C4_4 
REMARK    3  A    between atoms: C4_4  and  N1_5 
REMARK       I    between atoms: N1_5  and  C5_6 
REMARK       I    between atoms: C5_6  and  N2_8 
REMARK    4  A    between atoms: N2_8  and  C6_9 
REMARK    5  A    between atoms: C10_14  and  O3_15 
REMARK    6  A    between atoms: O3_15  and  C11_16 
REMARK    7  A    between atoms: C16_23  and  O4_24 
ROOT
HETATM    1  C6  UNL     1      28.457   6.470  48.357  1.00  0.00     0.036 C 
HETATM    2  C7  UNL     1      27.883   7.526  48.897  1.00  0.00     0.031 C 
HETATM    3  C8  UNL     1      26.657   7.729  49.659  1.00  0.00     0.026 C 
HETATM    4  C9  UNL     1      25.552   7.021  49.937  1.00  0.00     0.138 C 
HETATM    5  O2  UNL     1      25.263   5.733  49.509  1.00  0.00    -0.328 OA
HETATM    6  C10 UNL     1      25.854   4.480  49.577  1.00  0.00     0.298 C 
HETATM    7  C20 UNL     1      27.080   4.302  48.779  1.00  0.00     0.036 C 
HETATM    8  C21 UNL     1      28.084   5.050  48.304  1.00  0.00     0.030 C 
ENDROOT
BRANCH   6   9
HETATM    9  O3  UNL     1      26.032   3.987  50.904  1.00  0.00    -0.298 OA
BRANCH   9  10
HETATM   10  C11 UNL     1      25.244   2.925  51.338  1.00  0.00     0.181 A 
HETATM   11  N3  UNL     1      23.916   2.807  51.083  1.00  0.00    -0.217 NA
HETATM   12  C12 UNL     1      23.213   1.749  51.535  1.00  0.00     0.236 A 
HETATM   13  N4  UNL     1      23.828   0.792  52.252  1.00  0.00    -0.241 NA
HETATM   14  C13 UNL     1      25.144   0.844  52.544  1.00  0.00     0.072 A 
HETATM   15  C14 UNL     1      25.755  -0.157  53.287  1.00  0.00     0.035 A 
HETATM   16  C19 UNL     1      25.877   1.939  52.077  1.00  0.00     0.048 A 
HETATM   17  C15 UNL     1      27.122  -0.027  53.546  1.00  0.00     0.039 A 
HETATM   18  C16 UNL     1      27.847   1.054  53.083  1.00  0.00     0.069 A 
HETATM   19  C18 UNL     1      27.222   2.038  52.349  1.00  0.00     0.055 A 
BRANCH  18  20
HETATM   20  O4  UNL     1      29.186   1.002  53.443  1.00  0.00    -0.356 OA
HETATM   21  C17 UNL     1      29.865  -0.231  53.560  1.00  0.00     0.210 C 
ENDBRANCH  18  20
ENDBRANCH   9  10
ENDBRANCH   6   9
BRANCH   1  22
HETATM   22  N2  UNL     1      29.699   6.704  47.671  1.00  0.00    -0.309 N 
HETATM   23  C5  UNL     1      30.811   6.025  48.258  1.00  0.00     0.320 C 
HETATM   24  N1  UNL     1      32.129   6.119  47.737  1.00  0.00    -0.343 N 
HETATM   25  O1  UNL     1      30.488   5.358  49.256  1.00  0.00    -0.247 OA
HETATM   26  H10 UNL     1      32.311   6.715  46.880  1.00  0.00     0.164 HD
HETATM   27  H11 UNL     1      29.846   7.308  46.809  1.00  0.00     0.170 HD
BRANCH  24  28
HETATM   28  C4  UNL     1      33.231   5.424  48.347  1.00  0.00     0.124 C 
BRANCH  28  29
HETATM   29  C3  UNL     1      33.275   4.023  47.807  1.00  0.00     0.019 C 
BRANCH  29  30
HETATM   30  C2  UNL     1      34.692   3.501  47.692  1.00  0.00    -0.003 C 
HETATM   31  C1  UNL     1      35.009   3.458  46.206  1.00  0.00     0.005 C 
ENDBRANCH  29  30
ENDBRANCH  28  29
ENDBRANCH  24  28
ENDBRANCH   1  22
TORSDOF 7
ENDMDL
MODEL 7
REMARK VINA RESULT:      -7.6      2.683      7.178
REMARK  7 active torsions:
REMARK  status: ('A' for Active; 'I' for Inactive)
REMARK    1  A    between atoms: C2_2  and  C3_3 
REMARK    2  A    between atoms: C3_3  and  C4_4 
REMARK    3  A    between atoms: C4_4  and  N1_5 
REMARK       I    between atoms: N1_5  and  C5_6 
REMARK       I    between atoms: C5_6  and  N2_8 
REMARK    4  A    between atoms: N2_8  and  C6_9 
REMARK    5  A    between atoms: C10_14  and  O3_15 
REMARK    6  A    between atoms: O3_15  and  C11_16 
REMARK    7  A    between atoms: C16_23  and  O4_24 
ROOT
HETATM    1  C6  UNL     1      26.226   1.997  52.078  1.00  0.00     0.036 C 
HETATM    2  C7  UNL     1      26.988   0.926  51.984  1.00  0.00     0.031 C 
HETATM    3  C8  UNL     1      26.800  -0.479  52.323  1.00  0.00     0.026 C 
HETATM    4  C9  UNL     1      25.916  -1.204  53.024  1.00  0.00     0.138 C 
HETATM    5  O2  UNL     1      24.798  -0.727  53.695  1.00  0.00    -0.328 OA
HETATM    6  C10 UNL     1      23.665   0.012  53.389  1.00  0.00     0.298 C 
HETATM    7  C20 UNL     1      23.887   1.433  53.071  1.00  0.00     0.036 C 
HETATM    8  C21 UNL     1      24.859   2.208  52.571  1.00  0.00     0.030 C 
ENDROOT
BRANCH   6   9
HETATM    9  O3  UNL     1      22.811  -0.600  52.423  1.00  0.00    -0.298 OA
BRANCH   9  10
HETATM   10  C11 UNL     1      21.432  -0.470  52.567  1.00  0.00     0.181 A 
HETATM   11  N3  UNL     1      20.731  -0.923  53.638  1.00  0.00    -0.217 NA
HETATM   12  C12 UNL     1      19.395  -0.763  53.711  1.00  0.00     0.236 A 
HETATM   13  N4  UNL     1      18.737  -0.148  52.713  1.00  0.00    -0.241 NA
HETATM   14  C13 UNL     1      19.368   0.327  51.619  1.00  0.00     0.072 A 
HETATM   15  C14 UNL     1      18.665   0.958  50.601  1.00  0.00     0.035 A 
HETATM   16  C19 UNL     1      20.755   0.163  51.538  1.00  0.00     0.048 A 
HETATM   17  C15 UNL     1      19.394   1.419  49.502  1.00  0.00     0.039 A 
HETATM   18  C16 UNL     1      20.765   1.259  49.423  1.00  0.00     0.069 A 
HETATM   19  C18 UNL     1      21.443   0.629  50.442  1.00  0.00     0.055 A 
BRANCH  18  20
HETATM   20  O4  UNL     1      21.305   1.783  48.258  1.00  0.00    -0.356 OA
HETATM   21  C17 UNL     1      20.680   2.852  47.577  1.00  0.00     0.210 C 
ENDBRANCH  18  20
ENDBRANCH   9  10
ENDBRANCH   6   9
BRANCH   1  22
HETATM   22  N2  UNL     1      26.805   3.230  51.618  1.00  0.00    -0.309 N 
HETATM   23  C5  UNL     1      26.143   3.781  50.478  1.00  0.00     0.320 C 
HETATM   24  N1  UNL     1      26.552   4.994  49.865  1.00  0.00    -0.343 N 
HETATM   25  O1  UNL     1      25.186   3.082  50.101  1.00  0.00    -0.247 OA
HETATM   26  H10 UNL     1      27.383   5.523  50.256  1.00  0.00     0.164 HD
HETATM   27  H11 UNL     1      27.641   3.736  52.037  1.00  0.00     0.170 HD
BRANCH  24  28
HETATM   28  C4  UNL     1      25.866   5.528  48.718  1.00  0.00     0.124 C 
BRANCH  28  29
HETATM   29  C3  UNL     1      26.548   6.797  48.295  1.00  0.00     0.019 C 
BRANCH  29  30
HETATM   30  C2  UNL     1      28.053   6.711  48.439  1.00  0.00    -0.003 C 
HETATM   31  C1  UNL     1      28.635   7.261  47.147  1.00  0.00     0.005 C 
ENDBRANCH  29  30
ENDBRANCH  28  29
ENDBRANCH  24  28
ENDBRANCH   1  22
TORSDOF 7
ENDMDL
MODEL 8
REMARK VINA RESULT:      -7.5      2.869      8.574
REMARK  7 active torsions:
REMARK  status: ('A' for Active; 'I' for Inactive)
REMARK    1  A    between atoms: C2_2  and  C3_3 
REMARK    2  A    between atoms: C3_3  and  C4_4 
REMARK    3  A    between atoms: C4_4  and  N1_5 
REMARK       I    between atoms: N1_5  and  C5_6 
REMARK       I    between atoms: C5_6  and  N2_8 
REMARK    4  A    between atoms: N2_8  and  C6_9 
REMARK    5  A    between atoms: C10_14  and  O3_15 
REMARK    6  A    between atoms: O3_15  and  C11_16 
REMARK    7  A    between atoms: C16_23  and  O4_24 
ROOT
HETATM    1  C6  UNL     1      26.696   6.084  48.424  1.00  0.00     0.036 C 
HETATM    2  C7  UNL     1      25.472   6.572  48.426  1.00  0.00     0.031 C 
HETATM    3  C8  UNL     1      24.176   6.041  48.830  1.00  0.00     0.026 C 
HETATM    4  C9  UNL     1      23.669   4.841  49.150  1.00  0.00     0.138 C 
HETATM    5  O2  UNL     1      24.353   3.634  49.183  1.00  0.00    -0.328 OA
HETATM    6  C10 UNL     1      25.477   3.117  49.812  1.00  0.00     0.298 C 
HETATM    7  C20 UNL     1      26.772   3.659  49.366  1.00  0.00     0.036 C 
HETATM    8  C21 UNL     1      27.256   4.789  48.834  1.00  0.00     0.030 C 
ENDROOT
BRANCH   6   9
HETATM    9  O3  UNL     1      25.394   3.097  51.236  1.00  0.00    -0.298 OA
BRANCH   9  10
HETATM   10  C11 UNL     1      25.596   1.892  51.905  1.00  0.00     0.181 A 
HETATM   11  N3  UNL     1      26.802   1.279  52.023  1.00  0.00    -0.217 NA
HETATM   12  C12 UNL     1      26.925   0.112  52.685  1.00  0.00     0.236 A 
HETATM   13  N4  UNL     1      25.844  -0.462  53.241  1.00  0.00    -0.241 NA
HETATM   14  C13 UNL     1      24.615   0.091  53.164  1.00  0.00     0.072 A 
HETATM   15  C14 UNL     1      23.514  -0.522  53.746  1.00  0.00     0.035 A 
HETATM   16  C19 UNL     1      24.482   1.302  52.477  1.00  0.00     0.048 A 
HETATM   17  C15 UNL     1      22.277   0.115  53.619  1.00  0.00     0.039 A 
HETATM   18  C16 UNL     1      22.145   1.313  52.941  1.00  0.00     0.069 A 
HETATM   19  C18 UNL     1      23.250   1.904  52.370  1.00  0.00     0.055 A 
BRANCH  18  20
HETATM   20  O4  UNL     1      20.841   1.786  52.925  1.00  0.00    -0.356 OA
HETATM   21  C17 UNL     1      19.884   1.263  52.027  1.00  0.00     0.210 C 
ENDBRANCH  18  20
ENDBRANCH   9  10
ENDBRANCH   6   9
BRANCH   1  22
HETATM   22  N2  UNL     1      27.726   6.959  47.931  1.00  0.00    -0.309 N 
HETATM   23  C5  UNL     1      27.937   8.110  48.751  1.00  0.00     0.320 C 
HETATM   24  N1  UNL     1      28.907   9.101  48.446  1.00  0.00    -0.343 N 
HETATM   25  O1  UNL     1      27.184   8.135  49.740  1.00  0.00    -0.247 OA
HETATM   26  H10 UNL     1      29.506   8.997  47.578  1.00  0.00     0.164 HD
HETATM   27  H11 UNL     1      28.311   6.823  47.054  1.00  0.00     0.170 HD
BRANCH  24  28
HETATM   28  C4  UNL     1      29.101  10.250  49.290  1.00  0.00     0.124 C 
BRANCH  28  29
HETATM   29  C3  UNL     1      30.542  10.665  49.218  1.00  0.00     0.019 C 
BRANCH  29  30
HETATM   30  C2  UNL     1      30.698  12.157  49.016  1.00  0.00    -0.003 C 
HETATM   31  C1  UNL     1      29.293  12.737  49.035  1.00  0.00     0.005 C 
ENDBRANCH  29  30
ENDBRANCH  28  29
ENDBRANCH  24  28
ENDBRANCH   1  22
TORSDOF 7
ENDMDL
MODEL 9
REMARK VINA RESULT:      -7.4      4.311      8.919
REMARK  7 active torsions:
REMARK  status: ('A' for Active; 'I' for Inactive)
REMARK    1  A    between atoms: C2_2  and  C3_3 
REMARK    2  A    between atoms: C3_3  and  C4_4 
REMARK    3  A    between atoms: C4_4  and  N1_5 
REMARK       I    between atoms: N1_5  and  C5_6 
REMARK       I    between atoms: C5_6  and  N2_8 
REMARK    4  A    between atoms: N2_8  and  C6_9 
REMARK    5  A    between atoms: C10_14  and  O3_15 
REMARK    6  A    between atoms: O3_15  and  C11_16 
REMARK    7  A    between atoms: C16_23  and  O4_24 
ROOT
HETATM    1  C6  UNL     1      18.955   4.155  49.912  1.00  0.00     0.036 C 
HETATM    2  C7  UNL     1      18.996   2.983  49.311  1.00  0.00     0.031 C 
HETATM    3  C8  UNL     1      20.078   2.104  48.885  1.00  0.00     0.026 C 
HETATM    4  C9  UNL     1      21.408   2.195  48.738  1.00  0.00     0.138 C 
HETATM    5  O2  UNL     1      22.197   3.308  48.992  1.00  0.00    -0.328 OA
HETATM    6  C10 UNL     1      22.448   4.156  50.061  1.00  0.00     0.298 C 
HETATM    7  C20 UNL     1      21.340   5.045  50.452  1.00  0.00     0.036 C 
HETATM    8  C21 UNL     1      20.002   5.061  50.403  1.00  0.00     0.030 C 
ENDROOT
BRANCH   6   9
HETATM    9  O3  UNL     1      23.011   3.509  51.202  1.00  0.00    -0.298 OA
BRANCH   9  10
HETATM   10  C11 UNL     1      24.335   3.083  51.148  1.00  0.00     0.181 A 
HETATM   11  N3  UNL     1      25.319   3.734  50.475  1.00  0.00    -0.217 NA
HETATM   12  C12 UNL     1      26.582   3.264  50.465  1.00  0.00     0.236 A 
HETATM   13  N4  UNL     1      26.882   2.132  51.127  1.00  0.00    -0.241 NA
HETATM   14  C13 UNL     1      25.955   1.433  51.816  1.00  0.00     0.072 A 
HETATM   15  C14 UNL     1      26.291   0.267  52.491  1.00  0.00     0.035 A 
HETATM   16  C19 UNL     1      24.644   1.918  51.829  1.00  0.00     0.048 A 
HETATM   17  C15 UNL     1      25.273  -0.397  53.179  1.00  0.00     0.039 A 
HETATM   18  C16 UNL     1      23.976   0.082  53.193  1.00  0.00     0.069 A 
HETATM   19  C18 UNL     1      23.664   1.240  52.517  1.00  0.00     0.055 A 
BRANCH  18  20
HETATM   20  O4  UNL     1      23.112  -0.715  53.930  1.00  0.00    -0.356 OA
HETATM   21  C17 UNL     1      21.776  -0.321  54.168  1.00  0.00     0.210 C 
ENDBRANCH  18  20
ENDBRANCH   9  10
ENDBRANCH   6   9
BRANCH   1  22
HETATM   22  N2  UNL     1      17.646   4.695  50.160  1.00  0.00    -0.309 N 
HETATM   23  C5  UNL     1      17.053   4.222  51.371  1.00  0.00     0.320 C 
HETATM   24  N1  UNL     1      15.765   4.631  51.805  1.00  0.00    -0.343 N 
HETATM   25  O1  UNL     1      17.789   3.427  51.982  1.00  0.00    -0.247 OA
HETATM   26  H10 UNL     1      15.207   5.313  51.217  1.00  0.00     0.164 HD
HETATM   27  H11 UNL     1      17.114   5.382  49.547  1.00  0.00     0.170 HD
BRANCH  24  28
HETATM   28  C4  UNL     1      15.192   4.140  53.031  1.00  0.00     0.124 C 
BRANCH  28  29
HETATM   29  C3  UNL     1      13.858   3.523  52.726  1.00  0.00     0.019 C 
BRANCH  29  30
HETATM   30  C2  UNL     1      12.711   4.466  53.024  1.00  0.00    -0.003 C 
HETATM   31  C1  UNL     1      12.313   4.207  54.468  1.00  0.00     0.005 C 
ENDBRANCH  29  30
ENDBRANCH  28  29
ENDBRANCH  24  28
ENDBRANCH   1  22
TORSDOF 7
ENDMDL
