MODEL 1
REMARK VINA RESULT:      -9.8      0.000      0.000
REMARK  3 active torsions:
REMARK  status: ('A' for Active; 'I' for Inactive)
REMARK    1  A    between atoms: C5_6  and  N1_7 
REMARK    2  A    between atoms: N1_7  and  C6_8 
REMARK    3  A    between atoms: C6_8  and  C7_9 
ROOT
HETATM    1  C7  UNL     1      25.621   2.541  51.181  1.00  0.00    -0.015 C 
HETATM    2  C8  UNL     1      24.510   2.719  51.812  1.00  0.00    -0.015 C 
HETATM    3  C9  UNL     1      23.405   2.668  52.728  1.00  0.00     0.033 C 
HETATM    4  C10 UNL     1      22.056   2.412  52.293  1.00  0.00     0.002 C 
HETATM    5  C11 UNL     1      21.557   1.342  52.880  1.00  0.00     0.021 C 
HETATM    6  C12 UNL     1      20.327   0.580  52.911  1.00  0.00    -0.021 C 
HETATM    7  C13 UNL     1      20.484  -0.468  53.743  1.00  0.00    -0.004 C 
HETATM    8  C14 UNL     1      21.673  -0.826  54.459  1.00  0.00    -0.003 C 
HETATM    9  C15 UNL     1      22.503  -1.429  55.249  1.00  0.00    -0.007 C 
HETATM   10  C16 UNL     1      23.829  -1.686  55.914  1.00  0.00     0.148 C 
HETATM   11  N2  UNL     1      24.874  -1.002  55.196  1.00  0.00    -0.373 N 
HETATM   12  C17 UNL     1      25.905  -0.289  54.486  1.00  0.00     0.102 C 
HETATM   13  C18 UNL     1      26.184   1.012  54.746  1.00  0.00     0.050 C 
HETATM   14  C19 UNL     1      26.136   1.938  53.589  1.00  0.00     0.036 C 
HETATM   15  C20 UNL     1      26.137   1.699  52.241  1.00  0.00     0.065 C 
HETATM   16  N3  UNL     1      26.669   0.564  51.521  1.00  0.00    -0.244 NA
HETATM   17  C21 UNL     1      27.086  -0.537  52.113  1.00  0.00     0.209 C 
HETATM   18  N4  UNL     1      26.637  -0.999  53.437  1.00  0.00    -0.337 N 
HETATM   19  H18 UNL     1      25.341  -1.907  55.011  1.00  0.00     0.161 HD
HETATM   20  H22 UNL     1      26.837  -1.994  53.741  1.00  0.00     0.168 HD
ENDROOT
BRANCH   1  21
HETATM   21  C6  UNL     1      26.461   2.948  50.025  1.00  0.00     0.160 C 
BRANCH  21  22
HETATM   22  N1  UNL     1      25.918   4.182  49.458  1.00  0.00    -0.386 N 
HETATM   23  H4  UNL     1      24.909   4.418  49.467  1.00  0.00     0.160 HD
BRANCH  22  24
HETATM   24  C5  UNL     1      26.812   5.080  48.869  1.00  0.00     0.029 A 
HETATM   25  C4  UNL     1      26.365   6.351  48.509  1.00  0.00     0.029 A 
HETATM   26  C3  UNL     1      27.202   7.314  47.940  1.00  0.00     0.004 A 
HETATM   27  C2  UNL     1      28.538   6.939  47.745  1.00  0.00     0.024 A 
HETATM   28  C1  UNL     1      29.128   5.702  48.057  1.00  0.00     0.036 A 
HETATM   29 CL1  UNL     1      30.783   5.289  47.806  1.00  0.00    -0.084 Cl
HETATM   30  C22 UNL     1      28.109   4.954  48.592  1.00  0.00     0.052 A 
ENDBRANCH  22  24
ENDBRANCH  21  22
ENDBRANCH   1  21
TORSDOF 3
ENDMDL
MODEL 2
REMARK VINA RESULT:      -9.7      4.094      6.101
REMARK  3 active torsions:
REMARK  status: ('A' for Active; 'I' for Inactive)
REMARK    1  A    between atoms: C5_6  and  N1_7 
REMARK    2  A    between atoms: N1_7  and  C6_8 
REMARK    3  A    between atoms: C6_8  and  C7_9 
ROOT
HETATM    1  C7  UNL     1      23.995   1.893  52.983  1.00  0.00    -0.015 C 
HETATM    2  C8  UNL     1      23.422   0.738  52.929  1.00  0.00    -0.015 C 
HETATM    3  C9  UNL     1      22.580  -0.386  52.633  1.00  0.00     0.033 C 
HETATM    4  C10 UNL     1      21.848  -1.091  53.654  1.00  0.00     0.002 C 
HETATM    5  C11 UNL     1      20.552  -1.073  53.415  1.00  0.00     0.021 C 
HETATM    6  C12 UNL     1      19.323  -1.573  53.993  1.00  0.00    -0.021 C 
HETATM    7  C13 UNL     1      18.287  -1.167  53.232  1.00  0.00    -0.004 C 
HETATM    8  C14 UNL     1      18.352  -0.338  52.065  1.00  0.00    -0.003 C 
HETATM    9  C15 UNL     1      18.020   0.334  51.009  1.00  0.00    -0.007 C 
HETATM   10  C16 UNL     1      18.248   1.227  49.819  1.00  0.00     0.148 C 
HETATM   11  N2  UNL     1      19.527   1.880  49.938  1.00  0.00    -0.373 N 
HETATM   12  C17 UNL     1      20.819   2.504  50.057  1.00  0.00     0.102 C 
HETATM   13  C18 UNL     1      21.952   1.888  49.637  1.00  0.00     0.050 C 
HETATM   14  C19 UNL     1      23.035   1.749  50.641  1.00  0.00     0.036 C 
HETATM   15  C20 UNL     1      23.234   2.368  51.845  1.00  0.00     0.065 C 
HETATM   16  N3  UNL     1      22.764   3.662  52.289  1.00  0.00    -0.244 NA
HETATM   17  C21 UNL     1      21.881   4.377  51.623  1.00  0.00     0.209 C 
HETATM   18  N4  UNL     1      20.894   3.825  50.680  1.00  0.00    -0.337 N 
HETATM   19  H18 UNL     1      19.057   2.802  49.929  1.00  0.00     0.161 HD
HETATM   20  H22 UNL     1      20.078   4.424  50.365  1.00  0.00     0.168 HD
ENDROOT
BRANCH   1  21
HETATM   21  C6  UNL     1      25.075   2.707  53.598  1.00  0.00     0.160 C 
BRANCH  21  22
HETATM   22  N1  UNL     1      26.268   2.620  52.757  1.00  0.00    -0.386 N 
HETATM   23  H4  UNL     1      26.470   3.278  51.983  1.00  0.00     0.160 HD
BRANCH  22  24
HETATM   24  C5  UNL     1      27.175   1.587  53.013  1.00  0.00     0.029 A 
HETATM   25  C4  UNL     1      28.394   1.884  53.620  1.00  0.00     0.029 A 
HETATM   26  C3  UNL     1      29.342   0.906  53.932  1.00  0.00     0.004 A 
HETATM   27  C2  UNL     1      29.003  -0.413  53.605  1.00  0.00     0.024 A 
HETATM   28  C1  UNL     1      27.819  -0.862  52.996  1.00  0.00     0.036 A 
HETATM   29 CL1  UNL     1      27.443  -2.501  52.619  1.00  0.00    -0.084 Cl
HETATM   30  C22 UNL     1      27.076   0.276  52.798  1.00  0.00     0.052 A 
ENDBRANCH  22  24
ENDBRANCH  21  22
ENDBRANCH   1  21
TORSDOF 3
ENDMDL
MODEL 3
REMARK VINA RESULT:      -9.4      1.867      2.217
REMARK  3 active torsions:
REMARK  status: ('A' for Active; 'I' for Inactive)
REMARK    1  A    between atoms: C5_6  and  N1_7 
REMARK    2  A    between atoms: N1_7  and  C6_8 
REMARK    3  A    between atoms: C6_8  and  C7_9 
ROOT
HETATM    1  C7  UNL     1      25.636   2.490  51.172  1.00  0.00    -0.015 C 
HETATM    2  C8  UNL     1      24.536   2.697  51.814  1.00  0.00    -0.015 C 
HETATM    3  C9  UNL     1      23.438   2.675  52.739  1.00  0.00     0.033 C 
HETATM    4  C10 UNL     1      22.078   2.458  52.316  1.00  0.00     0.002 C 
HETATM    5  C11 UNL     1      21.555   1.401  52.904  1.00  0.00     0.021 C 
HETATM    6  C12 UNL     1      20.304   0.674  52.943  1.00  0.00    -0.021 C 
HETATM    7  C13 UNL     1      20.439  -0.381  53.771  1.00  0.00    -0.004 C 
HETATM    8  C14 UNL     1      21.623  -0.774  54.476  1.00  0.00    -0.003 C 
HETATM    9  C15 UNL     1      22.443  -1.402  55.256  1.00  0.00    -0.007 C 
HETATM   10  C16 UNL     1      23.767  -1.699  55.909  1.00  0.00     0.148 C 
HETATM   11  N2  UNL     1      24.824  -1.042  55.184  1.00  0.00    -0.373 N 
HETATM   12  C17 UNL     1      25.868  -0.357  54.467  1.00  0.00     0.102 C 
HETATM   13  C18 UNL     1      26.187   0.935  54.728  1.00  0.00     0.050 C 
HETATM   14  C19 UNL     1      26.154   1.866  53.574  1.00  0.00     0.036 C 
HETATM   15  C20 UNL     1      26.137   1.631  52.226  1.00  0.00     0.065 C 
HETATM   16  N3  UNL     1      26.630   0.484  51.498  1.00  0.00    -0.244 NA
HETATM   17  C21 UNL     1      27.022  -0.631  52.083  1.00  0.00     0.209 C 
HETATM   18  N4  UNL     1      26.571  -1.083  53.409  1.00  0.00    -0.337 N 
HETATM   19  H18 UNL     1      25.263  -1.959  54.992  1.00  0.00     0.161 HD
HETATM   20  H22 UNL     1      26.745  -2.085  53.709  1.00  0.00     0.168 HD
ENDROOT
BRANCH   1  21
HETATM   21  C6  UNL     1      26.477   2.877  50.011  1.00  0.00     0.160 C 
BRANCH  21  22
HETATM   22  N1  UNL     1      26.802   4.299  50.116  1.00  0.00    -0.386 N 
HETATM   23  H4  UNL     1      27.558   4.669  50.720  1.00  0.00     0.160 HD
BRANCH  22  24
HETATM   24  C5  UNL     1      26.042   5.201  49.365  1.00  0.00     0.029 A 
HETATM   25  C4  UNL     1      26.661   6.324  48.818  1.00  0.00     0.029 A 
HETATM   26  C3  UNL     1      25.977   7.257  48.034  1.00  0.00     0.004 A 
HETATM   27  C2  UNL     1      24.616   7.008  47.817  1.00  0.00     0.024 A 
HETATM   28  C1  UNL     1      23.862   5.925  48.301  1.00  0.00     0.036 A 
HETATM   29 CL1  UNL     1      22.186   5.655  47.999  1.00  0.00    -0.084 Cl
HETATM   30  C22 UNL     1      24.755   5.175  49.025  1.00  0.00     0.052 A 
ENDBRANCH  22  24
ENDBRANCH  21  22
ENDBRANCH   1  21
TORSDOF 3
ENDMDL
MODEL 4
REMARK VINA RESULT:      -9.3      2.356      4.106
REMARK  3 active torsions:
REMARK  status: ('A' for Active; 'I' for Inactive)
REMARK    1  A    between atoms: C5_6  and  N1_7 
REMARK    2  A    between atoms: N1_7  and  C6_8 
REMARK    3  A    between atoms: C6_8  and  C7_9 
ROOT
HETATM    1  C7  UNL     1      24.048   3.463  51.172  1.00  0.00    -0.015 C 
HETATM    2  C8  UNL     1      24.577   2.330  51.489  1.00  0.00    -0.015 C 
HETATM    3  C9  UNL     1      24.830   0.972  51.882  1.00  0.00     0.033 C 
HETATM    4  C10 UNL     1      25.668   0.637  53.005  1.00  0.00     0.002 C 
HETATM    5  C11 UNL     1      25.009  -0.067  53.903  1.00  0.00     0.021 C 
HETATM    6  C12 UNL     1      25.239  -0.705  55.182  1.00  0.00    -0.021 C 
HETATM    7  C13 UNL     1      24.089  -1.270  55.600  1.00  0.00    -0.004 C 
HETATM    8  C14 UNL     1      22.820  -1.227  54.936  1.00  0.00    -0.003 C 
HETATM    9  C15 UNL     1      21.574  -1.423  54.642  1.00  0.00    -0.007 C 
HETATM   10  C16 UNL     1      20.309  -1.269  53.840  1.00  0.00     0.148 C 
HETATM   11  N2  UNL     1      20.433  -0.144  52.948  1.00  0.00    -0.373 N 
HETATM   12  C17 UNL     1      20.580   0.966  52.042  1.00  0.00     0.102 C 
HETATM   13  C18 UNL     1      21.168   0.825  50.829  1.00  0.00     0.050 C 
HETATM   14  C19 UNL     1      22.308   1.730  50.542  1.00  0.00     0.036 C 
HETATM   15  C20 UNL     1      22.720   2.883  51.153  1.00  0.00     0.065 C 
HETATM   16  N3  UNL     1      21.943   3.835  51.915  1.00  0.00    -0.244 NA
HETATM   17  C21 UNL     1      20.701   3.614  52.296  1.00  0.00     0.209 C 
HETATM   18  N4  UNL     1      20.105   2.280  52.476  1.00  0.00    -0.337 N 
HETATM   19  H18 UNL     1      19.622   0.308  53.406  1.00  0.00     0.161 HD
HETATM   20  H22 UNL     1      19.189   2.181  53.000  1.00  0.00     0.168 HD
ENDROOT
BRANCH   1  21
HETATM   21  C6  UNL     1      24.297   4.865  50.748  1.00  0.00     0.160 C 
BRANCH  21  22
HETATM   22  N1  UNL     1      24.620   4.876  49.322  1.00  0.00    -0.386 N 
HETATM   23  H4  UNL     1      23.991   4.498  48.591  1.00  0.00     0.160 HD
BRANCH  22  24
HETATM   24  C5  UNL     1      25.848   5.420  48.934  1.00  0.00     0.029 A 
HETATM   25  C4  UNL     1      26.981   4.607  48.923  1.00  0.00     0.029 A 
HETATM   26  C3  UNL     1      28.239   5.069  48.524  1.00  0.00     0.004 A 
HETATM   27  C2  UNL     1      28.310   6.410  48.125  1.00  0.00     0.024 A 
HETATM   28  C1  UNL     1      27.260   7.342  48.083  1.00  0.00     0.036 A 
HETATM   29 CL1  UNL     1      27.395   8.984  47.576  1.00  0.00    -0.084 Cl
HETATM   30  C22 UNL     1      26.158   6.646  48.517  1.00  0.00     0.052 A 
ENDBRANCH  22  24
ENDBRANCH  21  22
ENDBRANCH   1  21
TORSDOF 3
ENDMDL
MODEL 5
REMARK VINA RESULT:      -9.2      3.800      6.289
REMARK  3 active torsions:
REMARK  status: ('A' for Active; 'I' for Inactive)
REMARK    1  A    between atoms: C5_6  and  N1_7 
REMARK    2  A    between atoms: N1_7  and  C6_8 
REMARK    3  A    between atoms: C6_8  and  C7_9 
ROOT
HETATM    1  C7  UNL     1      27.539   6.087  48.560  1.00  0.00    -0.015 C 
HETATM    2  C8  UNL     1      27.085   4.915  48.850  1.00  0.00    -0.015 C 
HETATM    3  C9  UNL     1      26.288   3.791  49.256  1.00  0.00     0.033 C 
HETATM    4  C10 UNL     1      26.718   2.871  50.277  1.00  0.00     0.002 C 
HETATM    5  C11 UNL     1      25.858   2.824  51.275  1.00  0.00     0.021 C 
HETATM    6  C12 UNL     1      25.678   2.139  52.537  1.00  0.00    -0.021 C 
HETATM    7  C13 UNL     1      24.543   2.581  53.115  1.00  0.00    -0.004 C 
HETATM    8  C14 UNL     1      23.662   3.594  52.613  1.00  0.00    -0.003 C 
HETATM    9  C15 UNL     1      22.660   4.404  52.483  1.00  0.00    -0.007 C 
HETATM   10  C16 UNL     1      21.848   5.496  51.839  1.00  0.00     0.148 C 
HETATM   11  N2  UNL     1      22.667   6.221  50.900  1.00  0.00    -0.373 N 
HETATM   12  C17 UNL     1      23.488   6.917  49.944  1.00  0.00     0.102 C 
HETATM   13  C18 UNL     1      23.640   6.472  48.672  1.00  0.00     0.050 C 
HETATM   14  C19 UNL     1      25.034   6.255  48.214  1.00  0.00     0.036 C 
HETATM   15  C20 UNL     1      26.229   6.681  48.727  1.00  0.00     0.065 C 
HETATM   16  N3  UNL     1      26.503   7.842  49.545  1.00  0.00    -0.244 NA
HETATM   17  C21 UNL     1      25.559   8.585  50.086  1.00  0.00     0.209 C 
HETATM   18  N4  UNL     1      24.195   8.119  50.386  1.00  0.00    -0.337 N 
HETATM   19  H18 UNL     1      22.516   7.091  51.438  1.00  0.00     0.161 HD
HETATM   20  H22 UNL     1      23.573   8.694  51.023  1.00  0.00     0.168 HD
ENDROOT
BRANCH   1  21
HETATM   21  C6  UNL     1      28.698   6.871  48.059  1.00  0.00     0.160 C 
BRANCH  21  22
HETATM   22  N1  UNL     1      29.784   6.782  49.034  1.00  0.00    -0.386 N 
HETATM   23  H4  UNL     1      29.740   7.205  49.978  1.00  0.00     0.160 HD
BRANCH  22  24
HETATM   24  C5  UNL     1      30.943   6.095  48.659  1.00  0.00     0.029 A 
HETATM   25  C4  UNL     1      32.176   6.518  49.154  1.00  0.00     0.029 A 
HETATM   26  C3  UNL     1      33.376   5.870  48.848  1.00  0.00     0.004 A 
HETATM   27  C2  UNL     1      33.282   4.753  48.008  1.00  0.00     0.024 A 
HETATM   28  C1  UNL     1      32.116   4.213  47.438  1.00  0.00     0.036 A 
HETATM   29 CL1  UNL     1      32.049   2.828  46.414  1.00  0.00    -0.084 Cl
HETATM   30  C22 UNL     1      31.101   5.021  47.888  1.00  0.00     0.052 A 
ENDBRANCH  22  24
ENDBRANCH  21  22
ENDBRANCH   1  21
TORSDOF 3
ENDMDL
MODEL 6
REMARK VINA RESULT:      -9.2      3.399      8.537
REMARK  3 active torsions:
REMARK  status: ('A' for Active; 'I' for Inactive)
REMARK    1  A    between atoms: C5_6  and  N1_7 
REMARK    2  A    between atoms: N1_7  and  C6_8 
REMARK    3  A    between atoms: C6_8  and  C7_9 
ROOT
HETATM    1  C7  UNL     1      22.833   2.077  50.423  1.00  0.00    -0.015 C 
HETATM    2  C8  UNL     1      24.060   2.433  50.607  1.00  0.00    -0.015 C 
HETATM    3  C9  UNL     1      25.284   3.150  50.828  1.00  0.00     0.033 C 
HETATM    4  C10 UNL     1      26.409   3.048  49.934  1.00  0.00     0.002 C 
HETATM    5  C11 UNL     1      26.740   4.226  49.443  1.00  0.00     0.021 C 
HETATM    6  C12 UNL     1      27.725   4.807  48.555  1.00  0.00    -0.021 C 
HETATM    7  C13 UNL     1      27.491   6.130  48.452  1.00  0.00    -0.004 C 
HETATM    8  C14 UNL     1      26.426   6.865  49.068  1.00  0.00    -0.003 C 
HETATM    9  C15 UNL     1      25.656   7.832  49.452  1.00  0.00    -0.007 C 
HETATM   10  C16 UNL     1      24.475   8.458  50.146  1.00  0.00     0.148 C 
HETATM   11  N2  UNL     1      23.504   7.442  50.465  1.00  0.00    -0.373 N 
HETATM   12  C17 UNL     1      22.556   6.413  50.803  1.00  0.00     0.102 C 
HETATM   13  C18 UNL     1      22.664   5.687  51.943  1.00  0.00     0.050 C 
HETATM   14  C19 UNL     1      22.697   4.213  51.782  1.00  0.00     0.036 C 
HETATM   15  C20 UNL     1      22.358   3.412  50.725  1.00  0.00     0.065 C 
HETATM   16  N3  UNL     1      21.427   3.674  49.651  1.00  0.00    -0.244 NA
HETATM   17  C21 UNL     1      20.884   4.856  49.436  1.00  0.00     0.209 C 
HETATM   18  N4  UNL     1      21.471   6.137  49.861  1.00  0.00    -0.337 N 
HETATM   19  H18 UNL     1      22.803   7.928  49.881  1.00  0.00     0.161 HD
HETATM   20  H22 UNL     1      21.101   7.043  49.456  1.00  0.00     0.168 HD
ENDROOT
BRANCH   1  21
HETATM   21  C6  UNL     1      21.898   0.945  50.198  1.00  0.00     0.160 C 
BRANCH  21  22
HETATM   22  N1  UNL     1      21.001   0.839  51.348  1.00  0.00    -0.386 N 
HETATM   23  H4  UNL     1      20.049   1.247  51.371  1.00  0.00     0.160 HD
BRANCH  22  24
HETATM   24  C5  UNL     1      21.464   0.154  52.476  1.00  0.00     0.029 A 
HETATM   25  C4  UNL     1      20.549  -0.501  53.299  1.00  0.00     0.029 A 
HETATM   26  C3  UNL     1      20.933  -1.228  54.429  1.00  0.00     0.004 A 
HETATM   27  C2  UNL     1      22.307  -1.273  54.700  1.00  0.00     0.024 A 
HETATM   28  C1  UNL     1      23.340  -0.667  53.965  1.00  0.00     0.036 A 
HETATM   29 CL1  UNL     1      25.021  -0.757  54.335  1.00  0.00    -0.084 Cl
HETATM   30  C22 UNL     1      22.702  -0.029  52.930  1.00  0.00     0.052 A 
ENDBRANCH  22  24
ENDBRANCH  21  22
ENDBRANCH   1  21
TORSDOF 3
ENDMDL
MODEL 7
REMARK VINA RESULT:      -9.1      4.825      9.649
REMARK  3 active torsions:
REMARK  status: ('A' for Active; 'I' for Inactive)
REMARK    1  A    between atoms: C5_6  and  N1_7 
REMARK    2  A    between atoms: N1_7  and  C6_8 
REMARK    3  A    between atoms: C6_8  and  C7_9 
ROOT
HETATM    1  C7  UNL     1      20.409   0.380  52.398  1.00  0.00    -0.015 C 
HETATM    2  C8  UNL     1      21.469   0.301  53.130  1.00  0.00    -0.015 C 
HETATM    3  C9  UNL     1      22.764   0.466  53.728  1.00  0.00     0.033 C 
HETATM    4  C10 UNL     1      23.685  -0.631  53.887  1.00  0.00     0.002 C 
HETATM    5  C11 UNL     1      24.824  -0.395  53.266  1.00  0.00     0.021 C 
HETATM    6  C12 UNL     1      26.107  -1.029  53.049  1.00  0.00    -0.021 C 
HETATM    7  C13 UNL     1      26.860  -0.231  52.268  1.00  0.00    -0.004 C 
HETATM    8  C14 UNL     1      26.472   1.023  51.692  1.00  0.00    -0.003 C 
HETATM    9  C15 UNL     1      26.499   2.147  51.050  1.00  0.00    -0.007 C 
HETATM   10  C16 UNL     1      25.938   3.431  50.500  1.00  0.00     0.148 C 
HETATM   11  N2  UNL     1      24.499   3.390  50.541  1.00  0.00    -0.373 N 
HETATM   12  C17 UNL     1      23.061   3.347  50.614  1.00  0.00     0.102 C 
HETATM   13  C18 UNL     1      22.391   3.698  51.739  1.00  0.00     0.050 C 
HETATM   14  C19 UNL     1      21.453   2.688  52.287  1.00  0.00     0.036 C 
HETATM   15  C20 UNL     1      20.911   1.562  51.728  1.00  0.00     0.065 C 
HETATM   16  N3  UNL     1      20.674   1.266  50.333  1.00  0.00    -0.244 NA
HETATM   17  C21 UNL     1      21.141   2.006  49.347  1.00  0.00     0.209 C 
HETATM   18  N4  UNL     1      22.324   2.877  49.440  1.00  0.00    -0.337 N 
HETATM   19  H18 UNL     1      24.466   3.502  49.513  1.00  0.00     0.161 HD
HETATM   20  H22 UNL     1      22.768   3.255  48.556  1.00  0.00     0.168 HD
ENDROOT
BRANCH   1  21
HETATM   21  C6  UNL     1      19.037  -0.136  52.155  1.00  0.00     0.160 C 
BRANCH  21  22
HETATM   22  N1  UNL     1      18.585  -0.853  53.347  1.00  0.00    -0.386 N 
HETATM   23  H4  UNL     1      18.948  -0.665  54.298  1.00  0.00     0.160 HD
BRANCH  22  24
HETATM   24  C5  UNL     1      17.617  -1.849  53.182  1.00  0.00     0.029 A 
HETATM   25  C4  UNL     1      17.818  -3.098  53.768  1.00  0.00     0.029 A 
HETATM   26  C3  UNL     1      16.887  -4.136  53.673  1.00  0.00     0.004 A 
HETATM   27  C2  UNL     1      15.720  -3.858  52.950  1.00  0.00     0.024 A 
HETATM   28  C1  UNL     1      15.382  -2.654  52.309  1.00  0.00     0.036 A 
HETATM   29 CL1  UNL     1      13.925  -2.356  51.436  1.00  0.00    -0.084 Cl
HETATM   30  C22 UNL     1      16.445  -1.820  52.553  1.00  0.00     0.052 A 
ENDBRANCH  22  24
ENDBRANCH  21  22
ENDBRANCH   1  21
TORSDOF 3
ENDMDL
MODEL 8
REMARK VINA RESULT:      -9.0      2.525      4.521
REMARK  3 active torsions:
REMARK  status: ('A' for Active; 'I' for Inactive)
REMARK    1  A    between atoms: C5_6  and  N1_7 
REMARK    2  A    between atoms: N1_7  and  C6_8 
REMARK    3  A    between atoms: C6_8  and  C7_9 
ROOT
HETATM    1  C7  UNL     1      25.397   5.019  50.017  1.00  0.00    -0.015 C 
HETATM    2  C8  UNL     1      25.949   3.883  50.280  1.00  0.00    -0.015 C 
HETATM    3  C9  UNL     1      26.229   2.509  50.588  1.00  0.00     0.033 C 
HETATM    4  C10 UNL     1      27.026   2.121  51.724  1.00  0.00     0.002 C 
HETATM    5  C11 UNL     1      26.351   1.335  52.538  1.00  0.00     0.021 C 
HETATM    6  C12 UNL     1      26.544   0.615  53.779  1.00  0.00    -0.021 C 
HETATM    7  C13 UNL     1      25.396  -0.014  54.101  1.00  0.00    -0.004 C 
HETATM    8  C14 UNL     1      24.157   0.038  53.381  1.00  0.00    -0.003 C 
HETATM    9  C15 UNL     1      22.934  -0.175  53.014  1.00  0.00    -0.007 C 
HETATM   10  C16 UNL     1      21.702  -0.003  52.165  1.00  0.00     0.148 C 
HETATM   11  N2  UNL     1      21.828   1.186  51.361  1.00  0.00    -0.373 N 
HETATM   12  C17 UNL     1      21.980   2.362  50.543  1.00  0.00     0.102 C 
HETATM   13  C18 UNL     1      22.627   2.326  49.353  1.00  0.00     0.050 C 
HETATM   14  C19 UNL     1      23.747   3.283  49.185  1.00  0.00     0.036 C 
HETATM   15  C20 UNL     1      24.092   4.402  49.894  1.00  0.00     0.065 C 
HETATM   16  N3  UNL     1      23.248   5.273  50.682  1.00  0.00    -0.244 NA
HETATM   17  C21 UNL     1      21.998   4.987  50.987  1.00  0.00     0.209 C 
HETATM   18  N4  UNL     1      21.440   3.626  51.045  1.00  0.00    -0.337 N 
HETATM   19  H18 UNL     1      20.983   1.580  51.810  1.00  0.00     0.161 HD
HETATM   20  H22 UNL     1      20.505   3.463  51.516  1.00  0.00     0.168 HD
ENDROOT
BRANCH   1  21
HETATM   21  C6  UNL     1      25.618   6.455  49.704  1.00  0.00     0.160 C 
BRANCH  21  22
HETATM   22  N1  UNL     1      26.304   6.557  48.417  1.00  0.00    -0.386 N 
HETATM   23  H4  UNL     1      25.814   6.535  47.505  1.00  0.00     0.160 HD
BRANCH  22  24
HETATM   24  C5  UNL     1      27.697   6.683  48.428  1.00  0.00     0.029 A 
HETATM   25  C4  UNL     1      28.485   5.560  48.179  1.00  0.00     0.029 A 
HETATM   26  C3  UNL     1      29.881   5.608  48.147  1.00  0.00     0.004 A 
HETATM   27  C2  UNL     1      30.464   6.861  48.377  1.00  0.00     0.024 A 
HETATM   28  C1  UNL     1      29.803   8.073  48.638  1.00  0.00     0.036 A 
HETATM   29 CL1  UNL     1      30.565   9.595  48.907  1.00  0.00    -0.084 Cl
HETATM   30  C22 UNL     1      28.467   7.753  48.615  1.00  0.00     0.052 A 
ENDBRANCH  22  24
ENDBRANCH  21  22
ENDBRANCH   1  21
TORSDOF 3
ENDMDL
MODEL 9
REMARK VINA RESULT:      -8.6      6.054      9.115
REMARK  3 active torsions:
REMARK  status: ('A' for Active; 'I' for Inactive)
REMARK    1  A    between atoms: C5_6  and  N1_7 
REMARK    2  A    between atoms: N1_7  and  C6_8 
REMARK    3  A    between atoms: C6_8  and  C7_9 
ROOT
HETATM    1  C7  UNL     1      30.776   6.037  48.664  1.00  0.00    -0.015 C 
HETATM    2  C8  UNL     1      29.587   5.599  48.417  1.00  0.00    -0.015 C 
HETATM    3  C9  UNL     1      28.194   5.454  48.102  1.00  0.00     0.033 C 
HETATM    4  C10 UNL     1      27.275   4.765  48.972  1.00  0.00     0.002 C 
HETATM    5  C11 UNL     1      26.288   5.554  49.349  1.00  0.00     0.021 C 
HETATM    6  C12 UNL     1      25.087   5.500  50.156  1.00  0.00    -0.021 C 
HETATM    7  C13 UNL     1      24.503   6.714  50.148  1.00  0.00    -0.004 C 
HETATM    8  C14 UNL     1      24.986   7.896  49.498  1.00  0.00    -0.003 C 
HETATM    9  C15 UNL     1      25.079   9.107  49.049  1.00  0.00    -0.007 C 
HETATM   10  C16 UNL     1      25.725  10.264  48.334  1.00  0.00     0.148 C 
HETATM   11  N2  UNL     1      27.125   9.990  48.131  1.00  0.00    -0.373 N 
HETATM   12  C17 UNL     1      28.515   9.690  47.910  1.00  0.00     0.102 C 
HETATM   13  C18 UNL     1      28.931   8.974  46.836  1.00  0.00     0.050 C 
HETATM   14  C19 UNL     1      29.747   7.770  47.125  1.00  0.00     0.036 C 
HETATM   15  C20 UNL     1      30.409   7.379  48.257  1.00  0.00     0.065 C 
HETATM   16  N3  UNL     1      30.936   8.195  49.328  1.00  0.00    -0.244 NA
HETATM   17  C21 UNL     1      30.676   9.481  49.452  1.00  0.00     0.209 C 
HETATM   18  N4  UNL     1      29.488  10.153  48.900  1.00  0.00    -0.337 N 
HETATM   19  H18 UNL     1      27.370  10.826  48.688  1.00  0.00     0.161 HD
HETATM   20  H22 UNL     1      29.234  11.126  49.234  1.00  0.00     0.168 HD
ENDROOT
BRANCH   1  21
HETATM   21  C6  UNL     1      32.175   5.679  49.012  1.00  0.00     0.160 C 
BRANCH  21  22
HETATM   22  N1  UNL     1      32.457   4.336  48.506  1.00  0.00    -0.386 N 
HETATM   23  H4  UNL     1      32.121   3.470  48.964  1.00  0.00     0.160 HD
BRANCH  22  24
HETATM   24  C5  UNL     1      33.228   4.224  47.345  1.00  0.00     0.029 A 
HETATM   25  C4  UNL     1      34.437   3.530  47.394  1.00  0.00     0.029 A 
HETATM   26  C3  UNL     1      35.252   3.352  46.273  1.00  0.00     0.004 A 
HETATM   27  C2  UNL     1      34.790   3.911  45.074  1.00  0.00     0.024 A 
HETATM   28  C1  UNL     1      33.600   4.631  44.874  1.00  0.00     0.036 A 
HETATM   29 CL1  UNL     1      33.068   5.294  43.374  1.00  0.00    -0.084 Cl
HETATM   30  C22 UNL     1      32.999   4.661  46.108  1.00  0.00     0.052 A 
ENDBRANCH  22  24
ENDBRANCH  21  22
ENDBRANCH   1  21
TORSDOF 3
ENDMDL
