MODEL 1
REMARK VINA RESULT:      -7.1      0.000      0.000
REMARK  3 active torsions:
REMARK  status: ('A' for Active; 'I' for Inactive)
REMARK    1  A    between atoms: N1_2  and  C3_4 
REMARK    2  A    between atoms: C3_4  and  C4_5 
REMARK    3  A    between atoms: C4_5  and  N2_6 
ROOT
HETATM    1  N2  UNL     1      23.212   3.027  50.545  1.00  0.00     0.136 NA
HETATM    2  C5  UNL     1      22.878   1.685  50.620  1.00  0.00     0.319 C 
HETATM    3  C6  UNL     1      22.366   1.047  51.829  1.00  0.00     0.027 A 
HETATM    4  C7  UNL     1      21.031   1.196  51.977  1.00  0.00     0.095 A 
HETATM    5  N3  UNL     1      20.142   0.756  52.982  1.00  0.00    -0.393 N 
HETATM    6  C8  UNL     1      20.651  -0.090  54.006  1.00  0.00     0.169 A 
HETATM    7  C9  UNL     1      22.107  -0.266  53.883  1.00  0.00     0.047 A 
HETATM    8 BR1  UNL     1      22.863  -1.310  55.250  1.00  0.00    -0.050 Br
HETATM    9  C10 UNL     1      22.890   0.209  52.960  1.00  0.00     0.132 A 
HETATM   10  N4  UNL     1      24.185   0.027  53.046  1.00  0.00    -0.398 NA
HETATM   11  C11 UNL     1      25.335  -0.236  53.264  1.00  0.00     0.299 C 
HETATM   12  N5  UNL     1      25.844   0.504  52.161  1.00  0.00    -0.233 NA
HETATM   13  C12 UNL     1      25.583   1.774  51.962  1.00  0.00     0.074 C 
HETATM   14  C13 UNL     1      26.131   2.450  50.808  1.00  0.00     0.030 C 
HETATM   15  C14 UNL     1      25.568   3.685  50.772  1.00  0.00     0.048 C 
HETATM   16  C15 UNL     1      24.143   3.728  51.312  1.00  0.00     0.350 C 
HETATM   17  C16 UNL     1      23.707   5.200  51.355  1.00  0.00     0.088 C 
HETATM   18  N6  UNL     1      24.214   3.390  52.750  1.00  0.00     0.068 NA
HETATM   19  C17 UNL     1      24.628   2.190  52.966  1.00  0.00     0.725 C 
HETATM   20  H14 UNL     1      19.136   0.990  53.053  1.00  0.00     0.159 HD
ENDROOT
BRANCH   1  21
HETATM   21  C4  UNL     1      23.536   3.331  49.130  1.00  0.00     0.306 C 
BRANCH  21  22
HETATM   22  C3  UNL     1      22.698   2.551  48.194  1.00  0.00     0.301 C 
BRANCH  22  23
HETATM   23  N1  UNL     1      21.603   3.341  47.632  1.00  0.00     0.081 N 
HETATM   24  C1  UNL     1      20.322   2.689  47.855  1.00  0.00     0.309 C 
HETATM   25  C2  UNL     1      21.806   3.619  46.226  1.00  0.00     0.309 C 
ENDBRANCH  22  23
ENDBRANCH  21  22
ENDBRANCH   1  21
TORSDOF 3
ENDMDL
MODEL 2
REMARK VINA RESULT:      -6.9      1.650      4.118
REMARK  3 active torsions:
REMARK  status: ('A' for Active; 'I' for Inactive)
REMARK    1  A    between atoms: N1_2  and  C3_4 
REMARK    2  A    between atoms: C3_4  and  C4_5 
REMARK    3  A    between atoms: C4_5  and  N2_6 
ROOT
HETATM    1  N2  UNL     1      23.279   2.955  49.918  1.00  0.00     0.136 NA
HETATM    2  C5  UNL     1      23.558   2.943  51.274  1.00  0.00     0.319 C 
HETATM    3  C6  UNL     1      23.739   1.720  52.051  1.00  0.00     0.027 A 
HETATM    4  C7  UNL     1      24.996   1.232  51.978  1.00  0.00     0.095 A 
HETATM    5  N3  UNL     1      25.597   0.092  52.555  1.00  0.00    -0.393 N 
HETATM    6  C8  UNL     1      24.832  -0.678  53.474  1.00  0.00     0.169 A 
HETATM    7  C9  UNL     1      23.450  -0.181  53.571  1.00  0.00     0.047 A 
HETATM    8 BR1  UNL     1      22.355  -1.199  54.710  1.00  0.00    -0.050 Br
HETATM    9  C10 UNL     1      22.932   0.851  52.973  1.00  0.00     0.132 A 
HETATM   10  N4  UNL     1      21.654   1.108  53.103  1.00  0.00    -0.398 NA
HETATM   11  C11 UNL     1      20.481   1.210  53.335  1.00  0.00     0.299 C 
HETATM   12  N5  UNL     1      20.279   2.320  52.466  1.00  0.00    -0.233 NA
HETATM   13  C12 UNL     1      20.606   2.310  51.196  1.00  0.00     0.074 C 
HETATM   14  C13 UNL     1      20.377   3.485  50.385  1.00  0.00     0.030 C 
HETATM   15  C14 UNL     1      20.955   3.249  49.180  1.00  0.00     0.048 C 
HETATM   16  C15 UNL     1      22.200   2.371  49.255  1.00  0.00     0.350 C 
HETATM   17  C16 UNL     1      22.639   2.065  47.815  1.00  0.00     0.088 C 
HETATM   18  N6  UNL     1      21.763   1.040  49.730  1.00  0.00     0.068 NA
HETATM   19  C17 UNL     1      21.286   1.063  50.925  1.00  0.00     0.725 C 
HETATM   20  H14 UNL     1      26.557  -0.250  52.375  1.00  0.00     0.159 HD
ENDROOT
BRANCH   1  21
HETATM   21  C4  UNL     1      23.327   4.365  49.461  1.00  0.00     0.306 C 
BRANCH  21  22
HETATM   22  C3  UNL     1      24.537   5.061  49.948  1.00  0.00     0.301 C 
BRANCH  22  23
HETATM   23  N1  UNL     1      25.652   4.971  49.006  1.00  0.00     0.081 N 
HETATM   24  C1  UNL     1      26.655   4.028  49.473  1.00  0.00     0.309 C 
HETATM   25  C2  UNL     1      26.239   6.268  48.743  1.00  0.00     0.309 C 
ENDBRANCH  22  23
ENDBRANCH  21  22
ENDBRANCH   1  21
TORSDOF 3
ENDMDL
MODEL 3
REMARK VINA RESULT:      -6.6      2.510      5.554
REMARK  3 active torsions:
REMARK  status: ('A' for Active; 'I' for Inactive)
REMARK    1  A    between atoms: N1_2  and  C3_4 
REMARK    2  A    between atoms: C3_4  and  C4_5 
REMARK    3  A    between atoms: C4_5  and  N2_6 
ROOT
HETATM    1  N2  UNL     1      23.741   0.993  51.989  1.00  0.00     0.136 NA
HETATM    2  C5  UNL     1      22.550   1.572  51.584  1.00  0.00     0.319 C 
HETATM    3  C6  UNL     1      22.358   2.196  50.278  1.00  0.00     0.027 A 
HETATM    4  C7  UNL     1      22.039   1.307  49.312  1.00  0.00     0.095 A 
HETATM    5  N3  UNL     1      21.777   1.470  47.934  1.00  0.00    -0.393 N 
HETATM    6  C8  UNL     1      21.722   2.792  47.413  1.00  0.00     0.169 A 
HETATM    7  C9  UNL     1      22.075   3.789  48.436  1.00  0.00     0.047 A 
HETATM    8 BR1  UNL     1      22.100   5.556  47.798  1.00  0.00    -0.050 Br
HETATM    9  C10 UNL     1      22.360   3.577  49.687  1.00  0.00     0.132 A 
HETATM   10  N4  UNL     1      22.739   4.574  50.448  1.00  0.00    -0.398 NA
HETATM   11  C11 UNL     1      23.054   5.588  51.007  1.00  0.00     0.299 C 
HETATM   12  N5  UNL     1      23.374   4.956  52.241  1.00  0.00    -0.233 NA
HETATM   13  C12 UNL     1      24.228   3.965  52.344  1.00  0.00     0.074 C 
HETATM   14  C13 UNL     1      24.489   3.370  53.635  1.00  0.00     0.030 C 
HETATM   15  C14 UNL     1      25.269   2.282  53.416  1.00  0.00     0.048 C 
HETATM   16  C15 UNL     1      24.999   1.588  52.085  1.00  0.00     0.350 C 
HETATM   17  C16 UNL     1      26.057   0.488  51.912  1.00  0.00     0.088 C 
HETATM   18  N6  UNL     1      25.373   2.540  51.017  1.00  0.00     0.068 NA
HETATM   19  C17 UNL     1      24.642   3.599  51.007  1.00  0.00     0.725 C 
HETATM   20  H14 UNL     1      21.619   0.711  47.248  1.00  0.00     0.159 HD
ENDROOT
BRANCH   1  21
HETATM   21  C4  UNL     1      23.499   0.332  53.293  1.00  0.00     0.306 C 
BRANCH  21  22
HETATM   22  C3  UNL     1      22.074   0.387  53.683  1.00  0.00     0.301 C 
BRANCH  22  23
HETATM   23  N1  UNL     1      21.736  -0.599  54.710  1.00  0.00     0.081 N 
HETATM   24  C1  UNL     1      22.932  -1.249  55.222  1.00  0.00     0.309 C 
HETATM   25  C2  UNL     1      20.781  -1.573  54.226  1.00  0.00     0.309 C 
ENDBRANCH  22  23
ENDBRANCH  21  22
ENDBRANCH   1  21
TORSDOF 3
ENDMDL
MODEL 4
REMARK VINA RESULT:      -6.4      2.876      6.291
REMARK  3 active torsions:
REMARK  status: ('A' for Active; 'I' for Inactive)
REMARK    1  A    between atoms: N1_2  and  C3_4 
REMARK    2  A    between atoms: C3_4  and  C4_5 
REMARK    3  A    between atoms: C4_5  and  N2_6 
ROOT
HETATM    1  N2  UNL     1      22.660   2.419  51.741  1.00  0.00     0.136 NA
HETATM    2  C5  UNL     1      23.678   3.098  51.093  1.00  0.00     0.319 C 
HETATM    3  C6  UNL     1      23.629   4.524  50.783  1.00  0.00     0.027 A 
HETATM    4  C7  UNL     1      24.022   5.300  51.816  1.00  0.00     0.095 A 
HETATM    5  N3  UNL     1      24.122   6.702  51.953  1.00  0.00    -0.393 N 
HETATM    6  C8  UNL     1      23.879   7.508  50.808  1.00  0.00     0.169 A 
HETATM    7  C9  UNL     1      23.437   6.696  49.663  1.00  0.00     0.047 A 
HETATM    8 BR1  UNL     1      23.020   7.703  48.132  1.00  0.00    -0.050 Br
HETATM    9  C10 UNL     1      23.312   5.403  49.607  1.00  0.00     0.132 A 
HETATM   10  N4  UNL     1      22.822   4.840  48.529  1.00  0.00    -0.398 NA
HETATM   11  C11 UNL     1      22.373   4.485  47.475  1.00  0.00     0.299 C 
HETATM   12  N5  UNL     1      22.291   3.109  47.831  1.00  0.00    -0.233 NA
HETATM   13  C12 UNL     1      21.653   2.676  48.892  1.00  0.00     0.074 C 
HETATM   14  C13 UNL     1      21.628   1.261  49.188  1.00  0.00     0.030 C 
HETATM   15  C14 UNL     1      21.051   1.126  50.409  1.00  0.00     0.048 C 
HETATM   16  C15 UNL     1      21.326   2.292  51.353  1.00  0.00     0.350 C 
HETATM   17  C16 UNL     1      20.484   2.073  52.619  1.00  0.00     0.088 C 
HETATM   18  N6  UNL     1      20.683   3.487  50.764  1.00  0.00     0.068 NA
HETATM   19  C17 UNL     1      21.197   3.829  49.634  1.00  0.00     0.725 C 
HETATM   20  H14 UNL     1      24.358   7.215  52.821  1.00  0.00     0.159 HD
ENDROOT
BRANCH   1  21
HETATM   21  C4  UNL     1      23.140   1.043  52.016  1.00  0.00     0.306 C 
BRANCH  21  22
HETATM   22  C3  UNL     1      24.161   1.020  53.086  1.00  0.00     0.301 C 
BRANCH  22  23
HETATM   23  N1  UNL     1      25.164  -0.023  52.878  1.00  0.00     0.081 N 
HETATM   24  C1  UNL     1      25.622  -0.567  54.147  1.00  0.00     0.309 C 
HETATM   25  C2  UNL     1      26.278   0.452  52.085  1.00  0.00     0.309 C 
ENDBRANCH  22  23
ENDBRANCH  21  22
ENDBRANCH   1  21
TORSDOF 3
ENDMDL
MODEL 5
REMARK VINA RESULT:      -6.3      4.115      7.097
REMARK  3 active torsions:
REMARK  status: ('A' for Active; 'I' for Inactive)
REMARK    1  A    between atoms: N1_2  and  C3_4 
REMARK    2  A    between atoms: C3_4  and  C4_5 
REMARK    3  A    between atoms: C4_5  and  N2_6 
ROOT
HETATM    1  N2  UNL     1      23.776   4.453  50.566  1.00  0.00     0.136 NA
HETATM    2  C5  UNL     1      24.259   4.621  49.280  1.00  0.00     0.319 C 
HETATM    3  C6  UNL     1      25.433   5.426  48.956  1.00  0.00     0.027 A 
HETATM    4  C7  UNL     1      26.592   4.748  49.103  1.00  0.00     0.095 A 
HETATM    5  N3  UNL     1      27.937   5.132  48.909  1.00  0.00    -0.393 N 
HETATM    6  C8  UNL     1      28.195   6.420  48.364  1.00  0.00     0.169 A 
HETATM    7  C9  UNL     1      26.954   7.193  48.200  1.00  0.00     0.047 A 
HETATM    8 BR1  UNL     1      27.225   8.938  47.556  1.00  0.00    -0.050 Br
HETATM    9  C10 UNL     1      25.737   6.805  48.445  1.00  0.00     0.132 A 
HETATM   10  N4  UNL     1      24.745   7.653  48.325  1.00  0.00    -0.398 NA
HETATM   11  C11 UNL     1      23.955   8.540  48.155  1.00  0.00     0.299 C 
HETATM   12  N5  UNL     1      22.830   7.793  48.604  1.00  0.00    -0.233 NA
HETATM   13  C12 UNL     1      22.776   7.205  49.776  1.00  0.00     0.074 C 
HETATM   14  C13 UNL     1      21.598   6.455  50.151  1.00  0.00     0.030 C 
HETATM   15  C14 UNL     1      21.887   5.830  51.321  1.00  0.00     0.048 C 
HETATM   16  C15 UNL     1      23.353   5.435  51.463  1.00  0.00     0.350 C 
HETATM   17  C16 UNL     1      23.552   4.892  52.886  1.00  0.00     0.088 C 
HETATM   18  N6  UNL     1      24.138   6.688  51.502  1.00  0.00     0.068 NA
HETATM   19  C17 UNL     1      24.067   7.361  50.408  1.00  0.00     0.725 C 
HETATM   20  H14 UNL     1      28.773   4.563  49.128  1.00  0.00     0.159 HD
ENDROOT
BRANCH   1  21
HETATM   21  C4  UNL     1      22.684   3.451  50.510  1.00  0.00     0.306 C 
BRANCH  21  22
HETATM   22  C3  UNL     1      23.206   2.072  50.400  1.00  0.00     0.301 C 
BRANCH  22  23
HETATM   23  N1  UNL     1      22.832   1.239  51.542  1.00  0.00     0.081 N 
HETATM   24  C1  UNL     1      21.650   1.765  52.206  1.00  0.00     0.309 C 
HETATM   25  C2  UNL     1      23.927   1.084  52.476  1.00  0.00     0.309 C 
ENDBRANCH  22  23
ENDBRANCH  21  22
ENDBRANCH   1  21
TORSDOF 3
ENDMDL
MODEL 6
REMARK VINA RESULT:      -6.2      2.008      4.452
REMARK  3 active torsions:
REMARK  status: ('A' for Active; 'I' for Inactive)
REMARK    1  A    between atoms: N1_2  and  C3_4 
REMARK    2  A    between atoms: C3_4  and  C4_5 
REMARK    3  A    between atoms: C4_5  and  N2_6 
ROOT
HETATM    1  N2  UNL     1      22.726   3.984  49.613  1.00  0.00     0.136 NA
HETATM    2  C5  UNL     1      23.353   4.001  50.848  1.00  0.00     0.319 C 
HETATM    3  C6  UNL     1      24.272   2.960  51.302  1.00  0.00     0.027 A 
HETATM    4  C7  UNL     1      25.536   3.148  50.865  1.00  0.00     0.095 A 
HETATM    5  N3  UNL     1      26.717   2.399  51.056  1.00  0.00    -0.393 N 
HETATM    6  C8  UNL     1      26.671   1.285  51.939  1.00  0.00     0.169 A 
HETATM    7  C9  UNL     1      25.304   1.043  52.427  1.00  0.00     0.047 A 
HETATM    8 BR1  UNL     1      25.150  -0.464  53.539  1.00  0.00    -0.050 Br
HETATM    9  C10 UNL     1      24.235   1.739  52.176  1.00  0.00     0.132 A 
HETATM   10  N4  UNL     1      23.072   1.335  52.624  1.00  0.00    -0.398 NA
HETATM   11  C11 UNL     1      22.096   0.839  53.115  1.00  0.00     0.299 C 
HETATM   12  N5  UNL     1      21.184   1.778  52.555  1.00  0.00    -0.233 NA
HETATM   13  C12 UNL     1      21.105   2.028  51.270  1.00  0.00     0.074 C 
HETATM   14  C13 UNL     1      20.158   3.006  50.784  1.00  0.00     0.030 C 
HETATM   15  C14 UNL     1      20.412   3.175  49.461  1.00  0.00     0.048 C 
HETATM   16  C15 UNL     1      21.881   3.006  49.089  1.00  0.00     0.350 C 
HETATM   17  C16 UNL     1      21.982   3.064  47.558  1.00  0.00     0.088 C 
HETATM   18  N6  UNL     1      22.237   1.596  49.364  1.00  0.00     0.068 NA
HETATM   19  C17 UNL     1      22.161   1.291  50.612  1.00  0.00     0.725 C 
HETATM   20  H14 UNL     1      27.634   2.579  50.610  1.00  0.00     0.159 HD
ENDROOT
BRANCH   1  21
HETATM   21  C4  UNL     1      22.009   5.272  49.455  1.00  0.00     0.306 C 
BRANCH  21  22
HETATM   22  C3  UNL     1      22.931   6.376  49.108  1.00  0.00     0.301 C 
BRANCH  22  23
HETATM   23  N1  UNL     1      22.744   7.549  49.960  1.00  0.00     0.081 N 
HETATM   24  C1  UNL     1      23.890   7.747  50.833  1.00  0.00     0.309 C 
HETATM   25  C2  UNL     1      21.517   7.470  50.723  1.00  0.00     0.309 C 
ENDBRANCH  22  23
ENDBRANCH  21  22
ENDBRANCH   1  21
TORSDOF 3
ENDMDL
MODEL 7
REMARK VINA RESULT:      -6.1      9.060     11.427
REMARK  3 active torsions:
REMARK  status: ('A' for Active; 'I' for Inactive)
REMARK    1  A    between atoms: N1_2  and  C3_4 
REMARK    2  A    between atoms: C3_4  and  C4_5 
REMARK    3  A    between atoms: C4_5  and  N2_6 
ROOT
HETATM    1  N2  UNL     1      33.230   6.930  47.053  1.00  0.00     0.136 NA
HETATM    2  C5  UNL     1      32.077   7.529  46.574  1.00  0.00     0.319 C 
HETATM    3  C6  UNL     1      31.206   8.372  47.388  1.00  0.00     0.027 A 
HETATM    4  C7  UNL     1      31.624   9.654  47.450  1.00  0.00     0.095 A 
HETATM    5  N3  UNL     1      31.097  10.783  48.115  1.00  0.00    -0.393 N 
HETATM    6  C8  UNL     1      29.848  10.649  48.781  1.00  0.00     0.169 A 
HETATM    7  C9  UNL     1      29.366   9.259  48.743  1.00  0.00     0.047 A 
HETATM    8 BR1  UNL     1      27.754   8.988  49.672  1.00  0.00    -0.050 Br
HETATM    9  C10 UNL     1      29.921   8.241  48.156  1.00  0.00     0.132 A 
HETATM   10  N4  UNL     1      29.402   7.045  48.292  1.00  0.00    -0.398 NA
HETATM   11  C11 UNL     1      28.799   6.030  48.505  1.00  0.00     0.299 C 
HETATM   12  N5  UNL     1      29.726   5.190  47.826  1.00  0.00    -0.233 NA
HETATM   13  C12 UNL     1      31.008   5.156  48.106  1.00  0.00     0.074 C 
HETATM   14  C13 UNL     1      31.884   4.281  47.360  1.00  0.00     0.030 C 
HETATM   15  C14 UNL     1      33.152   4.575  47.746  1.00  0.00     0.048 C 
HETATM   16  C15 UNL     1      33.360   6.039  48.118  1.00  0.00     0.350 C 
HETATM   17  C16 UNL     1      34.782   6.178  48.680  1.00  0.00     0.088 C 
HETATM   18  N6  UNL     1      32.532   6.303  49.315  1.00  0.00     0.068 NA
HETATM   19  C17 UNL     1      31.271   6.179  49.093  1.00  0.00     0.725 C 
HETATM   20  H14 UNL     1      31.536  11.719  48.172  1.00  0.00     0.159 HD
ENDROOT
BRANCH   1  21
HETATM   21  C4  UNL     1      33.919   6.297  45.903  1.00  0.00     0.306 C 
BRANCH  21  22
HETATM   22  C3  UNL     1      33.129   6.407  44.658  1.00  0.00     0.301 C 
BRANCH  22  23
HETATM   23  N1  UNL     1      33.228   5.210  43.824  1.00  0.00     0.081 N 
HETATM   24  C1  UNL     1      34.419   4.443  44.153  1.00  0.00     0.309 C 
HETATM   25  C2  UNL     1      33.191   5.533  42.414  1.00  0.00     0.309 C 
ENDBRANCH  22  23
ENDBRANCH  21  22
ENDBRANCH   1  21
TORSDOF 3
ENDMDL
MODEL 8
REMARK VINA RESULT:      -6.0      9.863     12.274
REMARK  3 active torsions:
REMARK  status: ('A' for Active; 'I' for Inactive)
REMARK    1  A    between atoms: N1_2  and  C3_4 
REMARK    2  A    between atoms: C3_4  and  C4_5 
REMARK    3  A    between atoms: C4_5  and  N2_6 
ROOT
HETATM    1  N2  UNL     1      30.663   8.199  46.482  1.00  0.00     0.136 NA
HETATM    2  C5  UNL     1      31.953   8.181  45.977  1.00  0.00     0.319 C 
HETATM    3  C6  UNL     1      32.573   6.997  45.389  1.00  0.00     0.027 A 
HETATM    4  C7  UNL     1      32.260   6.832  44.086  1.00  0.00     0.095 A 
HETATM    5  N3  UNL     1      32.627   5.840  43.150  1.00  0.00    -0.393 N 
HETATM    6  C8  UNL     1      33.577   4.860  43.547  1.00  0.00     0.169 A 
HETATM    7  C9  UNL     1      33.935   5.003  44.967  1.00  0.00     0.047 A 
HETATM    8 BR1  UNL     1      35.129   3.690  45.586  1.00  0.00    -0.050 Br
HETATM    9  C10 UNL     1      33.523   5.910  45.803  1.00  0.00     0.132 A 
HETATM   10  N4  UNL     1      33.875   5.843  47.064  1.00  0.00    -0.398 NA
HETATM   11  C11 UNL     1      34.295   5.647  48.171  1.00  0.00     0.299 C 
HETATM   12  N5  UNL     1      33.577   6.721  48.769  1.00  0.00    -0.233 NA
HETATM   13  C12 UNL     1      32.276   6.859  48.674  1.00  0.00     0.074 C 
HETATM   14  C13 UNL     1      31.624   7.987  49.302  1.00  0.00     0.030 C 
HETATM   15  C14 UNL     1      30.327   7.963  48.904  1.00  0.00     0.048 C 
HETATM   16  C15 UNL     1      30.125   7.409  47.498  1.00  0.00     0.350 C 
HETATM   17  C16 UNL     1      28.612   7.296  47.256  1.00  0.00     0.088 C 
HETATM   18  N6  UNL     1      30.534   5.988  47.529  1.00  0.00     0.068 NA
HETATM   19  C17 UNL     1      31.786   5.830  47.784  1.00  0.00     0.725 C 
HETATM   20  H14 UNL     1      32.268   5.750  42.183  1.00  0.00     0.159 HD
ENDROOT
BRANCH   1  21
HETATM   21  C4  UNL     1      30.339   9.601  46.838  1.00  0.00     0.306 C 
BRANCH  21  22
HETATM   22  C3  UNL     1      31.197  10.565  46.116  1.00  0.00     0.301 C 
BRANCH  22  23
HETATM   23  N1  UNL     1      31.733  11.605  46.994  1.00  0.00     0.081 N 
HETATM   24  C1  UNL     1      33.173  11.471  47.143  1.00  0.00     0.309 C 
HETATM   25  C2  UNL     1      31.076  11.610  48.284  1.00  0.00     0.309 C 
ENDBRANCH  22  23
ENDBRANCH  21  22
ENDBRANCH   1  21
TORSDOF 3
ENDMDL
MODEL 9
REMARK VINA RESULT:      -6.0      8.685     11.234
REMARK  3 active torsions:
REMARK  status: ('A' for Active; 'I' for Inactive)
REMARK    1  A    between atoms: N1_2  and  C3_4 
REMARK    2  A    between atoms: C3_4  and  C4_5 
REMARK    3  A    between atoms: C4_5  and  N2_6 
ROOT
HETATM    1  N2  UNL     1      31.887   6.971  46.800  1.00  0.00     0.136 NA
HETATM    2  C5  UNL     1      31.317   6.916  48.061  1.00  0.00     0.319 C 
HETATM    3  C6  UNL     1      29.879   6.993  48.301  1.00  0.00     0.027 A 
HETATM    4  C7  UNL     1      29.260   5.800  48.173  1.00  0.00     0.095 A 
HETATM    5  N3  UNL     1      27.906   5.424  48.310  1.00  0.00    -0.393 N 
HETATM    6  C8  UNL     1      26.979   6.404  48.760  1.00  0.00     0.169 A 
HETATM    7  C9  UNL     1      27.617   7.723  48.900  1.00  0.00     0.047 A 
HETATM    8 BR1  UNL     1      26.433   9.088  49.417  1.00  0.00    -0.050 Br
HETATM    9  C10 UNL     1      28.867   8.025  48.710  1.00  0.00     0.132 A 
HETATM   10  N4  UNL     1      29.257   9.273  48.796  1.00  0.00    -0.398 NA
HETATM   11  C11 UNL     1      29.451  10.450  48.924  1.00  0.00     0.299 C 
HETATM   12  N5  UNL     1      30.824  10.392  48.552  1.00  0.00    -0.233 NA
HETATM   13  C12 UNL     1      31.244   9.868  47.425  1.00  0.00     0.074 C 
HETATM   14  C13 UNL     1      32.659   9.837  47.129  1.00  0.00     0.030 C 
HETATM   15  C14 UNL     1      32.808   9.102  45.998  1.00  0.00     0.048 C 
HETATM   16  C15 UNL     1      31.780   7.986  45.849  1.00  0.00     0.350 C 
HETATM   17  C16 UNL     1      31.975   7.357  44.461  1.00  0.00     0.088 C 
HETATM   18  N6  UNL     1      30.457   8.632  45.706  1.00  0.00     0.068 NA
HETATM   19  C17 UNL     1      30.102   9.290  46.754  1.00  0.00     0.725 C 
HETATM   20  H14 UNL     1      27.508   4.489  48.111  1.00  0.00     0.159 HD
ENDROOT
BRANCH   1  21
HETATM   21  C4  UNL     1      33.337   6.701  46.949  1.00  0.00     0.306 C 
BRANCH  21  22
HETATM   22  C3  UNL     1      33.644   5.259  46.831  1.00  0.00     0.301 C 
BRANCH  22  23
HETATM   23  N1  UNL     1      34.157   4.693  48.078  1.00  0.00     0.081 N 
HETATM   24  C1  UNL     1      35.073   5.614  48.732  1.00  0.00     0.309 C 
HETATM   25  C2  UNL     1      34.781   3.404  47.866  1.00  0.00     0.309 C 
ENDBRANCH  22  23
ENDBRANCH  21  22
ENDBRANCH   1  21
TORSDOF 3
ENDMDL
