MODEL 1
REMARK VINA RESULT:      -9.4      0.000      0.000
REMARK  5 active torsions:
REMARK  status: ('A' for Active; 'I' for Inactive)
REMARK    1  A    between atoms: O1_2  and  C2_3 
REMARK    2  A    between atoms: C6_7  and  C7_8 
REMARK    3  A    between atoms: C8_9  and  C9_10 
REMARK       I    between atoms: C9_10  and  N1_12 
REMARK    4  A    between atoms: N1_12  and  C10_13 
REMARK    5  A    between atoms: C15_20  and  N4_21 
ROOT
HETATM    1  C10 UNL     1      23.558   2.358  51.749  1.00  0.00     0.036 A 
HETATM    2  C11 UNL     1      22.192   2.413  51.883  1.00  0.00     0.032 A 
HETATM    3  C12 UNL     1      21.504   1.566  52.711  1.00  0.00     0.035 A 
HETATM    4  C13 UNL     1      22.151   0.607  53.459  1.00  0.00     0.072 A 
HETATM    5  N2  UNL     1      21.495  -0.234  54.291  1.00  0.00    -0.241 NA
HETATM    6  C14 UNL     1      22.181  -1.129  54.988  1.00  0.00     0.236 A 
HETATM    7  N3  UNL     1      23.522  -1.241  54.905  1.00  0.00    -0.223 NA
HETATM    8  C15 UNL     1      24.246  -0.445  54.103  1.00  0.00     0.147 A 
HETATM    9  C21 UNL     1      23.543   0.498  53.367  1.00  0.00     0.041 A 
HETATM   10  C22 UNL     1      24.171   1.392  52.505  1.00  0.00     0.047 A 
ENDROOT
BRANCH   1  11
HETATM   11  N1  UNL     1      24.246   3.255  50.891  1.00  0.00    -0.324 N 
HETATM   12  C9  UNL     1      24.198   3.533  49.501  1.00  0.00     0.245 C 
HETATM   13  O2  UNL     1      23.355   2.832  48.891  1.00  0.00    -0.268 OA
HETATM   14  H9  UNL     1      24.967   3.865  51.394  1.00  0.00     0.169 HD
BRANCH  12  15
HETATM   15  C8  UNL     1      25.066   4.538  48.912  1.00  0.00     0.075 C 
HETATM   16  C7  UNL     1      26.259   5.004  49.238  1.00  0.00     0.017 C 
BRANCH  16  17
HETATM   17  C6  UNL     1      26.946   6.024  48.494  1.00  0.00    -0.033 A 
HETATM   18  C5  UNL     1      26.342   7.143  47.971  1.00  0.00     0.011 A 
HETATM   19  C4  UNL     1      27.018   8.131  47.250  1.00  0.00     0.004 A 
HETATM   20  C3  UNL     1      28.371   7.986  47.044  1.00  0.00     0.037 A 
HETATM   21  C2  UNL     1      28.972   6.871  47.565  1.00  0.00     0.069 A 
HETATM   22  C23 UNL     1      28.316   5.877  48.286  1.00  0.00     0.048 A 
BRANCH  21  23
HETATM   23  O1  UNL     1      30.333   6.583  47.441  1.00  0.00    -0.356 OA
HETATM   24  C1  UNL     1      30.977   5.908  48.495  1.00  0.00     0.210 C 
ENDBRANCH  21  23
ENDBRANCH  16  17
ENDBRANCH  12  15
ENDBRANCH   1  11
BRANCH   8  25
HETATM   25  N4  UNL     1      25.648  -0.492  53.952  1.00  0.00    -0.316 N 
HETATM   26  C16 UNL     1      25.969  -1.556  53.045  1.00  0.00     0.094 A 
HETATM   27  C17 UNL     1      27.204  -1.856  52.688  1.00  0.00    -0.004 A 
HETATM   28  C18 UNL     1      28.378  -1.110  53.199  1.00  0.00     0.081 A 
HETATM   29  C19 UNL     1      27.970  -0.036  54.122  1.00  0.00     0.031 A 
HETATM   30 CL1  UNL     1      29.210   0.967  54.838  1.00  0.00    -0.087 Cl
HETATM   31  C20 UNL     1      26.744   0.266  54.481  1.00  0.00     0.117 A 
ENDBRANCH   8  25
TORSDOF 5
ENDMDL
MODEL 2
REMARK VINA RESULT:      -9.3      4.326      9.768
REMARK  5 active torsions:
REMARK  status: ('A' for Active; 'I' for Inactive)
REMARK    1  A    between atoms: O1_2  and  C2_3 
REMARK    2  A    between atoms: C6_7  and  C7_8 
REMARK    3  A    between atoms: C8_9  and  C9_10 
REMARK       I    between atoms: C9_10  and  N1_12 
REMARK    4  A    between atoms: N1_12  and  C10_13 
REMARK    5  A    between atoms: C15_20  and  N4_21 
ROOT
HETATM    1  C10 UNL     1      28.575   5.741  48.376  1.00  0.00     0.036 A 
HETATM    2  C11 UNL     1      27.967   6.941  48.094  1.00  0.00     0.032 A 
HETATM    3  C12 UNL     1      28.591   7.925  47.374  1.00  0.00     0.035 A 
HETATM    4  C13 UNL     1      29.871   7.763  46.891  1.00  0.00     0.072 A 
HETATM    5  N2  UNL     1      30.504   8.717  46.170  1.00  0.00    -0.241 NA
HETATM    6  C14 UNL     1      31.733   8.492  45.729  1.00  0.00     0.236 A 
HETATM    7  N3  UNL     1      32.391   7.340  45.969  1.00  0.00    -0.223 NA
HETATM    8  C15 UNL     1      31.834   6.345  46.676  1.00  0.00     0.147 A 
HETATM    9  C21 UNL     1      30.547   6.565  47.145  1.00  0.00     0.041 A 
HETATM   10  C22 UNL     1      29.848   5.613  47.882  1.00  0.00     0.047 A 
ENDROOT
BRANCH   1  11
HETATM   11  N1  UNL     1      27.901   4.734  49.115  1.00  0.00    -0.324 N 
HETATM   12  C9  UNL     1      26.538   4.422  49.353  1.00  0.00     0.245 C 
HETATM   13  O2  UNL     1      25.749   5.210  48.777  1.00  0.00    -0.268 OA
HETATM   14  H9  UNL     1      28.558   4.050  49.610  1.00  0.00     0.169 HD
BRANCH  12  15
HETATM   15  C8  UNL     1      26.167   3.294  50.188  1.00  0.00     0.075 C 
HETATM   16  C7  UNL     1      26.738   2.715  51.230  1.00  0.00     0.017 C 
BRANCH  16  17
HETATM   17  C6  UNL     1      26.180   1.583  51.917  1.00  0.00    -0.033 A 
HETATM   18  C5  UNL     1      24.846   1.438  52.218  1.00  0.00     0.011 A 
HETATM   19  C4  UNL     1      24.312   0.334  52.886  1.00  0.00     0.004 A 
HETATM   20  C3  UNL     1      25.162  -0.678  53.272  1.00  0.00     0.037 A 
HETATM   21  C2  UNL     1      26.491  -0.532  52.973  1.00  0.00     0.069 A 
HETATM   22  C23 UNL     1      27.042   0.560  52.309  1.00  0.00     0.048 A 
BRANCH  21  23
HETATM   23  O1  UNL     1      27.475  -1.468  53.298  1.00  0.00    -0.356 OA
HETATM   24  C1  UNL     1      28.813  -1.038  53.376  1.00  0.00     0.210 C 
ENDBRANCH  21  23
ENDBRANCH  16  17
ENDBRANCH  12  15
ENDBRANCH   1  11
BRANCH   8  25
HETATM   25  N4  UNL     1      32.447   5.110  46.977  1.00  0.00    -0.316 N 
HETATM   26  C16 UNL     1      33.692   5.374  47.638  1.00  0.00     0.094 A 
HETATM   27  C17 UNL     1      34.505   4.421  48.058  1.00  0.00    -0.004 A 
HETATM   28  C18 UNL     1      34.195   2.983  47.880  1.00  0.00     0.081 A 
HETATM   29  C19 UNL     1      32.904   2.793  47.194  1.00  0.00     0.031 A 
HETATM   30 CL1  UNL     1      32.353   1.162  46.888  1.00  0.00    -0.087 Cl
HETATM   31  C20 UNL     1      32.093   3.736  46.775  1.00  0.00     0.117 A 
ENDBRANCH   8  25
TORSDOF 5
ENDMDL
MODEL 3
REMARK VINA RESULT:      -9.0      1.498      2.114
REMARK  5 active torsions:
REMARK  status: ('A' for Active; 'I' for Inactive)
REMARK    1  A    between atoms: O1_2  and  C2_3 
REMARK    2  A    between atoms: C6_7  and  C7_8 
REMARK    3  A    between atoms: C8_9  and  C9_10 
REMARK       I    between atoms: C9_10  and  N1_12 
REMARK    4  A    between atoms: N1_12  and  C10_13 
REMARK    5  A    between atoms: C15_20  and  N4_21 
ROOT
HETATM    1  C10 UNL     1      24.104   2.639  51.173  1.00  0.00     0.036 A 
HETATM    2  C11 UNL     1      22.734   2.741  51.142  1.00  0.00     0.032 A 
HETATM    3  C12 UNL     1      21.924   1.939  51.903  1.00  0.00     0.035 A 
HETATM    4  C13 UNL     1      22.445   0.982  52.746  1.00  0.00     0.072 A 
HETATM    5  N2  UNL     1      21.666   0.186  53.513  1.00  0.00    -0.241 NA
HETATM    6  C14 UNL     1      22.233  -0.710  54.308  1.00  0.00     0.236 A 
HETATM    7  N3  UNL     1      23.570  -0.867  54.388  1.00  0.00    -0.223 NA
HETATM    8  C15 UNL     1      24.411  -0.117  53.660  1.00  0.00     0.147 A 
HETATM    9  C21 UNL     1      23.833   0.826  52.822  1.00  0.00     0.041 A 
HETATM   10  C22 UNL     1      24.589   1.675  52.020  1.00  0.00     0.047 A 
ENDROOT
BRANCH   1  11
HETATM   11  N1  UNL     1      24.919   3.489  50.382  1.00  0.00    -0.324 N 
HETATM   12  C9  UNL     1      26.286   3.483  50.003  1.00  0.00     0.245 C 
HETATM   13  O2  UNL     1      26.917   2.503  50.467  1.00  0.00    -0.268 OA
HETATM   14  H9  UNL     1      24.397   4.329  49.974  1.00  0.00     0.169 HD
BRANCH  12  15
HETATM   15  C8  UNL     1      26.831   4.536  49.163  1.00  0.00     0.075 C 
HETATM   16  C7  UNL     1      26.495   5.798  48.966  1.00  0.00     0.017 C 
BRANCH  16  17
HETATM   17  C6  UNL     1      27.191   6.677  48.067  1.00  0.00    -0.033 A 
HETATM   18  C5  UNL     1      28.540   6.611  47.806  1.00  0.00     0.011 A 
HETATM   19  C4  UNL     1      29.209   7.469  46.930  1.00  0.00     0.004 A 
HETATM   20  C3  UNL     1      28.486   8.445  46.282  1.00  0.00     0.037 A 
HETATM   21  C2  UNL     1      27.142   8.510  46.543  1.00  0.00     0.069 A 
HETATM   22  C23 UNL     1      26.458   7.665  47.412  1.00  0.00     0.048 A 
BRANCH  21  23
HETATM   23  O1  UNL     1      26.276   9.441  45.966  1.00  0.00    -0.356 OA
HETATM   24  C1  UNL     1      26.826  10.590  45.367  1.00  0.00     0.210 C 
ENDBRANCH  21  23
ENDBRANCH  16  17
ENDBRANCH  12  15
ENDBRANCH   1  11
BRANCH   8  25
HETATM   25  N4  UNL     1      25.819  -0.214  53.677  1.00  0.00    -0.316 N 
HETATM   26  C16 UNL     1      26.200  -1.392  52.953  1.00  0.00     0.094 A 
HETATM   27  C17 UNL     1      27.456  -1.761  52.781  1.00  0.00    -0.004 A 
HETATM   28  C18 UNL     1      28.591  -0.980  53.326  1.00  0.00     0.081 A 
HETATM   29  C19 UNL     1      28.122   0.212  54.054  1.00  0.00     0.031 A 
HETATM   30 CL1  UNL     1      29.310   1.272  54.776  1.00  0.00    -0.087 Cl
HETATM   31  C20 UNL     1      26.875   0.583  54.229  1.00  0.00     0.117 A 
ENDBRANCH   8  25
TORSDOF 5
ENDMDL
MODEL 4
REMARK VINA RESULT:      -8.9      4.258      9.562
REMARK  5 active torsions:
REMARK  status: ('A' for Active; 'I' for Inactive)
REMARK    1  A    between atoms: O1_2  and  C2_3 
REMARK    2  A    between atoms: C6_7  and  C7_8 
REMARK    3  A    between atoms: C8_9  and  C9_10 
REMARK       I    between atoms: C9_10  and  N1_12 
REMARK    4  A    between atoms: N1_12  and  C10_13 
REMARK    5  A    between atoms: C15_20  and  N4_21 
ROOT
HETATM    1  C10 UNL     1      24.337  -0.226  53.959  1.00  0.00     0.036 A 
HETATM    2  C11 UNL     1      25.149  -0.842  54.881  1.00  0.00     0.032 A 
HETATM    3  C12 UNL     1      26.455  -0.474  55.066  1.00  0.00     0.035 A 
HETATM    4  C13 UNL     1      27.028   0.541  54.332  1.00  0.00     0.072 A 
HETATM    5  N2  UNL     1      28.313   0.928  54.504  1.00  0.00    -0.241 NA
HETATM    6  C14 UNL     1      28.800   1.918  53.769  1.00  0.00     0.236 A 
HETATM    7  N3  UNL     1      28.062   2.566  52.845  1.00  0.00    -0.223 NA
HETATM    8  C15 UNL     1      26.781   2.242  52.614  1.00  0.00     0.147 A 
HETATM    9  C21 UNL     1      26.256   1.208  53.376  1.00  0.00     0.041 A 
HETATM   10  C22 UNL     1      24.940   0.778  53.245  1.00  0.00     0.047 A 
ENDROOT
BRANCH   1  11
HETATM   11  N1  UNL     1      22.984  -0.621  53.796  1.00  0.00    -0.324 N 
HETATM   12  C9  UNL     1      22.060  -1.349  54.588  1.00  0.00     0.245 C 
HETATM   13  O2  UNL     1      22.545  -1.725  55.682  1.00  0.00    -0.268 OA
HETATM   14  H9  UNL     1      22.552  -0.305  52.870  1.00  0.00     0.169 HD
BRANCH  12  15
HETATM   15  C8  UNL     1      20.708  -1.596  54.117  1.00  0.00     0.075 C 
HETATM   16  C7  UNL     1      19.779  -0.818  53.590  1.00  0.00     0.017 C 
BRANCH  16  17
HETATM   17  C6  UNL     1      18.482  -1.287  53.188  1.00  0.00    -0.033 A 
HETATM   18  C5  UNL     1      17.934  -2.486  53.580  1.00  0.00     0.011 A 
HETATM   19  C4  UNL     1      16.671  -2.934  53.185  1.00  0.00     0.004 A 
HETATM   20  C3  UNL     1      15.919  -2.136  52.353  1.00  0.00     0.037 A 
HETATM   21  C2  UNL     1      16.466  -0.942  51.962  1.00  0.00     0.069 A 
HETATM   22  C23 UNL     1      17.721  -0.479  52.345  1.00  0.00     0.048 A 
BRANCH  21  23
HETATM   23  O1  UNL     1      15.829  -0.026  51.122  1.00  0.00    -0.356 OA
HETATM   24  C1  UNL     1      14.648   0.592  51.574  1.00  0.00     0.210 C 
ENDBRANCH  21  23
ENDBRANCH  16  17
ENDBRANCH  12  15
ENDBRANCH   1  11
BRANCH   8  25
HETATM   25  N4  UNL     1      25.937   2.862  51.668  1.00  0.00    -0.316 N 
HETATM   26  C16 UNL     1      26.671   3.027  50.447  1.00  0.00     0.094 A 
HETATM   27  C17 UNL     1      26.156   3.572  49.360  1.00  0.00    -0.004 A 
HETATM   28  C18 UNL     1      24.760   4.065  49.310  1.00  0.00     0.081 A 
HETATM   29  C19 UNL     1      24.072   3.864  50.597  1.00  0.00     0.031 A 
HETATM   30 CL1  UNL     1      22.408   4.379  50.747  1.00  0.00    -0.087 Cl
HETATM   31  C20 UNL     1      24.579   3.323  51.680  1.00  0.00     0.117 A 
ENDBRANCH   8  25
TORSDOF 5
ENDMDL
MODEL 5
REMARK VINA RESULT:      -8.8      2.366      4.456
REMARK  5 active torsions:
REMARK  status: ('A' for Active; 'I' for Inactive)
REMARK    1  A    between atoms: O1_2  and  C2_3 
REMARK    2  A    between atoms: C6_7  and  C7_8 
REMARK    3  A    between atoms: C8_9  and  C9_10 
REMARK       I    between atoms: C9_10  and  N1_12 
REMARK    4  A    between atoms: N1_12  and  C10_13 
REMARK    5  A    between atoms: C15_20  and  N4_21 
ROOT
HETATM    1  C10 UNL     1      25.188   1.507  52.008  1.00  0.00     0.036 A 
HETATM    2  C11 UNL     1      25.778   0.434  52.632  1.00  0.00     0.032 A 
HETATM    3  C12 UNL     1      25.067  -0.437  53.415  1.00  0.00     0.035 A 
HETATM    4  C13 UNL     1      23.714  -0.282  53.619  1.00  0.00     0.072 A 
HETATM    5  N2  UNL     1      22.989  -1.135  54.379  1.00  0.00    -0.241 NA
HETATM    6  C14 UNL     1      21.688  -0.931  54.528  1.00  0.00     0.236 A 
HETATM    7  N3  UNL     1      21.044   0.101  53.947  1.00  0.00    -0.223 NA
HETATM    8  C15 UNL     1      21.690   0.991  53.178  1.00  0.00     0.147 A 
HETATM    9  C21 UNL     1      23.053   0.792  53.013  1.00  0.00     0.041 A 
HETATM   10  C22 UNL     1      23.841   1.633  52.234  1.00  0.00     0.047 A 
ENDROOT
BRANCH   1  11
HETATM   11  N1  UNL     1      25.947   2.388  51.195  1.00  0.00    -0.324 N 
HETATM   12  C9  UNL     1      25.662   3.176  50.050  1.00  0.00     0.245 C 
HETATM   13  O2  UNL     1      24.469   3.076  49.673  1.00  0.00    -0.268 OA
HETATM   14  H9  UNL     1      26.966   2.489  51.503  1.00  0.00     0.169 HD
BRANCH  12  15
HETATM   15  C8  UNL     1      26.693   3.988  49.429  1.00  0.00     0.075 C 
HETATM   16  C7  UNL     1      26.695   5.202  48.907  1.00  0.00     0.017 C 
BRANCH  16  17
HETATM   17  C6  UNL     1      27.858   5.822  48.335  1.00  0.00    -0.033 A 
HETATM   18  C5  UNL     1      27.851   7.034  47.685  1.00  0.00     0.011 A 
HETATM   19  C4  UNL     1      28.986   7.631  47.132  1.00  0.00     0.004 A 
HETATM   20  C3  UNL     1      30.193   6.976  47.237  1.00  0.00     0.037 A 
HETATM   21  C2  UNL     1      30.199   5.768  47.884  1.00  0.00     0.069 A 
HETATM   22  C23 UNL     1      29.079   5.158  48.441  1.00  0.00     0.048 A 
BRANCH  21  23
HETATM   23  O1  UNL     1      31.340   4.985  48.072  1.00  0.00    -0.356 OA
HETATM   24  C1  UNL     1      32.481   5.585  48.637  1.00  0.00     0.210 C 
ENDBRANCH  21  23
ENDBRANCH  16  17
ENDBRANCH  12  15
ENDBRANCH   1  11
BRANCH   8  25
HETATM   25  N4  UNL     1      21.100   2.100  52.535  1.00  0.00    -0.316 N 
HETATM   26  C16 UNL     1      19.749   1.759  52.196  1.00  0.00     0.094 A 
HETATM   27  C17 UNL     1      18.923   2.590  51.588  1.00  0.00    -0.004 A 
HETATM   28  C18 UNL     1      19.326   3.962  51.201  1.00  0.00     0.081 A 
HETATM   29  C19 UNL     1      20.723   4.238  51.580  1.00  0.00     0.031 A 
HETATM   30 CL1  UNL     1      21.395   5.809  51.211  1.00  0.00    -0.087 Cl
HETATM   31  C20 UNL     1      21.548   3.415  52.184  1.00  0.00     0.117 A 
ENDBRANCH   8  25
TORSDOF 5
ENDMDL
MODEL 6
REMARK VINA RESULT:      -8.8      2.309      4.068
REMARK  5 active torsions:
REMARK  status: ('A' for Active; 'I' for Inactive)
REMARK    1  A    between atoms: O1_2  and  C2_3 
REMARK    2  A    between atoms: C6_7  and  C7_8 
REMARK    3  A    between atoms: C8_9  and  C9_10 
REMARK       I    between atoms: C9_10  and  N1_12 
REMARK    4  A    between atoms: N1_12  and  C10_13 
REMARK    5  A    between atoms: C15_20  and  N4_21 
ROOT
HETATM    1  C10 UNL     1      26.392   1.948  52.336  1.00  0.00     0.036 A 
HETATM    2  C11 UNL     1      27.324   1.456  53.217  1.00  0.00     0.032 A 
HETATM    3  C12 UNL     1      27.009   0.524  54.170  1.00  0.00     0.035 A 
HETATM    4  C13 UNL     1      25.730   0.027  54.296  1.00  0.00     0.072 A 
HETATM    5  N2  UNL     1      25.396  -0.900  55.223  1.00  0.00    -0.241 NA
HETATM    6  C14 UNL     1      24.148  -1.341  55.284  1.00  0.00     0.236 A 
HETATM    7  N3  UNL     1      23.181  -0.902  54.453  1.00  0.00    -0.223 NA
HETATM    8  C15 UNL     1      23.430   0.016  53.507  1.00  0.00     0.147 A 
HETATM    9  C21 UNL     1      24.733   0.488  53.430  1.00  0.00     0.041 A 
HETATM   10  C22 UNL     1      25.129   1.434  52.489  1.00  0.00     0.047 A 
ENDROOT
BRANCH   1  11
HETATM   11  N1  UNL     1      26.749   2.905  51.351  1.00  0.00    -0.324 N 
HETATM   12  C9  UNL     1      26.129   3.398  50.174  1.00  0.00     0.245 C 
HETATM   13  O2  UNL     1      25.010   2.874  49.955  1.00  0.00    -0.268 OA
HETATM   14  H9  UNL     1      27.699   3.366  51.523  1.00  0.00     0.169 HD
BRANCH  12  15
HETATM   15  C8  UNL     1      26.781   4.404  49.355  1.00  0.00     0.075 C 
HETATM   16  C7  UNL     1      26.481   5.654  49.049  1.00  0.00     0.017 C 
BRANCH  16  17
HETATM   17  C6  UNL     1      27.289   6.484  48.200  1.00  0.00    -0.033 A 
HETATM   18  C5  UNL     1      26.814   7.557  47.483  1.00  0.00     0.011 A 
HETATM   19  C4  UNL     1      27.607   8.360  46.659  1.00  0.00     0.004 A 
HETATM   20  C3  UNL     1      28.949   8.069  46.551  1.00  0.00     0.037 A 
HETATM   21  C2  UNL     1      29.421   7.000  47.265  1.00  0.00     0.069 A 
HETATM   22  C23 UNL     1      28.647   6.190  48.090  1.00  0.00     0.048 A 
BRANCH  21  23
HETATM   23  O1  UNL     1      30.753   6.581  47.259  1.00  0.00    -0.356 OA
HETATM   24  C1  UNL     1      31.277   5.986  48.422  1.00  0.00     0.210 C 
ENDBRANCH  21  23
ENDBRANCH  16  17
ENDBRANCH  12  15
ENDBRANCH   1  11
BRANCH   8  25
HETATM   25  N4  UNL     1      22.483   0.535  52.599  1.00  0.00    -0.316 N 
HETATM   26  C16 UNL     1      21.459   1.205  53.346  1.00  0.00     0.094 A 
HETATM   27  C17 UNL     1      20.427   1.806  52.783  1.00  0.00    -0.004 A 
HETATM   28  C18 UNL     1      20.237   1.839  51.314  1.00  0.00     0.081 A 
HETATM   29  C19 UNL     1      21.325   1.131  50.616  1.00  0.00     0.031 A 
HETATM   30 CL1  UNL     1      21.288   1.055  48.870  1.00  0.00    -0.087 Cl
HETATM   31  C20 UNL     1      22.352   0.532  51.171  1.00  0.00     0.117 A 
ENDBRANCH   8  25
TORSDOF 5
ENDMDL
MODEL 7
REMARK VINA RESULT:      -8.6      3.635      9.406
REMARK  5 active torsions:
REMARK  status: ('A' for Active; 'I' for Inactive)
REMARK    1  A    between atoms: O1_2  and  C2_3 
REMARK    2  A    between atoms: C6_7  and  C7_8 
REMARK    3  A    between atoms: C8_9  and  C9_10 
REMARK       I    between atoms: C9_10  and  N1_12 
REMARK    4  A    between atoms: N1_12  and  C10_13 
REMARK    5  A    between atoms: C15_20  and  N4_21 
ROOT
HETATM    1  C10 UNL     1      25.964   6.042  48.973  1.00  0.00     0.036 A 
HETATM    2  C11 UNL     1      24.805   6.604  48.493  1.00  0.00     0.032 A 
HETATM    3  C12 UNL     1      24.811   7.690  47.658  1.00  0.00     0.035 A 
HETATM    4  C13 UNL     1      25.988   8.279  47.251  1.00  0.00     0.072 A 
HETATM    5  N2  UNL     1      26.019   9.345  46.419  1.00  0.00    -0.241 NA
HETATM    6  C14 UNL     1      27.187   9.859  46.061  1.00  0.00     0.236 A 
HETATM    7  N3  UNL     1      28.363   9.360  46.494  1.00  0.00    -0.223 NA
HETATM    8  C15 UNL     1      28.417   8.305  47.320  1.00  0.00     0.147 A 
HETATM    9  C21 UNL     1      27.203   7.755  47.705  1.00  0.00     0.041 A 
HETATM   10  C22 UNL     1      27.116   6.653  48.550  1.00  0.00     0.047 A 
ENDROOT
BRANCH   1  11
HETATM   11  N1  UNL     1      25.929   4.910  49.829  1.00  0.00    -0.324 N 
HETATM   12  C9  UNL     1      26.596   3.658  49.848  1.00  0.00     0.245 C 
HETATM   13  O2  UNL     1      27.403   3.521  48.897  1.00  0.00    -0.268 OA
HETATM   14  H9  UNL     1      25.249   5.011  50.648  1.00  0.00     0.169 HD
BRANCH  12  15
HETATM   15  C8  UNL     1      26.322   2.685  50.890  1.00  0.00     0.075 C 
HETATM   16  C7  UNL     1      25.206   2.174  51.378  1.00  0.00     0.017 C 
BRANCH  16  17
HETATM   17  C6  UNL     1      25.170   1.200  52.434  1.00  0.00    -0.033 A 
HETATM   18  C5  UNL     1      24.037   0.533  52.836  1.00  0.00     0.011 A 
HETATM   19  C4  UNL     1      24.011  -0.413  53.864  1.00  0.00     0.004 A 
HETATM   20  C3  UNL     1      25.185  -0.704  54.522  1.00  0.00     0.037 A 
HETATM   21  C2  UNL     1      26.313  -0.038  54.121  1.00  0.00     0.069 A 
HETATM   22  C23 UNL     1      26.359   0.906  53.100  1.00  0.00     0.048 A 
BRANCH  21  23
HETATM   23  O1  UNL     1      27.575  -0.223  54.689  1.00  0.00    -0.356 OA
HETATM   24  C1  UNL     1      28.652  -0.551  53.843  1.00  0.00     0.210 C 
ENDBRANCH  21  23
ENDBRANCH  16  17
ENDBRANCH  12  15
ENDBRANCH   1  11
BRANCH   8  25
HETATM   25  N4  UNL     1      29.599   7.720  47.824  1.00  0.00    -0.316 N 
HETATM   26  C16 UNL     1      30.191   8.631  48.760  1.00  0.00     0.094 A 
HETATM   27  C17 UNL     1      31.308   8.372  49.414  1.00  0.00    -0.004 A 
HETATM   28  C18 UNL     1      32.053   7.104  49.236  1.00  0.00     0.081 A 
HETATM   29  C19 UNL     1      31.386   6.222  48.262  1.00  0.00     0.031 A 
HETATM   30 CL1  UNL     1      32.107   4.669  47.908  1.00  0.00    -0.087 Cl
HETATM   31  C20 UNL     1      30.276   6.475  47.608  1.00  0.00     0.117 A 
ENDBRANCH   8  25
TORSDOF 5
ENDMDL
MODEL 8
REMARK VINA RESULT:      -8.4      4.214     10.101
REMARK  5 active torsions:
REMARK  status: ('A' for Active; 'I' for Inactive)
REMARK    1  A    between atoms: O1_2  and  C2_3 
REMARK    2  A    between atoms: C6_7  and  C7_8 
REMARK    3  A    between atoms: C8_9  and  C9_10 
REMARK       I    between atoms: C9_10  and  N1_12 
REMARK    4  A    between atoms: N1_12  and  C10_13 
REMARK    5  A    between atoms: C15_20  and  N4_21 
ROOT
HETATM    1  C10 UNL     1      28.374   6.067  48.252  1.00  0.00     0.036 A 
HETATM    2  C11 UNL     1      27.492   7.050  47.872  1.00  0.00     0.032 A 
HETATM    3  C12 UNL     1      27.881   8.132  47.126  1.00  0.00     0.035 A 
HETATM    4  C13 UNL     1      29.186   8.292  46.715  1.00  0.00     0.072 A 
HETATM    5  N2  UNL     1      29.591   9.346  45.971  1.00  0.00    -0.241 NA
HETATM    6  C14 UNL     1      30.861   9.434  45.603  1.00  0.00     0.236 A 
HETATM    7  N3  UNL     1      31.781   8.508  45.941  1.00  0.00    -0.223 NA
HETATM    8  C15 UNL     1      31.460   7.434  46.678  1.00  0.00     0.147 A 
HETATM    9  C21 UNL     1      30.134   7.327  47.071  1.00  0.00     0.041 A 
HETATM   10  C22 UNL     1      29.664   6.258  47.829  1.00  0.00     0.047 A 
ENDROOT
BRANCH   1  11
HETATM   11  N1  UNL     1      27.941   4.952  49.016  1.00  0.00    -0.324 N 
HETATM   12  C9  UNL     1      26.674   4.411  49.353  1.00  0.00     0.245 C 
HETATM   13  O2  UNL     1      25.719   5.060  48.861  1.00  0.00    -0.268 OA
HETATM   14  H9  UNL     1      28.742   4.383  49.440  1.00  0.00     0.169 HD
BRANCH  12  15
HETATM   15  C8  UNL     1      26.568   3.225  50.185  1.00  0.00     0.075 C 
HETATM   16  C7  UNL     1      25.629   2.774  50.998  1.00  0.00     0.017 C 
BRANCH  16  17
HETATM   17  C6  UNL     1      25.739   1.547  51.739  1.00  0.00    -0.033 A 
HETATM   18  C5  UNL     1      26.887   0.794  51.828  1.00  0.00     0.011 A 
HETATM   19  C4  UNL     1      26.986  -0.397  52.551  1.00  0.00     0.004 A 
HETATM   20  C3  UNL     1      25.873  -0.856  53.220  1.00  0.00     0.037 A 
HETATM   21  C2  UNL     1      24.731  -0.105  53.130  1.00  0.00     0.069 A 
HETATM   22  C23 UNL     1      24.613   1.083  52.416  1.00  0.00     0.048 A 
BRANCH  21  23
HETATM   23  O1  UNL     1      23.524  -0.437  53.751  1.00  0.00    -0.356 OA
HETATM   24  C1  UNL     1      22.344  -0.408  52.986  1.00  0.00     0.210 C 
ENDBRANCH  21  23
ENDBRANCH  16  17
ENDBRANCH  12  15
ENDBRANCH   1  11
BRANCH   8  25
HETATM   25  N4  UNL     1      32.354   6.419  47.080  1.00  0.00    -0.316 N 
HETATM   26  C16 UNL     1      32.115   5.259  46.271  1.00  0.00     0.094 A 
HETATM   27  C17 UNL     1      32.798   4.136  46.396  1.00  0.00    -0.004 A 
HETATM   28  C18 UNL     1      33.882   3.977  47.393  1.00  0.00     0.081 A 
HETATM   29  C19 UNL     1      34.068   5.206  48.185  1.00  0.00     0.031 A 
HETATM   30 CL1  UNL     1      35.304   5.226  49.421  1.00  0.00    -0.087 Cl
HETATM   31  C20 UNL     1      33.391   6.325  48.065  1.00  0.00     0.117 A 
ENDBRANCH   8  25
TORSDOF 5
ENDMDL
MODEL 9
REMARK VINA RESULT:      -8.4      2.698      4.773
REMARK  5 active torsions:
REMARK  status: ('A' for Active; 'I' for Inactive)
REMARK    1  A    between atoms: O1_2  and  C2_3 
REMARK    2  A    between atoms: C6_7  and  C7_8 
REMARK    3  A    between atoms: C8_9  and  C9_10 
REMARK       I    between atoms: C9_10  and  N1_12 
REMARK    4  A    between atoms: N1_12  and  C10_13 
REMARK    5  A    between atoms: C15_20  and  N4_21 
ROOT
HETATM    1  C10 UNL     1      25.518   1.690  51.791  1.00  0.00     0.036 A 
HETATM    2  C11 UNL     1      26.140   0.818  52.653  1.00  0.00     0.032 A 
HETATM    3  C12 UNL     1      25.439  -0.067  53.429  1.00  0.00     0.035 A 
HETATM    4  C13 UNL     1      24.064  -0.131  53.384  1.00  0.00     0.072 A 
HETATM    5  N2  UNL     1      23.350  -1.003  54.133  1.00  0.00    -0.241 NA
HETATM    6  C14 UNL     1      22.028  -1.017  54.036  1.00  0.00     0.236 A 
HETATM    7  N3  UNL     1      21.352  -0.190  53.213  1.00  0.00    -0.223 NA
HETATM    8  C15 UNL     1      21.985   0.703  52.438  1.00  0.00     0.147 A 
HETATM    9  C21 UNL     1      23.370   0.731  52.528  1.00  0.00     0.041 A 
HETATM   10  C22 UNL     1      24.150   1.601  51.773  1.00  0.00     0.047 A 
ENDROOT
BRANCH   1  11
HETATM   11  N1  UNL     1      26.270   2.589  50.991  1.00  0.00    -0.324 N 
HETATM   12  C9  UNL     1      25.992   3.359  49.832  1.00  0.00     0.245 C 
HETATM   13  O2  UNL     1      24.813   3.217  49.424  1.00  0.00    -0.268 OA
HETATM   14  H9  UNL     1      27.277   2.726  51.326  1.00  0.00     0.169 HD
BRANCH  12  15
HETATM   15  C8  UNL     1      27.013   4.200  49.234  1.00  0.00     0.075 C 
HETATM   16  C7  UNL     1      26.993   5.418  48.721  1.00  0.00     0.017 C 
BRANCH  16  17
HETATM   17  C6  UNL     1      28.150   6.069  48.171  1.00  0.00    -0.033 A 
HETATM   18  C5  UNL     1      29.405   5.509  48.119  1.00  0.00     0.011 A 
HETATM   19  C4  UNL     1      30.525   6.149  47.582  1.00  0.00     0.004 A 
HETATM   20  C3  UNL     1      30.376   7.419  47.070  1.00  0.00     0.037 A 
HETATM   21  C2  UNL     1      29.125   7.976  47.123  1.00  0.00     0.069 A 
HETATM   22  C23 UNL     1      27.999   7.354  47.653  1.00  0.00     0.048 A 
BRANCH  21  23
HETATM   23  O1  UNL     1      28.815   9.251  46.645  1.00  0.00    -0.356 OA
HETATM   24  C1  UNL     1      28.251  10.184  47.536  1.00  0.00     0.210 C 
ENDBRANCH  21  23
ENDBRANCH  16  17
ENDBRANCH  12  15
ENDBRANCH   1  11
BRANCH   8  25
HETATM   25  N4  UNL     1      21.361   1.607  51.552  1.00  0.00    -0.316 N 
HETATM   26  C16 UNL     1      20.851   2.709  52.315  1.00  0.00     0.094 A 
HETATM   27  C17 UNL     1      20.216   3.732  51.774  1.00  0.00    -0.004 A 
HETATM   28  C18 UNL     1      19.974   3.830  50.315  1.00  0.00     0.081 A 
HETATM   29  C19 UNL     1      20.524   2.665  49.600  1.00  0.00     0.031 A 
HETATM   30 CL1  UNL     1      20.345   2.588  47.863  1.00  0.00    -0.087 Cl
HETATM   31  C20 UNL     1      21.156   1.645  50.133  1.00  0.00     0.117 A 
ENDBRANCH   8  25
TORSDOF 5
ENDMDL
