MODEL 1
REMARK VINA RESULT:      -8.4      0.000      0.000
REMARK  9 active torsions:
REMARK  status: ('A' for Active; 'I' for Inactive)
REMARK    1  A    between atoms: C1_2  and  C2_3 
REMARK    2  A    between atoms: C2_3  and  C3_4 
REMARK    3  A    between atoms: C2_3  and  C5_7 
REMARK    4  A    between atoms: C3_4  and  C4_5 
REMARK    5  A    between atoms: C5_7  and  O1_8 
REMARK    6  A    between atoms: O1_8  and  C6_9 
REMARK    7  A    between atoms: C8_11  and  N2_12 
REMARK    8  A    between atoms: N2_12  and  C9_13 
REMARK    9  A    between atoms: C13_17  and  C14_18 
ROOT
HETATM    1  C6  UNL     1      24.413  -0.475  54.226  1.00  0.00     0.169 A 
HETATM    2  C7  UNL     1      23.808   0.440  53.405  1.00  0.00     0.108 A 
HETATM    3  C8  UNL     1      22.418   0.595  53.333  1.00  0.00     0.133 A 
HETATM    4  N3  UNL     1      21.757  -0.227  54.132  1.00  0.00    -0.224 NA
HETATM    5  C21 UNL     1      22.342  -1.124  54.936  1.00  0.00     0.238 A 
HETATM    6  N4  UNL     1      23.678  -1.266  54.999  1.00  0.00    -0.218 NA
ENDROOT
BRANCH   3   7
HETATM    7  N2  UNL     1      21.859   1.549  52.477  1.00  0.00    -0.341 N 
HETATM    8  H11 UNL     1      21.086   2.162  52.879  1.00  0.00     0.167 HD
BRANCH   7   9
HETATM    9  C9  UNL     1      22.184   1.817  51.129  1.00  0.00     0.034 A 
HETATM   10  C10 UNL     1      21.554   1.282  50.030  1.00  0.00     0.029 A 
HETATM   11  C11 UNL     1      21.863   1.544  48.714  1.00  0.00     0.003 A 
HETATM   12  C12 UNL     1      22.903   2.425  48.479  1.00  0.00     0.012 A 
HETATM   13  C13 UNL     1      23.581   3.001  49.528  1.00  0.00    -0.024 A 
HETATM   14  C20 UNL     1      23.210   2.687  50.811  1.00  0.00     0.041 A 
BRANCH  13  15
HETATM   15  C14 UNL     1      24.676   3.932  49.269  1.00  0.00    -0.026 A 
HETATM   16  C15 UNL     1      24.458   5.244  48.906  1.00  0.00     0.012 A 
HETATM   17  C16 UNL     1      25.523   6.077  48.675  1.00  0.00     0.001 A 
HETATM   18  C17 UNL     1      26.824   5.642  48.794  1.00  0.00     0.000 A 
HETATM   19  C18 UNL     1      27.087   4.332  49.156  1.00  0.00     0.001 A 
HETATM   20  C19 UNL     1      25.996   3.507  49.386  1.00  0.00     0.012 A 
ENDBRANCH  13  15
ENDBRANCH   7   9
ENDBRANCH   3   7
BRANCH   1  21
HETATM   21  O1  UNL     1      25.776  -0.533  54.209  1.00  0.00    -0.334 OA
BRANCH  21  22
HETATM   22  C5  UNL     1      26.687   0.178  54.978  1.00  0.00     0.187 C 
BRANCH  22  23
HETATM   23  C2  UNL     1      27.941   0.406  54.166  1.00  0.00     0.052 C 
BRANCH  23  24
HETATM   24  C1  UNL     1      27.842   1.717  53.450  1.00  0.00     0.087 C 
HETATM   25  N1  UNL     1      26.954   2.506  53.897  1.00  0.00    -0.316 NA
HETATM   26  H1  UNL     1      26.347   2.252  54.702  1.00  0.00     0.185 HD
ENDBRANCH  23  24
BRANCH  23  27
HETATM   27  C3  UNL     1      28.126  -0.727  53.188  1.00  0.00     0.043 C 
BRANCH  27  28
HETATM   28  C4  UNL     1      29.490  -1.374  53.440  1.00  0.00     0.223 C 
HETATM   29  F1  UNL     1      30.506  -0.448  53.470  1.00  0.00    -0.255 F 
ENDBRANCH  27  28
ENDBRANCH  23  27
ENDBRANCH  22  23
ENDBRANCH  21  22
ENDBRANCH   1  21
TORSDOF 9
ENDMDL
MODEL 2
REMARK VINA RESULT:      -8.4      1.505      2.010
REMARK  9 active torsions:
REMARK  status: ('A' for Active; 'I' for Inactive)
REMARK    1  A    between atoms: C1_2  and  C2_3 
REMARK    2  A    between atoms: C2_3  and  C3_4 
REMARK    3  A    between atoms: C2_3  and  C5_7 
REMARK    4  A    between atoms: C3_4  and  C4_5 
REMARK    5  A    between atoms: C5_7  and  O1_8 
REMARK    6  A    between atoms: O1_8  and  C6_9 
REMARK    7  A    between atoms: C8_11  and  N2_12 
REMARK    8  A    between atoms: N2_12  and  C9_13 
REMARK    9  A    between atoms: C13_17  and  C14_18 
ROOT
HETATM    1  C6  UNL     1      23.910  -0.580  54.132  1.00  0.00     0.169 A 
HETATM    2  C7  UNL     1      23.337   0.293  53.244  1.00  0.00     0.108 A 
HETATM    3  C8  UNL     1      21.955   0.507  53.174  1.00  0.00     0.133 A 
HETATM    4  N3  UNL     1      21.267  -0.214  54.045  1.00  0.00    -0.224 NA
HETATM    5  C21 UNL     1      21.821  -1.068  54.915  1.00  0.00     0.238 A 
HETATM    6  N4  UNL     1      23.150  -1.268  54.976  1.00  0.00    -0.218 NA
ENDROOT
BRANCH   3   7
HETATM    7  N2  UNL     1      21.429   1.414  52.247  1.00  0.00    -0.341 N 
HETATM    8  H11 UNL     1      20.592   1.993  52.563  1.00  0.00     0.167 HD
BRANCH   7   9
HETATM    9  C9  UNL     1      21.861   1.671  50.928  1.00  0.00     0.034 A 
HETATM   10  C10 UNL     1      21.322   1.126  49.787  1.00  0.00     0.029 A 
HETATM   11  C11 UNL     1      21.737   1.377  48.497  1.00  0.00     0.003 A 
HETATM   12  C12 UNL     1      22.793   2.258  48.340  1.00  0.00     0.012 A 
HETATM   13  C13 UNL     1      23.383   2.843  49.436  1.00  0.00    -0.024 A 
HETATM   14  C20 UNL     1      22.910   2.539  50.687  1.00  0.00     0.041 A 
BRANCH  13  15
HETATM   15  C14 UNL     1      24.495   3.773  49.258  1.00  0.00    -0.026 A 
HETATM   16  C15 UNL     1      25.810   3.389  49.422  1.00  0.00     0.012 A 
HETATM   17  C16 UNL     1      26.817   4.303  49.242  1.00  0.00     0.001 A 
HETATM   18  C17 UNL     1      26.558   5.611  48.899  1.00  0.00     0.000 A 
HETATM   19  C18 UNL     1      25.252   6.037  48.724  1.00  0.00     0.001 A 
HETATM   20  C19 UNL     1      24.249   5.097  48.911  1.00  0.00     0.012 A 
ENDBRANCH  13  15
ENDBRANCH   7   9
ENDBRANCH   3   7
BRANCH   1  21
HETATM   21  O1  UNL     1      25.269  -0.703  54.106  1.00  0.00    -0.334 OA
BRANCH  21  22
HETATM   22  C5  UNL     1      26.079  -1.193  53.091  1.00  0.00     0.187 C 
BRANCH  22  23
HETATM   23  C2  UNL     1      27.208  -0.218  52.852  1.00  0.00     0.052 C 
BRANCH  23  24
HETATM   24  C1  UNL     1      27.609   0.412  54.149  1.00  0.00     0.087 C 
HETATM   25  N1  UNL     1      28.268  -0.342  54.930  1.00  0.00    -0.316 NA
HETATM   26  H1  UNL     1      28.506  -1.322  54.677  1.00  0.00     0.185 HD
ENDBRANCH  23  24
BRANCH  23  27
HETATM   27  C3  UNL     1      26.772   0.831  51.859  1.00  0.00     0.043 C 
BRANCH  27  28
HETATM   28  C4  UNL     1      26.783   2.196  52.552  1.00  0.00     0.223 C 
HETATM   29  F1  UNL     1      25.517   2.628  52.869  1.00  0.00    -0.255 F 
ENDBRANCH  27  28
ENDBRANCH  23  27
ENDBRANCH  22  23
ENDBRANCH  21  22
ENDBRANCH   1  21
TORSDOF 9
ENDMDL
MODEL 3
REMARK VINA RESULT:      -8.4      1.647      2.198
REMARK  9 active torsions:
REMARK  status: ('A' for Active; 'I' for Inactive)
REMARK    1  A    between atoms: C1_2  and  C2_3 
REMARK    2  A    between atoms: C2_3  and  C3_4 
REMARK    3  A    between atoms: C2_3  and  C5_7 
REMARK    4  A    between atoms: C3_4  and  C4_5 
REMARK    5  A    between atoms: C5_7  and  O1_8 
REMARK    6  A    between atoms: O1_8  and  C6_9 
REMARK    7  A    between atoms: C8_11  and  N2_12 
REMARK    8  A    between atoms: N2_12  and  C9_13 
REMARK    9  A    between atoms: C13_17  and  C14_18 
ROOT
HETATM    1  C6  UNL     1      25.035  -0.481  53.701  1.00  0.00     0.169 A 
HETATM    2  C7  UNL     1      24.836   0.768  53.174  1.00  0.00     0.108 A 
HETATM    3  C8  UNL     1      23.579   1.385  53.135  1.00  0.00     0.133 A 
HETATM    4  N3  UNL     1      22.614   0.643  53.654  1.00  0.00    -0.224 NA
HETATM    5  C21 UNL     1      22.802  -0.578  54.171  1.00  0.00     0.238 A 
HETATM    6  N4  UNL     1      24.013  -1.163  54.205  1.00  0.00    -0.218 NA
ENDROOT
BRANCH   3   7
HETATM    7  N2  UNL     1      23.439   2.664  52.585  1.00  0.00    -0.341 N 
HETATM    8  H11 UNL     1      23.276   3.465  53.268  1.00  0.00     0.167 HD
BRANCH   7   9
HETATM    9  C9  UNL     1      23.486   3.046  51.227  1.00  0.00     0.034 A 
HETATM   10  C10 UNL     1      22.543   2.739  50.275  1.00  0.00     0.029 A 
HETATM   11  C11 UNL     1      22.581   3.113  48.949  1.00  0.00     0.003 A 
HETATM   12  C12 UNL     1      23.668   3.866  48.543  1.00  0.00     0.012 A 
HETATM   13  C13 UNL     1      24.652   4.213  49.440  1.00  0.00    -0.024 A 
HETATM   14  C20 UNL     1      24.539   3.800  50.742  1.00  0.00     0.041 A 
BRANCH  13  15
HETATM   15  C14 UNL     1      25.794   5.010  49.000  1.00  0.00    -0.026 A 
HETATM   16  C15 UNL     1      25.670   6.332  48.627  1.00  0.00     0.012 A 
HETATM   17  C16 UNL     1      26.776   7.036  48.222  1.00  0.00     0.001 A 
HETATM   18  C17 UNL     1      28.026   6.460  48.175  1.00  0.00     0.000 A 
HETATM   19  C18 UNL     1      28.194   5.135  48.542  1.00  0.00     0.001 A 
HETATM   20  C19 UNL     1      27.063   4.442  48.948  1.00  0.00     0.012 A 
ENDBRANCH  13  15
ENDBRANCH   7   9
ENDBRANCH   3   7
BRANCH   1  21
HETATM   21  O1  UNL     1      26.306  -0.977  53.683  1.00  0.00    -0.334 OA
BRANCH  21  22
HETATM   22  C5  UNL     1      27.216  -1.002  52.634  1.00  0.00     0.187 C 
BRANCH  22  23
HETATM   23  C2  UNL     1      28.614  -0.897  53.198  1.00  0.00     0.052 C 
BRANCH  23  24
HETATM   24  C1  UNL     1      29.187  -2.268  53.375  1.00  0.00     0.087 C 
HETATM   25  N1  UNL     1      28.435  -3.216  52.991  1.00  0.00    -0.316 NA
HETATM   26  H1  UNL     1      27.494  -3.043  52.585  1.00  0.00     0.185 HD
ENDBRANCH  23  24
BRANCH  23  27
HETATM   27  C3  UNL     1      28.578  -0.157  54.512  1.00  0.00     0.043 C 
BRANCH  27  28
HETATM   28  C4  UNL     1      29.148   1.248  54.298  1.00  0.00     0.223 C 
HETATM   29  F1  UNL     1      28.190   2.140  53.878  1.00  0.00    -0.255 F 
ENDBRANCH  27  28
ENDBRANCH  23  27
ENDBRANCH  22  23
ENDBRANCH  21  22
ENDBRANCH   1  21
TORSDOF 9
ENDMDL
MODEL 4
REMARK VINA RESULT:      -8.3      2.587      6.016
REMARK  9 active torsions:
REMARK  status: ('A' for Active; 'I' for Inactive)
REMARK    1  A    between atoms: C1_2  and  C2_3 
REMARK    2  A    between atoms: C2_3  and  C3_4 
REMARK    3  A    between atoms: C2_3  and  C5_7 
REMARK    4  A    between atoms: C3_4  and  C4_5 
REMARK    5  A    between atoms: C5_7  and  O1_8 
REMARK    6  A    between atoms: O1_8  and  C6_9 
REMARK    7  A    between atoms: C8_11  and  N2_12 
REMARK    8  A    between atoms: N2_12  and  C9_13 
REMARK    9  A    between atoms: C13_17  and  C14_18 
ROOT
HETATM    1  C6  UNL     1      27.261   2.253  52.072  1.00  0.00     0.169 A 
HETATM    2  C7  UNL     1      26.391   1.219  52.300  1.00  0.00     0.108 A 
HETATM    3  C8  UNL     1      26.570   0.288  53.331  1.00  0.00     0.133 A 
HETATM    4  N3  UNL     1      27.656   0.508  54.054  1.00  0.00    -0.224 NA
HETATM    5  C21 UNL     1      28.510   1.517  53.836  1.00  0.00     0.238 A 
HETATM    6  N4  UNL     1      28.330   2.407  52.844  1.00  0.00    -0.218 NA
ENDROOT
BRANCH   3   7
HETATM    7  N2  UNL     1      25.645  -0.745  53.516  1.00  0.00    -0.341 N 
HETATM    8  H11 UNL     1      26.016  -1.741  53.448  1.00  0.00     0.167 HD
BRANCH   7   9
HETATM    9  C9  UNL     1      24.262  -0.647  53.784  1.00  0.00     0.034 A 
HETATM   10  C10 UNL     1      23.618  -1.172  54.879  1.00  0.00     0.029 A 
HETATM   11  C11 UNL     1      22.270  -1.076  55.148  1.00  0.00     0.003 A 
HETATM   12  C12 UNL     1      21.497  -0.387  54.230  1.00  0.00     0.012 A 
HETATM   13  C13 UNL     1      22.071   0.166  53.109  1.00  0.00    -0.024 A 
HETATM   14  C20 UNL     1      23.421   0.025  52.915  1.00  0.00     0.041 A 
BRANCH  13  15
HETATM   15  C14 UNL     1      21.246   0.892  52.148  1.00  0.00    -0.026 A 
HETATM   16  C15 UNL     1      21.209   0.561  50.810  1.00  0.00     0.012 A 
HETATM   17  C16 UNL     1      20.415   1.276  49.949  1.00  0.00     0.001 A 
HETATM   18  C17 UNL     1      19.641   2.330  50.380  1.00  0.00     0.000 A 
HETATM   19  C18 UNL     1      19.649   2.695  51.716  1.00  0.00     0.001 A 
HETATM   20  C19 UNL     1      20.458   1.959  52.569  1.00  0.00     0.012 A 
ENDBRANCH  13  15
ENDBRANCH   7   9
ENDBRANCH   3   7
BRANCH   1  21
HETATM   21  O1  UNL     1      26.980   3.096  51.037  1.00  0.00    -0.334 OA
BRANCH  21  22
HETATM   22  C5  UNL     1      26.415   2.802  49.803  1.00  0.00     0.187 C 
BRANCH  22  23
HETATM   23  C2  UNL     1      25.227   3.709  49.580  1.00  0.00     0.052 C 
BRANCH  23  24
HETATM   24  C1  UNL     1      25.438   4.999  50.310  1.00  0.00     0.087 C 
HETATM   25  N1  UNL     1      26.422   5.690  49.903  1.00  0.00    -0.316 NA
HETATM   26  H1  UNL     1      27.029   5.375  49.120  1.00  0.00     0.185 HD
ENDBRANCH  23  24
BRANCH  23  27
HETATM   27  C3  UNL     1      23.969   3.024  50.054  1.00  0.00     0.043 C 
BRANCH  27  28
HETATM   28  C4  UNL     1      23.384   3.827  51.219  1.00  0.00     0.223 C 
HETATM   29  F1  UNL     1      23.623   3.230  52.434  1.00  0.00    -0.255 F 
ENDBRANCH  27  28
ENDBRANCH  23  27
ENDBRANCH  22  23
ENDBRANCH  21  22
ENDBRANCH   1  21
TORSDOF 9
ENDMDL
MODEL 5
REMARK VINA RESULT:      -8.3      2.372      5.945
REMARK  9 active torsions:
REMARK  status: ('A' for Active; 'I' for Inactive)
REMARK    1  A    between atoms: C1_2  and  C2_3 
REMARK    2  A    between atoms: C2_3  and  C3_4 
REMARK    3  A    between atoms: C2_3  and  C5_7 
REMARK    4  A    between atoms: C3_4  and  C4_5 
REMARK    5  A    between atoms: C5_7  and  O1_8 
REMARK    6  A    between atoms: O1_8  and  C6_9 
REMARK    7  A    between atoms: C8_11  and  N2_12 
REMARK    8  A    between atoms: N2_12  and  C9_13 
REMARK    9  A    between atoms: C13_17  and  C14_18 
ROOT
HETATM    1  C6  UNL     1      23.197   2.843  49.152  1.00  0.00     0.169 A 
HETATM    2  C7  UNL     1      22.814   2.566  50.438  1.00  0.00     0.108 A 
HETATM    3  C8  UNL     1      21.838   1.610  50.750  1.00  0.00     0.133 A 
HETATM    4  N3  UNL     1      21.331   1.011  49.685  1.00  0.00    -0.224 NA
HETATM    5  C21 UNL     1      21.701   1.278  48.426  1.00  0.00     0.238 A 
HETATM    6  N4  UNL     1      22.639   2.197  48.135  1.00  0.00    -0.218 NA
ENDROOT
BRANCH   3   7
HETATM    7  N2  UNL     1      21.491   1.369  52.084  1.00  0.00    -0.341 N 
HETATM    8  H11 UNL     1      20.617   1.856  52.449  1.00  0.00     0.167 HD
BRANCH   7   9
HETATM    9  C9  UNL     1      22.151   0.553  53.029  1.00  0.00     0.034 A 
HETATM   10  C10 UNL     1      21.543  -0.176  54.023  1.00  0.00     0.029 A 
HETATM   11  C11 UNL     1      22.181  -0.977  54.945  1.00  0.00     0.003 A 
HETATM   12  C12 UNL     1      23.560  -1.052  54.859  1.00  0.00     0.012 A 
HETATM   13  C13 UNL     1      24.239  -0.350  53.890  1.00  0.00    -0.024 A 
HETATM   14  C20 UNL     1      23.528   0.425  53.010  1.00  0.00     0.041 A 
BRANCH  13  15
HETATM   15  C14 UNL     1      25.694  -0.438  53.808  1.00  0.00    -0.026 A 
HETATM   16  C15 UNL     1      26.334  -1.226  52.874  1.00  0.00     0.012 A 
HETATM   17  C16 UNL     1      27.704  -1.272  52.840  1.00  0.00     0.001 A 
HETATM   18  C17 UNL     1      28.477  -0.546  53.719  1.00  0.00     0.000 A 
HETATM   19  C18 UNL     1      27.875   0.258  54.672  1.00  0.00     0.001 A 
HETATM   20  C19 UNL     1      26.488   0.290  54.689  1.00  0.00     0.012 A 
ENDBRANCH  13  15
ENDBRANCH   7   9
ENDBRANCH   3   7
BRANCH   1  21
HETATM   21  O1  UNL     1      24.158   3.795  48.973  1.00  0.00    -0.334 OA
BRANCH  21  22
HETATM   22  C5  UNL     1      24.774   4.600  49.922  1.00  0.00     0.187 C 
BRANCH  22  23
HETATM   23  C2  UNL     1      26.241   4.245  49.988  1.00  0.00     0.052 C 
BRANCH  23  24
HETATM   24  C1  UNL     1      26.991   5.026  48.953  1.00  0.00     0.087 C 
HETATM   25  N1  UNL     1      28.255   4.954  49.042  1.00  0.00    -0.316 NA
HETATM   26  H1  UNL     1      28.725   4.393  49.780  1.00  0.00     0.185 HD
ENDBRANCH  23  24
BRANCH  23  27
HETATM   27  C3  UNL     1      26.415   2.763  49.772  1.00  0.00     0.043 C 
BRANCH  27  28
HETATM   28  C4  UNL     1      26.593   2.088  51.134  1.00  0.00     0.223 C 
HETATM   29  F1  UNL     1      27.361   2.840  51.991  1.00  0.00    -0.255 F 
ENDBRANCH  27  28
ENDBRANCH  23  27
ENDBRANCH  22  23
ENDBRANCH  21  22
ENDBRANCH   1  21
TORSDOF 9
ENDMDL
MODEL 6
REMARK VINA RESULT:      -8.1      1.412      2.531
REMARK  9 active torsions:
REMARK  status: ('A' for Active; 'I' for Inactive)
REMARK    1  A    between atoms: C1_2  and  C2_3 
REMARK    2  A    between atoms: C2_3  and  C3_4 
REMARK    3  A    between atoms: C2_3  and  C5_7 
REMARK    4  A    between atoms: C3_4  and  C4_5 
REMARK    5  A    between atoms: C5_7  and  O1_8 
REMARK    6  A    between atoms: O1_8  and  C6_9 
REMARK    7  A    between atoms: C8_11  and  N2_12 
REMARK    8  A    between atoms: N2_12  and  C9_13 
REMARK    9  A    between atoms: C13_17  and  C14_18 
ROOT
HETATM    1  C6  UNL     1      24.034   0.042  53.212  1.00  0.00     0.169 A 
HETATM    2  C7  UNL     1      24.120   0.931  52.174  1.00  0.00     0.108 A 
HETATM    3  C8  UNL     1      23.033   1.237  51.343  1.00  0.00     0.133 A 
HETATM    4  N3  UNL     1      21.929   0.583  51.664  1.00  0.00    -0.224 NA
HETATM    5  C21 UNL     1      21.839  -0.287  52.678  1.00  0.00     0.238 A 
HETATM    6  N4  UNL     1      22.888  -0.575  53.470  1.00  0.00    -0.218 NA
ENDROOT
BRANCH   3   7
HETATM    7  N2  UNL     1      23.181   2.156  50.300  1.00  0.00    -0.341 N 
HETATM    8  H11 UNL     1      22.978   1.803  49.316  1.00  0.00     0.167 HD
BRANCH   7   9
HETATM    9  C9  UNL     1      23.571   3.511  50.373  1.00  0.00     0.034 A 
HETATM   10  C10 UNL     1      22.889   4.508  51.031  1.00  0.00     0.029 A 
HETATM   11  C11 UNL     1      23.267   5.830  51.109  1.00  0.00     0.003 A 
HETATM   12  C12 UNL     1      24.439   6.185  50.466  1.00  0.00     0.012 A 
HETATM   13  C13 UNL     1      25.175   5.243  49.786  1.00  0.00    -0.024 A 
HETATM   14  C20 UNL     1      24.730   3.947  49.756  1.00  0.00     0.041 A 
BRANCH  13  15
HETATM   15  C14 UNL     1      26.412   5.628  49.111  1.00  0.00    -0.026 A 
HETATM   16  C15 UNL     1      27.438   4.735  48.885  1.00  0.00     0.012 A 
HETATM   17  C16 UNL     1      28.578   5.149  48.246  1.00  0.00     0.001 A 
HETATM   18  C17 UNL     1      28.739   6.446  47.814  1.00  0.00     0.000 A 
HETATM   19  C18 UNL     1      27.733   7.376  48.021  1.00  0.00     0.001 A 
HETATM   20  C19 UNL     1      26.588   6.935  48.669  1.00  0.00     0.012 A 
ENDBRANCH  13  15
ENDBRANCH   7   9
ENDBRANCH   3   7
BRANCH   1  21
HETATM   21  O1  UNL     1      25.162  -0.174  53.951  1.00  0.00    -0.334 OA
BRANCH  21  22
HETATM   22  C5  UNL     1      26.478  -0.277  53.521  1.00  0.00     0.187 C 
BRANCH  22  23
HETATM   23  C2  UNL     1      27.317   0.733  54.268  1.00  0.00     0.052 C 
BRANCH  23  24
HETATM   24  C1  UNL     1      27.679   1.860  53.351  1.00  0.00     0.087 C 
HETATM   25  N1  UNL     1      28.415   2.755  53.868  1.00  0.00    -0.316 NA
HETATM   26  H1  UNL     1      28.738   2.701  54.855  1.00  0.00     0.185 HD
ENDBRANCH  23  24
BRANCH  23  27
HETATM   27  C3  UNL     1      28.555   0.063  54.810  1.00  0.00     0.043 C 
BRANCH  27  28
HETATM   28  C4  UNL     1      29.128  -0.856  53.728  1.00  0.00     0.223 C 
HETATM   29  F1  UNL     1      30.343  -0.415  53.260  1.00  0.00    -0.255 F 
ENDBRANCH  27  28
ENDBRANCH  23  27
ENDBRANCH  22  23
ENDBRANCH  21  22
ENDBRANCH   1  21
TORSDOF 9
ENDMDL
MODEL 7
REMARK VINA RESULT:      -7.9      3.408      7.143
REMARK  9 active torsions:
REMARK  status: ('A' for Active; 'I' for Inactive)
REMARK    1  A    between atoms: C1_2  and  C2_3 
REMARK    2  A    between atoms: C2_3  and  C3_4 
REMARK    3  A    between atoms: C2_3  and  C5_7 
REMARK    4  A    between atoms: C3_4  and  C4_5 
REMARK    5  A    between atoms: C5_7  and  O1_8 
REMARK    6  A    between atoms: O1_8  and  C6_9 
REMARK    7  A    between atoms: C8_11  and  N2_12 
REMARK    8  A    between atoms: N2_12  and  C9_13 
REMARK    9  A    between atoms: C13_17  and  C14_18 
ROOT
HETATM    1  C6  UNL     1      24.715   5.476  49.968  1.00  0.00     0.169 A 
HETATM    2  C7  UNL     1      24.584   4.113  50.005  1.00  0.00     0.108 A 
HETATM    3  C8  UNL     1      23.777   3.452  50.941  1.00  0.00     0.133 A 
HETATM    4  N3  UNL     1      23.161   4.273  51.775  1.00  0.00    -0.224 NA
HETATM    5  C21 UNL     1      23.284   5.607  51.743  1.00  0.00     0.238 A 
HETATM    6  N4  UNL     1      24.062   6.233  50.841  1.00  0.00    -0.218 NA
ENDROOT
BRANCH   3   7
HETATM    7  N2  UNL     1      23.682   2.056  50.928  1.00  0.00    -0.341 N 
HETATM    8  H11 UNL     1      23.262   1.611  50.056  1.00  0.00     0.167 HD
BRANCH   7   9
HETATM    9  C9  UNL     1      24.073   1.140  51.928  1.00  0.00     0.034 A 
HETATM   10  C10 UNL     1      23.224   0.455  52.765  1.00  0.00     0.029 A 
HETATM   11  C11 UNL     1      23.600  -0.443  53.740  1.00  0.00     0.003 A 
HETATM   12  C12 UNL     1      24.956  -0.675  53.888  1.00  0.00     0.012 A 
HETATM   13  C13 UNL     1      25.866  -0.026  53.087  1.00  0.00    -0.024 A 
HETATM   14  C20 UNL     1      25.410   0.854  52.139  1.00  0.00     0.041 A 
BRANCH  13  15
HETATM   15  C14 UNL     1      27.295  -0.279  53.251  1.00  0.00    -0.026 A 
HETATM   16  C15 UNL     1      28.191   0.724  53.558  1.00  0.00     0.012 A 
HETATM   17  C16 UNL     1      29.524   0.432  53.701  1.00  0.00     0.001 A 
HETATM   18  C17 UNL     1      30.007  -0.848  53.548  1.00  0.00     0.000 A 
HETATM   19  C18 UNL     1      29.141  -1.885  53.240  1.00  0.00     0.001 A 
HETATM   20  C19 UNL     1      27.798  -1.567  53.099  1.00  0.00     0.012 A 
ENDBRANCH  13  15
ENDBRANCH   7   9
ENDBRANCH   3   7
BRANCH   1  21
HETATM   21  O1  UNL     1      25.530   6.004  49.010  1.00  0.00    -0.334 OA
BRANCH  21  22
HETATM   22  C5  UNL     1      26.495   6.995  49.137  1.00  0.00     0.187 C 
BRANCH  22  23
HETATM   23  C2  UNL     1      27.449   6.902  47.969  1.00  0.00     0.052 C 
BRANCH  23  24
HETATM   24  C1  UNL     1      28.528   5.912  48.282  1.00  0.00     0.087 C 
HETATM   25  N1  UNL     1      28.191   4.989  49.085  1.00  0.00    -0.316 NA
HETATM   26  H1  UNL     1      27.235   4.933  49.490  1.00  0.00     0.185 HD
ENDBRANCH  23  24
BRANCH  23  27
HETATM   27  C3  UNL     1      28.035   8.262  47.682  1.00  0.00     0.043 C 
BRANCH  27  28
HETATM   28  C4  UNL     1      29.311   8.430  48.510  1.00  0.00     0.223 C 
HETATM   29  F1  UNL     1      29.066   9.013  49.730  1.00  0.00    -0.255 F 
ENDBRANCH  27  28
ENDBRANCH  23  27
ENDBRANCH  22  23
ENDBRANCH  21  22
ENDBRANCH   1  21
TORSDOF 9
ENDMDL
MODEL 8
REMARK VINA RESULT:      -7.8      3.134      5.562
REMARK  9 active torsions:
REMARK  status: ('A' for Active; 'I' for Inactive)
REMARK    1  A    between atoms: C1_2  and  C2_3 
REMARK    2  A    between atoms: C2_3  and  C3_4 
REMARK    3  A    between atoms: C2_3  and  C5_7 
REMARK    4  A    between atoms: C3_4  and  C4_5 
REMARK    5  A    between atoms: C5_7  and  O1_8 
REMARK    6  A    between atoms: O1_8  and  C6_9 
REMARK    7  A    between atoms: C8_11  and  N2_12 
REMARK    8  A    between atoms: N2_12  and  C9_13 
REMARK    9  A    between atoms: C13_17  and  C14_18 
ROOT
HETATM    1  C6  UNL     1      25.442   1.350  53.346  1.00  0.00     0.169 A 
HETATM    2  C7  UNL     1      25.417   1.736  52.032  1.00  0.00     0.108 A 
HETATM    3  C8  UNL     1      26.520   2.312  51.388  1.00  0.00     0.133 A 
HETATM    4  N3  UNL     1      27.577   2.441  52.173  1.00  0.00    -0.224 NA
HETATM    5  C21 UNL     1      27.607   2.064  53.458  1.00  0.00     0.238 A 
HETATM    6  N4  UNL     1      26.543   1.513  54.069  1.00  0.00    -0.218 NA
ENDROOT
BRANCH   3   7
HETATM    7  N2  UNL     1      26.435   2.684  50.042  1.00  0.00    -0.341 N 
HETATM    8  H11 UNL     1      26.380   1.896  49.328  1.00  0.00     0.167 HD
BRANCH   7   9
HETATM    9  C9  UNL     1      26.412   3.984  49.491  1.00  0.00     0.034 A 
HETATM   10  C10 UNL     1      25.321   4.820  49.454  1.00  0.00     0.029 A 
HETATM   11  C11 UNL     1      25.294   6.091  48.922  1.00  0.00     0.003 A 
HETATM   12  C12 UNL     1      26.473   6.565  48.375  1.00  0.00     0.012 A 
HETATM   13  C13 UNL     1      27.606   5.785  48.375  1.00  0.00    -0.024 A 
HETATM   14  C20 UNL     1      27.549   4.530  48.925  1.00  0.00     0.041 A 
BRANCH  13  15
HETATM   15  C14 UNL     1      28.846   6.296  47.797  1.00  0.00    -0.026 A 
HETATM   16  C15 UNL     1      30.059   5.666  47.979  1.00  0.00     0.012 A 
HETATM   17  C16 UNL     1      31.194   6.189  47.413  1.00  0.00     0.001 A 
HETATM   18  C17 UNL     1      31.165   7.339  46.656  1.00  0.00     0.000 A 
HETATM   19  C18 UNL     1      29.967   8.003  46.448  1.00  0.00     0.001 A 
HETATM   20  C19 UNL     1      28.831   7.457  47.030  1.00  0.00     0.012 A 
ENDBRANCH  13  15
ENDBRANCH   7   9
ENDBRANCH   3   7
BRANCH   1  21
HETATM   21  O1  UNL     1      24.304   0.801  53.862  1.00  0.00    -0.334 OA
BRANCH  21  22
HETATM   22  C5  UNL     1      23.678  -0.390  53.519  1.00  0.00     0.187 C 
BRANCH  22  23
HETATM   23  C2  UNL     1      22.791  -0.824  54.662  1.00  0.00     0.052 C 
BRANCH  23  24
HETATM   24  C1  UNL     1      23.553  -1.745  55.565  1.00  0.00     0.087 C 
HETATM   25  N1  UNL     1      24.704  -1.331  55.903  1.00  0.00    -0.316 NA
HETATM   26  H1  UNL     1      25.081  -0.420  55.574  1.00  0.00     0.185 HD
ENDBRANCH  23  24
BRANCH  23  27
HETATM   27  C3  UNL     1      21.558  -1.504  54.120  1.00  0.00     0.043 C 
BRANCH  27  28
HETATM   28  C4  UNL     1      20.471  -0.447  53.909  1.00  0.00     0.223 C 
HETATM   29  F1  UNL     1      20.676   0.672  54.681  1.00  0.00    -0.255 F 
ENDBRANCH  27  28
ENDBRANCH  23  27
ENDBRANCH  22  23
ENDBRANCH  21  22
ENDBRANCH   1  21
TORSDOF 9
ENDMDL
MODEL 9
REMARK VINA RESULT:      -7.8      2.637      6.466
REMARK  9 active torsions:
REMARK  status: ('A' for Active; 'I' for Inactive)
REMARK    1  A    between atoms: C1_2  and  C2_3 
REMARK    2  A    between atoms: C2_3  and  C3_4 
REMARK    3  A    between atoms: C2_3  and  C5_7 
REMARK    4  A    between atoms: C3_4  and  C4_5 
REMARK    5  A    between atoms: C5_7  and  O1_8 
REMARK    6  A    between atoms: O1_8  and  C6_9 
REMARK    7  A    between atoms: C8_11  and  N2_12 
REMARK    8  A    between atoms: N2_12  and  C9_13 
REMARK    9  A    between atoms: C13_17  and  C14_18 
ROOT
HETATM    1  C6  UNL     1      22.995   3.058  49.504  1.00  0.00     0.169 A 
HETATM    2  C7  UNL     1      22.572   2.634  50.736  1.00  0.00     0.108 A 
HETATM    3  C8  UNL     1      21.739   1.521  50.911  1.00  0.00     0.133 A 
HETATM    4  N3  UNL     1      21.409   0.929  49.774  1.00  0.00    -0.224 NA
HETATM    5  C21 UNL     1      21.820   1.339  48.568  1.00  0.00     0.238 A 
HETATM    6  N4  UNL     1      22.619   2.410  48.409  1.00  0.00    -0.218 NA
ENDROOT
BRANCH   3   7
HETATM    7  N2  UNL     1      21.342   1.134  52.195  1.00  0.00    -0.341 N 
HETATM    8  H11 UNL     1      20.392   1.481  52.529  1.00  0.00     0.167 HD
BRANCH   7   9
HETATM    9  C9  UNL     1      22.039   0.333  53.126  1.00  0.00     0.034 A 
HETATM   10  C10 UNL     1      21.464  -0.462  54.089  1.00  0.00     0.029 A 
HETATM   11  C11 UNL     1      22.139  -1.249  54.996  1.00  0.00     0.003 A 
HETATM   12  C12 UNL     1      23.521  -1.236  54.930  1.00  0.00     0.012 A 
HETATM   13  C13 UNL     1      24.167  -0.464  53.992  1.00  0.00    -0.024 A 
HETATM   14  C20 UNL     1      23.421   0.292  53.125  1.00  0.00     0.041 A 
BRANCH  13  15
HETATM   15  C14 UNL     1      25.626  -0.458  53.930  1.00  0.00    -0.026 A 
HETATM   16  C15 UNL     1      26.400   0.236  54.836  1.00  0.00     0.012 A 
HETATM   17  C16 UNL     1      27.768   0.207  54.732  1.00  0.00     0.001 A 
HETATM   18  C17 UNL     1      28.406  -0.502  53.740  1.00  0.00     0.000 A 
HETATM   19  C18 UNL     1      27.666  -1.214  52.810  1.00  0.00     0.001 A 
HETATM   20  C19 UNL     1      26.285  -1.171  52.933  1.00  0.00     0.012 A 
ENDBRANCH  13  15
ENDBRANCH   7   9
ENDBRANCH   3   7
BRANCH   1  21
HETATM   21  O1  UNL     1      23.805   4.156  49.461  1.00  0.00    -0.334 OA
BRANCH  21  22
HETATM   22  C5  UNL     1      25.136   4.273  49.838  1.00  0.00     0.187 C 
BRANCH  22  23
HETATM   23  C2  UNL     1      25.484   5.738  49.959  1.00  0.00     0.052 C 
BRANCH  23  24
HETATM   24  C1  UNL     1      24.339   6.475  50.581  1.00  0.00     0.087 C 
HETATM   25  N1  UNL     1      24.503   6.790  51.799  1.00  0.00    -0.316 NA
HETATM   26  H1  UNL     1      25.372   6.550  52.318  1.00  0.00     0.185 HD
ENDBRANCH  23  24
BRANCH  23  27
HETATM   27  C3  UNL     1      25.806   6.298  48.596  1.00  0.00     0.043 C 
BRANCH  27  28
HETATM   28  C4  UNL     1      27.328   6.358  48.439  1.00  0.00     0.223 C 
HETATM   29  F1  UNL     1      27.887   5.109  48.305  1.00  0.00    -0.255 F 
ENDBRANCH  27  28
ENDBRANCH  23  27
ENDBRANCH  22  23
ENDBRANCH  21  22
ENDBRANCH   1  21
TORSDOF 9
ENDMDL
