MODEL 1
REMARK VINA RESULT:      -7.6      0.000      0.000
REMARK  4 active torsions:
REMARK  status: ('A' for Active; 'I' for Inactive)
REMARK    1  A    between atoms: O1_2  and  C2_3 
REMARK    2  A    between atoms: C5_6  and  N1_7 
REMARK    3  A    between atoms: N1_7  and  C6_8 
REMARK    4  A    between atoms: C10_14  and  O2_15 
ROOT
HETATM    1  C6  UNL     1      25.994   2.497  51.110  1.00  0.00     0.142 A 
HETATM    2  N2  UNL     1      27.182   2.443  51.718  1.00  0.00    -0.224 NA
HETATM    3  C7  UNL     1      27.499   1.725  52.800  1.00  0.00     0.236 A 
HETATM    4  N3  UNL     1      26.546   0.963  53.367  1.00  0.00    -0.241 NA
HETATM    5  C8  UNL     1      25.293   0.944  52.827  1.00  0.00     0.074 A 
HETATM    6  C9  UNL     1      24.366   0.146  53.454  1.00  0.00     0.070 A 
HETATM    7  C10 UNL     1      23.079   0.073  52.968  1.00  0.00     0.076 A 
HETATM    8  C12 UNL     1      22.759   0.817  51.852  1.00  0.00    -0.028 A 
HETATM    9  C13 UNL     1      21.377   0.736  51.335  1.00  0.00     0.051 C 
HETATM   10  C14 UNL     1      23.740   1.596  51.274  1.00  0.00     0.027 A 
HETATM   11  C15 UNL     1      25.040   1.711  51.709  1.00  0.00     0.039 A 
ENDROOT
BRANCH   1  12
HETATM   12  N1  UNL     1      25.660   3.251  49.974  1.00  0.00    -0.340 N 
HETATM   13  H6  UNL     1      24.918   2.950  49.320  1.00  0.00     0.167 HD
BRANCH  12  14
HETATM   14  C5  UNL     1      26.228   4.468  49.542  1.00  0.00     0.033 A 
HETATM   15  C4  UNL     1      27.389   4.542  48.832  1.00  0.00     0.032 A 
HETATM   16  C3  UNL     1      27.966   5.713  48.392  1.00  0.00     0.039 A 
HETATM   17  C2  UNL     1      27.375   6.922  48.662  1.00  0.00     0.068 A 
HETATM   18  C17 UNL     1      26.205   6.907  49.374  1.00  0.00     0.039 A 
HETATM   19  C16 UNL     1      25.678   5.707  49.784  1.00  0.00     0.032 A 
BRANCH  17  20
HETATM   20  O1  UNL     1      27.879   8.139  48.264  1.00  0.00    -0.356 OA
HETATM   21  C1  UNL     1      28.533   9.035  49.165  1.00  0.00     0.210 C 
ENDBRANCH  17  20
ENDBRANCH  12  14
ENDBRANCH   1  12
BRANCH   7  22
HETATM   22  O2  UNL     1      22.143  -0.716  53.581  1.00  0.00    -0.355 OA
HETATM   23  C11 UNL     1      22.218  -0.983  54.947  1.00  0.00     0.210 C 
ENDBRANCH   7  22
TORSDOF 4
ENDMDL
MODEL 2
REMARK VINA RESULT:      -7.6      4.499      5.965
REMARK  4 active torsions:
REMARK  status: ('A' for Active; 'I' for Inactive)
REMARK    1  A    between atoms: O1_2  and  C2_3 
REMARK    2  A    between atoms: C5_6  and  N1_7 
REMARK    3  A    between atoms: N1_7  and  C6_8 
REMARK    4  A    between atoms: C10_14  and  O2_15 
ROOT
HETATM    1  C6  UNL     1      22.878  -0.107  53.380  1.00  0.00     0.142 A 
HETATM    2  N2  UNL     1      23.122  -0.845  54.465  1.00  0.00    -0.224 NA
HETATM    3  C7  UNL     1      22.244  -1.592  55.143  1.00  0.00     0.236 A 
HETATM    4  N3  UNL     1      20.968  -1.628  54.718  1.00  0.00    -0.241 NA
HETATM    5  C8  UNL     1      20.608  -0.908  53.616  1.00  0.00     0.074 A 
HETATM    6  C9  UNL     1      19.290  -0.989  53.234  1.00  0.00     0.070 A 
HETATM    7  C10 UNL     1      18.849  -0.291  52.131  1.00  0.00     0.076 A 
HETATM    8  C12 UNL     1      19.760   0.478  51.437  1.00  0.00    -0.028 A 
HETATM    9  C13 UNL     1      19.281   1.224  50.255  1.00  0.00     0.051 C 
HETATM   10  C14 UNL     1      21.066   0.511  51.877  1.00  0.00     0.027 A 
HETATM   11  C15 UNL     1      21.569  -0.161  52.967  1.00  0.00     0.039 A 
ENDROOT
BRANCH   1  12
HETATM   12  N1  UNL     1      23.798   0.678  52.667  1.00  0.00    -0.340 N 
HETATM   13  H6  UNL     1      23.501   1.302  51.899  1.00  0.00     0.167 HD
BRANCH  12  14
HETATM   14  C5  UNL     1      25.195   0.757  52.850  1.00  0.00     0.033 A 
HETATM   15  C4  UNL     1      25.824   1.858  53.350  1.00  0.00     0.032 A 
HETATM   16  C3  UNL     1      27.183   1.964  53.545  1.00  0.00     0.039 A 
HETATM   17  C2  UNL     1      28.014   0.918  53.227  1.00  0.00     0.068 A 
HETATM   18  C17 UNL     1      27.435  -0.214  52.719  1.00  0.00     0.039 A 
HETATM   19  C16 UNL     1      26.073  -0.261  52.549  1.00  0.00     0.032 A 
BRANCH  17  20
HETATM   20  O1  UNL     1      29.380   0.935  53.386  1.00  0.00    -0.356 OA
HETATM   21  C1  UNL     1      30.144  -0.248  53.624  1.00  0.00     0.210 C 
ENDBRANCH  17  20
ENDBRANCH  12  14
ENDBRANCH   1  12
BRANCH   7  22
HETATM   22  O2  UNL     1      17.539  -0.359  51.738  1.00  0.00    -0.355 OA
HETATM   23  C11 UNL     1      16.542  -0.735  52.636  1.00  0.00     0.210 C 
ENDBRANCH   7  22
TORSDOF 4
ENDMDL
MODEL 3
REMARK VINA RESULT:      -7.5      4.344      5.840
REMARK  4 active torsions:
REMARK  status: ('A' for Active; 'I' for Inactive)
REMARK    1  A    between atoms: O1_2  and  C2_3 
REMARK    2  A    between atoms: C5_6  and  N1_7 
REMARK    3  A    between atoms: N1_7  and  C6_8 
REMARK    4  A    between atoms: C10_14  and  O2_15 
ROOT
HETATM    1  C6  UNL     1      23.577   2.187  51.198  1.00  0.00     0.142 A 
HETATM    2  N2  UNL     1      23.450   2.535  49.915  1.00  0.00    -0.224 NA
HETATM    3  C7  UNL     1      22.431   2.245  49.101  1.00  0.00     0.236 A 
HETATM    4  N3  UNL     1      21.403   1.527  49.588  1.00  0.00    -0.241 NA
HETATM    5  C8  UNL     1      21.430   1.117  50.890  1.00  0.00     0.074 A 
HETATM    6  C9  UNL     1      20.349   0.387  51.325  1.00  0.00     0.070 A 
HETATM    7  C10 UNL     1      20.303  -0.063  52.627  1.00  0.00     0.076 A 
HETATM    8  C12 UNL     1      21.358   0.239  53.461  1.00  0.00    -0.028 A 
HETATM    9  C13 UNL     1      21.303  -0.246  54.855  1.00  0.00     0.051 C 
HETATM   10  C14 UNL     1      22.409   0.977  52.956  1.00  0.00     0.027 A 
HETATM   11  C15 UNL     1      22.516   1.455  51.670  1.00  0.00     0.039 A 
ENDROOT
BRANCH   1  12
HETATM   12  N1  UNL     1      24.647   2.490  52.054  1.00  0.00    -0.340 N 
HETATM   13  H6  UNL     1      24.829   3.454  52.378  1.00  0.00     0.167 HD
BRANCH  12  14
HETATM   14  C5  UNL     1      25.605   1.604  52.593  1.00  0.00     0.033 A 
HETATM   15  C4  UNL     1      26.049   1.673  53.879  1.00  0.00     0.032 A 
HETATM   16  C3  UNL     1      26.978   0.821  54.435  1.00  0.00     0.039 A 
HETATM   17  C2  UNL     1      27.533  -0.186  53.685  1.00  0.00     0.068 A 
HETATM   18  C17 UNL     1      27.123  -0.302  52.383  1.00  0.00     0.039 A 
HETATM   19  C16 UNL     1      26.191   0.578  51.886  1.00  0.00     0.032 A 
BRANCH  17  20
HETATM   20  O1  UNL     1      28.466  -1.081  54.155  1.00  0.00    -0.356 OA
HETATM   21  C1  UNL     1      29.716  -1.308  53.501  1.00  0.00     0.210 C 
ENDBRANCH  17  20
ENDBRANCH  12  14
ENDBRANCH   1  12
BRANCH   7  22
HETATM   22  O2  UNL     1      19.235  -0.792  53.077  1.00  0.00    -0.355 OA
HETATM   23  C11 UNL     1      17.989  -0.688  52.461  1.00  0.00     0.210 C 
ENDBRANCH   7  22
TORSDOF 4
ENDMDL
MODEL 4
REMARK VINA RESULT:      -7.5      2.367      7.204
REMARK  4 active torsions:
REMARK  status: ('A' for Active; 'I' for Inactive)
REMARK    1  A    between atoms: O1_2  and  C2_3 
REMARK    2  A    between atoms: C5_6  and  N1_7 
REMARK    3  A    between atoms: N1_7  and  C6_8 
REMARK    4  A    between atoms: C10_14  and  O2_15 
ROOT
HETATM    1  C6  UNL     1      23.801   3.331  51.259  1.00  0.00     0.142 A 
HETATM    2  N2  UNL     1      22.728   3.728  51.948  1.00  0.00    -0.224 NA
HETATM    3  C7  UNL     1      22.310   4.985  52.130  1.00  0.00     0.236 A 
HETATM    4  N3  UNL     1      23.019   5.985  51.576  1.00  0.00    -0.241 NA
HETATM    5  C8  UNL     1      24.136   5.691  50.850  1.00  0.00     0.074 A 
HETATM    6  C9  UNL     1      24.815   6.759  50.311  1.00  0.00     0.070 A 
HETATM    7  C10 UNL     1      25.953   6.544  49.565  1.00  0.00     0.076 A 
HETATM    8  C12 UNL     1      26.379   5.246  49.381  1.00  0.00    -0.028 A 
HETATM    9  C13 UNL     1      27.600   5.022  48.580  1.00  0.00     0.051 C 
HETATM   10  C14 UNL     1      25.648   4.224  49.951  1.00  0.00     0.027 A 
HETATM   11  C15 UNL     1      24.507   4.371  50.704  1.00  0.00     0.039 A 
ENDROOT
BRANCH   1  12
HETATM   12  N1  UNL     1      24.242   2.013  51.067  1.00  0.00    -0.340 N 
HETATM   13  H6  UNL     1      23.911   1.438  50.275  1.00  0.00     0.167 HD
BRANCH  12  14
HETATM   14  C5  UNL     1      25.151   1.278  51.858  1.00  0.00     0.033 A 
HETATM   15  C4  UNL     1      24.762   0.389  52.815  1.00  0.00     0.032 A 
HETATM   16  C3  UNL     1      25.624  -0.346  53.600  1.00  0.00     0.039 A 
HETATM   17  C2  UNL     1      26.982  -0.212  53.452  1.00  0.00     0.068 A 
HETATM   18  C17 UNL     1      27.429   0.669  52.504  1.00  0.00     0.039 A 
HETATM   19  C16 UNL     1      26.521   1.373  51.751  1.00  0.00     0.032 A 
BRANCH  17  20
HETATM   20  O1  UNL     1      27.915  -0.903  54.190  1.00  0.00    -0.356 OA
HETATM   21  C1  UNL     1      29.319  -0.808  53.942  1.00  0.00     0.210 C 
ENDBRANCH  17  20
ENDBRANCH  12  14
ENDBRANCH   1  12
BRANCH   7  22
HETATM   22  O2  UNL     1      26.642   7.596  49.022  1.00  0.00    -0.355 OA
HETATM   23  C11 UNL     1      27.090   8.646  49.822  1.00  0.00     0.210 C 
ENDBRANCH   7  22
TORSDOF 4
ENDMDL
MODEL 5
REMARK VINA RESULT:      -7.3      2.858      4.242
REMARK  4 active torsions:
REMARK  status: ('A' for Active; 'I' for Inactive)
REMARK    1  A    between atoms: O1_2  and  C2_3 
REMARK    2  A    between atoms: C5_6  and  N1_7 
REMARK    3  A    between atoms: N1_7  and  C6_8 
REMARK    4  A    between atoms: C10_14  and  O2_15 
ROOT
HETATM    1  C6  UNL     1      24.035   2.242  52.966  1.00  0.00     0.142 A 
HETATM    2  N2  UNL     1      22.947   1.470  52.891  1.00  0.00    -0.224 NA
HETATM    3  C7  UNL     1      22.882   0.151  53.095  1.00  0.00     0.236 A 
HETATM    4  N3  UNL     1      24.012  -0.507  53.412  1.00  0.00    -0.241 NA
HETATM    5  C8  UNL     1      25.184   0.186  53.515  1.00  0.00     0.074 A 
HETATM    6  C9  UNL     1      26.301  -0.546  53.842  1.00  0.00     0.070 A 
HETATM    7  C10 UNL     1      27.522   0.081  53.965  1.00  0.00     0.076 A 
HETATM    8  C12 UNL     1      27.582   1.442  53.752  1.00  0.00    -0.028 A 
HETATM    9  C13 UNL     1      28.893   2.109  53.885  1.00  0.00     0.051 C 
HETATM   10  C14 UNL     1      26.421   2.111  53.428  1.00  0.00     0.027 A 
HETATM   11  C15 UNL     1      25.174   1.546  53.291  1.00  0.00     0.039 A 
ENDROOT
BRANCH   1  12
HETATM   12  N1  UNL     1      24.105   3.627  52.751  1.00  0.00    -0.340 N 
HETATM   13  H6  UNL     1      24.182   4.296  53.535  1.00  0.00     0.167 HD
BRANCH  12  14
HETATM   14  C5  UNL     1      24.086   4.316  51.520  1.00  0.00     0.033 A 
HETATM   15  C4  UNL     1      24.371   3.725  50.326  1.00  0.00     0.032 A 
HETATM   16  C3  UNL     1      24.356   4.369  49.108  1.00  0.00     0.039 A 
HETATM   17  C2  UNL     1      24.039   5.702  49.032  1.00  0.00     0.068 A 
HETATM   18  C17 UNL     1      23.744   6.348  50.203  1.00  0.00     0.039 A 
HETATM   19  C16 UNL     1      23.775   5.651  51.387  1.00  0.00     0.032 A 
BRANCH  17  20
HETATM   20  O1  UNL     1      24.000   6.426  47.863  1.00  0.00    -0.356 OA
HETATM   21  C1  UNL     1      24.805   7.585  47.645  1.00  0.00     0.210 C 
ENDBRANCH  17  20
ENDBRANCH  12  14
ENDBRANCH   1  12
BRANCH   7  22
HETATM   22  O2  UNL     1      28.645  -0.632  54.289  1.00  0.00    -0.355 OA
HETATM   23  C11 UNL     1      29.202  -1.536  53.386  1.00  0.00     0.210 C 
ENDBRANCH   7  22
TORSDOF 4
ENDMDL
MODEL 6
REMARK VINA RESULT:      -7.2      3.037      4.392
REMARK  4 active torsions:
REMARK  status: ('A' for Active; 'I' for Inactive)
REMARK    1  A    between atoms: O1_2  and  C2_3 
REMARK    2  A    between atoms: C5_6  and  N1_7 
REMARK    3  A    between atoms: N1_7  and  C6_8 
REMARK    4  A    between atoms: C10_14  and  O2_15 
ROOT
HETATM    1  C6  UNL     1      23.921  -0.062  53.406  1.00  0.00     0.142 A 
HETATM    2  N2  UNL     1      24.551  -0.614  54.446  1.00  0.00    -0.224 NA
HETATM    3  C7  UNL     1      24.005  -1.349  55.419  1.00  0.00     0.236 A 
HETATM    4  N3  UNL     1      22.679  -1.580  55.383  1.00  0.00    -0.241 NA
HETATM    5  C8  UNL     1      21.937  -1.061  54.363  1.00  0.00     0.074 A 
HETATM    6  C9  UNL     1      20.589  -1.333  54.386  1.00  0.00     0.070 A 
HETATM    7  C10 UNL     1      19.771  -0.844  53.390  1.00  0.00     0.076 A 
HETATM    8  C12 UNL     1      20.342  -0.086  52.389  1.00  0.00    -0.028 A 
HETATM    9  C13 UNL     1      19.461   0.435  51.325  1.00  0.00     0.051 C 
HETATM   10  C14 UNL     1      21.701   0.146  52.430  1.00  0.00     0.027 A 
HETATM   11  C15 UNL     1      22.570  -0.312  53.393  1.00  0.00     0.039 A 
ENDROOT
BRANCH   1  12
HETATM   12  N1  UNL     1      24.493   0.711  52.383  1.00  0.00    -0.340 N 
HETATM   13  H6  UNL     1      25.205   0.323  51.742  1.00  0.00     0.167 HD
BRANCH  12  14
HETATM   14  C5  UNL     1      24.226   2.058  52.062  1.00  0.00     0.033 A 
HETATM   15  C4  UNL     1      24.051   3.032  52.999  1.00  0.00     0.032 A 
HETATM   16  C3  UNL     1      23.795   4.356  52.717  1.00  0.00     0.039 A 
HETATM   17  C2  UNL     1      23.695   4.781  51.416  1.00  0.00     0.068 A 
HETATM   18  C17 UNL     1      23.862   3.844  50.431  1.00  0.00     0.039 A 
HETATM   19  C16 UNL     1      24.117   2.538  50.775  1.00  0.00     0.032 A 
BRANCH  17  20
HETATM   20  O1  UNL     1      23.441   6.080  51.041  1.00  0.00    -0.356 OA
HETATM   21  C1  UNL     1      23.575   6.535  49.693  1.00  0.00     0.210 C 
ENDBRANCH  17  20
ENDBRANCH  12  14
ENDBRANCH   1  12
BRANCH   7  22
HETATM   22  O2  UNL     1      18.428  -1.105  53.398  1.00  0.00    -0.355 OA
HETATM   23  C11 UNL     1      17.951  -2.393  53.637  1.00  0.00     0.210 C 
ENDBRANCH   7  22
TORSDOF 4
ENDMDL
MODEL 7
REMARK VINA RESULT:      -7.2      2.462      7.620
REMARK  4 active torsions:
REMARK  status: ('A' for Active; 'I' for Inactive)
REMARK    1  A    between atoms: O1_2  and  C2_3 
REMARK    2  A    between atoms: C5_6  and  N1_7 
REMARK    3  A    between atoms: N1_7  and  C6_8 
REMARK    4  A    between atoms: C10_14  and  O2_15 
ROOT
HETATM    1  C6  UNL     1      24.497   4.316  49.956  1.00  0.00     0.142 A 
HETATM    2  N2  UNL     1      23.299   4.853  50.205  1.00  0.00    -0.224 NA
HETATM    3  C7  UNL     1      22.916   6.110  49.961  1.00  0.00     0.236 A 
HETATM    4  N3  UNL     1      23.803   6.957  49.408  1.00  0.00    -0.241 NA
HETATM    5  C8  UNL     1      25.059   6.512  49.113  1.00  0.00     0.074 A 
HETATM    6  C9  UNL     1      25.917   7.428  48.550  1.00  0.00     0.070 A 
HETATM    7  C10 UNL     1      27.203   7.055  48.224  1.00  0.00     0.076 A 
HETATM    8  C12 UNL     1      27.592   5.757  48.478  1.00  0.00    -0.028 A 
HETATM    9  C13 UNL     1      28.972   5.364  48.127  1.00  0.00     0.051 C 
HETATM   10  C14 UNL     1      26.678   4.893  49.045  1.00  0.00     0.027 A 
HETATM   11  C15 UNL     1      25.383   5.201  49.392  1.00  0.00     0.039 A 
ENDROOT
BRANCH   1  12
HETATM   12  N1  UNL     1      24.902   2.997  50.212  1.00  0.00    -0.340 N 
HETATM   13  H6  UNL     1      24.810   2.252  49.501  1.00  0.00     0.167 HD
BRANCH  12  14
HETATM   14  C5  UNL     1      25.466   2.476  51.395  1.00  0.00     0.033 A 
HETATM   15  C4  UNL     1      24.957   2.716  52.636  1.00  0.00     0.032 A 
HETATM   16  C3  UNL     1      25.481   2.218  53.809  1.00  0.00     0.039 A 
HETATM   17  C2  UNL     1      26.597   1.420  53.787  1.00  0.00     0.068 A 
HETATM   18  C17 UNL     1      27.152   1.146  52.565  1.00  0.00     0.039 A 
HETATM   19  C16 UNL     1      26.583   1.670  51.430  1.00  0.00     0.032 A 
BRANCH  17  20
HETATM   20  O1  UNL     1      27.189   0.881  54.905  1.00  0.00    -0.356 OA
HETATM   21  C1  UNL     1      28.466   0.240  54.870  1.00  0.00     0.210 C 
ENDBRANCH  17  20
ENDBRANCH  12  14
ENDBRANCH   1  12
BRANCH   7  22
HETATM   22  O2  UNL     1      28.070   7.954  47.664  1.00  0.00    -0.355 OA
HETATM   23  C11 UNL     1      28.632   8.977  48.427  1.00  0.00     0.210 C 
ENDBRANCH   7  22
TORSDOF 4
ENDMDL
MODEL 8
REMARK VINA RESULT:      -7.1      4.242      8.792
REMARK  4 active torsions:
REMARK  status: ('A' for Active; 'I' for Inactive)
REMARK    1  A    between atoms: O1_2  and  C2_3 
REMARK    2  A    between atoms: C5_6  and  N1_7 
REMARK    3  A    between atoms: N1_7  and  C6_8 
REMARK    4  A    between atoms: C10_14  and  O2_15 
ROOT
HETATM    1  C6  UNL     1      29.245   7.244  48.339  1.00  0.00     0.142 A 
HETATM    2  N2  UNL     1      29.221   8.484  48.832  1.00  0.00    -0.224 NA
HETATM    3  C7  UNL     1      30.266   9.197  49.265  1.00  0.00     0.236 A 
HETATM    4  N3  UNL     1      31.489   8.640  49.214  1.00  0.00    -0.241 NA
HETATM    5  C8  UNL     1      31.628   7.373  48.727  1.00  0.00     0.074 A 
HETATM    6  C9  UNL     1      32.905   6.862  48.702  1.00  0.00     0.070 A 
HETATM    7  C10 UNL     1      33.128   5.590  48.224  1.00  0.00     0.076 A 
HETATM    8  C12 UNL     1      32.045   4.860  47.780  1.00  0.00    -0.028 A 
HETATM    9  C13 UNL     1      32.290   3.495  47.269  1.00  0.00     0.051 C 
HETATM   10  C14 UNL     1      30.794   5.436  47.834  1.00  0.00     0.027 A 
HETATM   11  C15 UNL     1      30.505   6.698  48.298  1.00  0.00     0.039 A 
ENDROOT
BRANCH   1  12
HETATM   12  N1  UNL     1      28.149   6.493  47.884  1.00  0.00    -0.340 N 
HETATM   13  H6  UNL     1      27.934   6.398  46.878  1.00  0.00     0.167 HD
BRANCH  12  14
HETATM   14  C5  UNL     1      27.205   5.783  48.656  1.00  0.00     0.033 A 
HETATM   15  C4  UNL     1      26.101   6.361  49.207  1.00  0.00     0.032 A 
HETATM   16  C3  UNL     1      25.159   5.694  49.960  1.00  0.00     0.039 A 
HETATM   17  C2  UNL     1      25.293   4.350  50.206  1.00  0.00     0.068 A 
HETATM   18  C17 UNL     1      26.385   3.717  49.676  1.00  0.00     0.039 A 
HETATM   19  C16 UNL     1      27.290   4.436  48.933  1.00  0.00     0.032 A 
BRANCH  17  20
HETATM   20  O1  UNL     1      24.405   3.604  50.946  1.00  0.00    -0.356 OA
HETATM   21  C1  UNL     1      24.605   2.217  51.223  1.00  0.00     0.210 C 
ENDBRANCH  17  20
ENDBRANCH  12  14
ENDBRANCH   1  12
BRANCH   7  22
HETATM   22  O2  UNL     1      34.392   5.065  48.194  1.00  0.00    -0.355 OA
HETATM   23  C11 UNL     1      35.365   5.494  49.095  1.00  0.00     0.210 C 
ENDBRANCH   7  22
TORSDOF 4
ENDMDL
MODEL 9
REMARK VINA RESULT:      -6.9      1.769      2.935
REMARK  4 active torsions:
REMARK  status: ('A' for Active; 'I' for Inactive)
REMARK    1  A    between atoms: O1_2  and  C2_3 
REMARK    2  A    between atoms: C5_6  and  N1_7 
REMARK    3  A    between atoms: N1_7  and  C6_8 
REMARK    4  A    between atoms: C10_14  and  O2_15 
ROOT
HETATM    1  C6  UNL     1      25.248   2.834  50.379  1.00  0.00     0.142 A 
HETATM    2  N2  UNL     1      24.002   3.282  50.207  1.00  0.00    -0.224 NA
HETATM    3  C7  UNL     1      22.909   2.891  50.871  1.00  0.00     0.236 A 
HETATM    4  N3  UNL     1      23.037   1.947  51.820  1.00  0.00    -0.241 NA
HETATM    5  C8  UNL     1      24.269   1.418  52.077  1.00  0.00     0.074 A 
HETATM    6  C9  UNL     1      24.331   0.457  53.059  1.00  0.00     0.070 A 
HETATM    7  C10 UNL     1      25.539  -0.125  53.377  1.00  0.00     0.076 A 
HETATM    8  C12 UNL     1      26.661   0.283  52.688  1.00  0.00    -0.028 A 
HETATM    9  C13 UNL     1      27.954  -0.345  53.033  1.00  0.00     0.051 C 
HETATM   10  C14 UNL     1      26.525   1.252  51.716  1.00  0.00     0.027 A 
HETATM   11  C15 UNL     1      25.351   1.871  51.353  1.00  0.00     0.039 A 
ENDROOT
BRANCH   1  12
HETATM   12  N1  UNL     1      26.397   3.242  49.683  1.00  0.00    -0.340 N 
HETATM   13  H6  UNL     1      27.129   2.571  49.400  1.00  0.00     0.167 HD
BRANCH  12  14
HETATM   14  C5  UNL     1      26.743   4.546  49.270  1.00  0.00     0.033 A 
HETATM   15  C4  UNL     1      25.970   5.641  49.519  1.00  0.00     0.032 A 
HETATM   16  C3  UNL     1      26.282   6.926  49.134  1.00  0.00     0.039 A 
HETATM   17  C2  UNL     1      27.442   7.182  48.445  1.00  0.00     0.068 A 
HETATM   18  C17 UNL     1      28.258   6.118  48.167  1.00  0.00     0.039 A 
HETATM   19  C16 UNL     1      27.892   4.858  48.578  1.00  0.00     0.032 A 
BRANCH  17  20
HETATM   20  O1  UNL     1      27.834   8.430  48.021  1.00  0.00    -0.356 OA
HETATM   21  C1  UNL     1      27.112   9.174  47.038  1.00  0.00     0.210 C 
ENDBRANCH  17  20
ENDBRANCH  12  14
ENDBRANCH   1  12
BRANCH   7  22
HETATM   22  O2  UNL     1      25.618  -1.084  54.351  1.00  0.00    -0.355 OA
HETATM   23  C11 UNL     1      25.387  -0.764  55.688  1.00  0.00     0.210 C 
ENDBRANCH   7  22
TORSDOF 4
ENDMDL
