MODEL 1
REMARK VINA RESULT:      -7.2      0.000      0.000
REMARK  2 active torsions:
REMARK  status: ('A' for Active; 'I' for Inactive)
REMARK    1  A    between atoms: N1_2  and  N2_3 
REMARK    2  A    between atoms: N2_3  and  C2_4 
ROOT
HETATM    1  C2  UNL     1      26.029  -0.564  54.423  1.00  0.00     0.149 A 
HETATM    2  N3  UNL     1      25.607  -0.905  55.662  1.00  0.00    -0.223 NA
HETATM    3  C3  UNL     1      24.266  -1.127  55.769  1.00  0.00     0.236 A 
HETATM    4  N4  UNL     1      23.489  -0.996  54.682  1.00  0.00    -0.241 NA
HETATM    5  C4  UNL     1      23.938  -0.655  53.470  1.00  0.00     0.073 A 
HETATM    6  C5  UNL     1      25.277  -0.415  53.276  1.00  0.00     0.041 A 
HETATM    7  C6  UNL     1      26.080  -0.033  52.096  1.00  0.00     0.212 C 
HETATM    8  O1  UNL     1      26.575   1.201  52.193  1.00  0.00    -0.384 OA
HETATM    9  C7  UNL     1      25.901   2.337  52.202  1.00  0.00     0.194 C 
HETATM   10  C8  UNL     1      24.881   2.600  53.259  1.00  0.00     0.201 C 
HETATM   11  O2  UNL     1      23.816   1.718  53.332  1.00  0.00    -0.346 OA
HETATM   12  C9  UNL     1      22.640   1.823  52.607  1.00  0.00     0.100 A 
HETATM   13  C10 UNL     1      21.773   2.646  52.059  1.00  0.00     0.039 A 
HETATM   14  C11 UNL     1      20.653   1.956  51.384  1.00  0.00     0.206 A 
HETATM   15  O3  UNL     1      20.947   0.605  51.570  1.00  0.00    -0.344 OA
HETATM   16  C12 UNL     1      22.115   0.495  52.303  1.00  0.00     0.104 A 
HETATM   17  C13 UNL     1      22.698  -0.655  52.687  1.00  0.00     0.072 C 
ENDROOT
BRANCH   1  18
HETATM   18  N2  UNL     1      27.448  -0.345  54.378  1.00  0.00    -0.305 N 
HETATM   19  H5  UNL     1      28.217  -0.913  53.940  1.00  0.00     0.182 HD
BRANCH  18  20
HETATM   20  N1  UNL     1      28.044   0.750  54.960  1.00  0.00    -0.243 NA
HETATM   21  C1  UNL     1      29.239   1.119  54.251  1.00  0.00     0.133 C 
HETATM   22  H4  UNL     1      27.432   1.553  55.129  1.00  0.00     0.146 HD
ENDBRANCH  18  20
ENDBRANCH   1  18
TORSDOF 2
ENDMDL
MODEL 2
REMARK VINA RESULT:      -6.6      3.136      4.516
REMARK  2 active torsions:
REMARK  status: ('A' for Active; 'I' for Inactive)
REMARK    1  A    between atoms: N1_2  and  N2_3 
REMARK    2  A    between atoms: N2_3  and  C2_4 
ROOT
HETATM    1  C2  UNL     1      24.043   3.498  50.880  1.00  0.00     0.149 A 
HETATM    2  N3  UNL     1      23.622   3.315  49.608  1.00  0.00    -0.223 NA
HETATM    3  C3  UNL     1      22.447   2.637  49.486  1.00  0.00     0.236 A 
HETATM    4  N4  UNL     1      21.813   2.213  50.592  1.00  0.00    -0.241 NA
HETATM    5  C4  UNL     1      22.257   2.410  51.837  1.00  0.00     0.073 A 
HETATM    6  C5  UNL     1      23.435   3.086  52.049  1.00  0.00     0.041 A 
HETATM    7  C6  UNL     1      24.185   3.466  53.264  1.00  0.00     0.212 C 
HETATM    8  O1  UNL     1      25.340   2.809  53.376  1.00  0.00    -0.384 OA
HETATM    9  C7  UNL     1      25.510   1.516  53.579  1.00  0.00     0.194 C 
HETATM   10  C8  UNL     1      24.975   0.523  52.602  1.00  0.00     0.201 C 
HETATM   11  O2  UNL     1      23.606   0.529  52.393  1.00  0.00    -0.346 OA
HETATM   12  C9  UNL     1      22.680  -0.176  53.144  1.00  0.00     0.100 A 
HETATM   13  C10 UNL     1      22.453  -1.267  53.843  1.00  0.00     0.039 A 
HETATM   14  C11 UNL     1      21.087  -1.331  54.404  1.00  0.00     0.206 A 
HETATM   15  O3  UNL     1      20.505  -0.137  53.978  1.00  0.00    -0.344 OA
HETATM   16  C12 UNL     1      21.423   0.566  53.219  1.00  0.00     0.104 A 
HETATM   17  C13 UNL     1      21.211   1.755  52.629  1.00  0.00     0.072 C 
ENDROOT
BRANCH   1  18
HETATM   18  N2  UNL     1      25.285   4.219  50.940  1.00  0.00    -0.305 N 
HETATM   19  H5  UNL     1      25.492   5.208  51.228  1.00  0.00     0.182 HD
BRANCH  18  20
HETATM   20  N1  UNL     1      26.487   3.645  50.594  1.00  0.00    -0.243 NA
HETATM   21  C1  UNL     1      26.929   4.120  49.310  1.00  0.00     0.133 C 
HETATM   22  H4  UNL     1      27.225   3.698  51.300  1.00  0.00     0.146 HD
ENDBRANCH  18  20
ENDBRANCH   1  18
TORSDOF 2
ENDMDL
MODEL 3
REMARK VINA RESULT:      -6.4      2.115      3.414
REMARK  2 active torsions:
REMARK  status: ('A' for Active; 'I' for Inactive)
REMARK    1  A    between atoms: N1_2  and  N2_3 
REMARK    2  A    between atoms: N2_3  and  C2_4 
ROOT
HETATM    1  C2  UNL     1      27.221   2.166  52.878  1.00  0.00     0.149 A 
HETATM    2  N3  UNL     1      27.501   2.539  51.608  1.00  0.00    -0.223 NA
HETATM    3  C3  UNL     1      26.417   2.912  50.870  1.00  0.00     0.236 A 
HETATM    4  N4  UNL     1      25.198   2.884  51.431  1.00  0.00    -0.241 NA
HETATM    5  C4  UNL     1      24.955   2.509  52.690  1.00  0.00     0.073 A 
HETATM    6  C5  UNL     1      25.992   2.119  53.503  1.00  0.00     0.041 A 
HETATM    7  C6  UNL     1      26.067   1.661  54.906  1.00  0.00     0.212 C 
HETATM    8  O1  UNL     1      26.412   0.378  55.006  1.00  0.00    -0.384 OA
HETATM    9  C7  UNL     1      25.713  -0.673  54.618  1.00  0.00     0.194 C 
HETATM   10  C8  UNL     1      25.322  -0.830  53.186  1.00  0.00     0.201 C 
HETATM   11  O2  UNL     1      24.530   0.167  52.643  1.00  0.00    -0.346 OA
HETATM   12  C9  UNL     1      23.146   0.207  52.694  1.00  0.00     0.100 A 
HETATM   13  C10 UNL     1      22.040  -0.504  52.711  1.00  0.00     0.039 A 
HETATM   14  C11 UNL     1      20.814   0.319  52.783  1.00  0.00     0.206 A 
HETATM   15  O3  UNL     1      21.303   1.624  52.826  1.00  0.00    -0.344 OA
HETATM   16  C12 UNL     1      22.684   1.591  52.764  1.00  0.00     0.104 A 
HETATM   17  C13 UNL     1      23.498   2.661  52.766  1.00  0.00     0.072 C 
ENDROOT
BRANCH   1  18
HETATM   18  N2  UNL     1      28.403   1.787  53.601  1.00  0.00    -0.305 N 
HETATM   19  H5  UNL     1      28.685   1.961  54.599  1.00  0.00     0.182 HD
BRANCH  18  20
HETATM   20  N1  UNL     1      29.424   1.070  53.020  1.00  0.00    -0.243 NA
HETATM   21  C1  UNL     1      29.581  -0.208  53.661  1.00  0.00     0.133 C 
HETATM   22  H4  UNL     1      29.387   0.988  52.001  1.00  0.00     0.146 HD
ENDBRANCH  18  20
ENDBRANCH   1  18
TORSDOF 2
ENDMDL
MODEL 4
REMARK VINA RESULT:      -6.3      2.995      6.024
REMARK  2 active torsions:
REMARK  status: ('A' for Active; 'I' for Inactive)
REMARK    1  A    between atoms: N1_2  and  N2_3 
REMARK    2  A    between atoms: N2_3  and  C2_4 
ROOT
HETATM    1  C2  UNL     1      21.818   3.490  51.622  1.00  0.00     0.149 A 
HETATM    2  N3  UNL     1      22.107   4.603  52.333  1.00  0.00    -0.223 NA
HETATM    3  C3  UNL     1      23.417   4.732  52.687  1.00  0.00     0.236 A 
HETATM    4  N4  UNL     1      24.294   3.784  52.319  1.00  0.00    -0.241 NA
HETATM    5  C4  UNL     1      23.975   2.693  51.615  1.00  0.00     0.073 A 
HETATM    6  C5  UNL     1      22.676   2.487  51.219  1.00  0.00     0.041 A 
HETATM    7  C6  UNL     1      22.005   1.418  50.450  1.00  0.00     0.212 C 
HETATM    8  O1  UNL     1      21.167   0.700  51.197  1.00  0.00    -0.384 OA
HETATM    9  C7  UNL     1      21.474  -0.104  52.199  1.00  0.00     0.194 C 
HETATM   10  C8  UNL     1      22.184   0.426  53.400  1.00  0.00     0.201 C 
HETATM   11  O2  UNL     1      23.430   0.992  53.189  1.00  0.00    -0.346 OA
HETATM   12  C9  UNL     1      24.630   0.300  53.170  1.00  0.00     0.100 A 
HETATM   13  C10 UNL     1      25.302  -0.720  53.657  1.00  0.00     0.039 A 
HETATM   14  C11 UNL     1      26.669  -0.839  53.107  1.00  0.00     0.206 A 
HETATM   15  O3  UNL     1      26.750   0.225  52.208  1.00  0.00    -0.344 OA
HETATM   16  C12 UNL     1      25.558   0.926  52.232  1.00  0.00     0.104 A 
HETATM   17  C13 UNL     1      25.275   2.023  51.507  1.00  0.00     0.072 C 
ENDROOT
BRANCH   1  18
HETATM   18  N2  UNL     1      20.424   3.414  51.281  1.00  0.00    -0.305 N 
HETATM   19  H5  UNL     1      19.934   3.532  50.358  1.00  0.00     0.182 HD
BRANCH  18  20
HETATM   20  N1  UNL     1      19.451   3.148  52.217  1.00  0.00    -0.243 NA
HETATM   21  C1  UNL     1      18.241   2.699  51.582  1.00  0.00     0.133 C 
HETATM   22  H4  UNL     1      19.730   2.538  52.990  1.00  0.00     0.146 HD
ENDBRANCH  18  20
ENDBRANCH   1  18
TORSDOF 2
ENDMDL
MODEL 5
REMARK VINA RESULT:      -6.3      2.333      5.197
REMARK  2 active torsions:
REMARK  status: ('A' for Active; 'I' for Inactive)
REMARK    1  A    between atoms: N1_2  and  N2_3 
REMARK    2  A    between atoms: N2_3  and  C2_4 
ROOT
HETATM    1  C2  UNL     1      23.057   1.264  52.351  1.00  0.00     0.149 A 
HETATM    2  N3  UNL     1      22.393   0.090  52.244  1.00  0.00    -0.223 NA
HETATM    3  C3  UNL     1      22.903  -0.927  52.994  1.00  0.00     0.236 A 
HETATM    4  N4  UNL     1      23.985  -0.703  53.757  1.00  0.00    -0.241 NA
HETATM    5  C4  UNL     1      24.620   0.471  53.840  1.00  0.00     0.073 A 
HETATM    6  C5  UNL     1      24.170   1.549  53.116  1.00  0.00     0.041 A 
HETATM    7  C6  UNL     1      24.626   2.948  52.986  1.00  0.00     0.212 C 
HETATM    8  O1  UNL     1      25.119   3.214  51.776  1.00  0.00    -0.384 OA
HETATM    9  C7  UNL     1      26.217   2.722  51.232  1.00  0.00     0.194 C 
HETATM   10  C8  UNL     1      26.365   1.250  51.033  1.00  0.00     0.201 C 
HETATM   11  O2  UNL     1      26.315   0.458  52.168  1.00  0.00    -0.346 OA
HETATM   12  C9  UNL     1      27.398   0.145  52.974  1.00  0.00     0.100 A 
HETATM   13  C10 UNL     1      28.692  -0.084  53.011  1.00  0.00     0.039 A 
HETATM   14  C11 UNL     1      29.196  -0.385  54.367  1.00  0.00     0.206 A 
HETATM   15  O3  UNL     1      28.055  -0.296  55.164  1.00  0.00    -0.344 OA
HETATM   16  C12 UNL     1      26.969   0.006  54.363  1.00  0.00     0.104 A 
HETATM   17  C13 UNL     1      25.700   0.155  54.781  1.00  0.00     0.072 C 
ENDROOT
BRANCH   1  18
HETATM   18  N2  UNL     1      22.470   2.292  51.537  1.00  0.00    -0.305 N 
HETATM   19  H5  UNL     1      21.906   3.140  51.801  1.00  0.00     0.182 HD
BRANCH  18  20
HETATM   20  N1  UNL     1      22.583   2.301  50.166  1.00  0.00    -0.243 NA
HETATM   21  C1  UNL     1      22.352   3.620  49.642  1.00  0.00     0.133 C 
HETATM   22  H4  UNL     1      23.435   1.880  49.786  1.00  0.00     0.146 HD
ENDBRANCH  18  20
ENDBRANCH   1  18
TORSDOF 2
ENDMDL
MODEL 6
REMARK VINA RESULT:      -6.2      2.260      2.905
REMARK  2 active torsions:
REMARK  status: ('A' for Active; 'I' for Inactive)
REMARK    1  A    between atoms: N1_2  and  N2_3 
REMARK    2  A    between atoms: N2_3  and  C2_4 
ROOT
HETATM    1  C2  UNL     1      25.130   1.809  52.463  1.00  0.00     0.149 A 
HETATM    2  N3  UNL     1      24.968   0.914  53.464  1.00  0.00    -0.223 NA
HETATM    3  C3  UNL     1      23.803   0.207  53.417  1.00  0.00     0.236 A 
HETATM    4  N4  UNL     1      22.932   0.440  52.422  1.00  0.00    -0.241 NA
HETATM    5  C4  UNL     1      23.122   1.334  51.447  1.00  0.00     0.073 A 
HETATM    6  C5  UNL     1      24.270   2.088  51.420  1.00  0.00     0.041 A 
HETATM    7  C6  UNL     1      24.779   3.133  50.507  1.00  0.00     0.212 C 
HETATM    8  O1  UNL     1      24.822   4.335  51.081  1.00  0.00    -0.384 OA
HETATM    9  C7  UNL     1      23.801   5.070  51.480  1.00  0.00     0.194 C 
HETATM   10  C8  UNL     1      22.854   4.548  52.509  1.00  0.00     0.201 C 
HETATM   11  O2  UNL     1      22.172   3.384  52.198  1.00  0.00    -0.346 OA
HETATM   12  C9  UNL     1      20.972   3.320  51.510  1.00  0.00     0.100 A 
HETATM   13  C10 UNL     1      19.827   3.920  51.267  1.00  0.00     0.039 A 
HETATM   14  C11 UNL     1      18.959   3.173  50.332  1.00  0.00     0.206 A 
HETATM   15  O3  UNL     1      19.719   2.048  50.014  1.00  0.00    -0.344 OA
HETATM   16  C12 UNL     1      20.915   2.101  50.707  1.00  0.00     0.104 A 
HETATM   17  C13 UNL     1      21.892   1.179  50.663  1.00  0.00     0.072 C 
ENDROOT
BRANCH   1  18
HETATM   18  N2  UNL     1      26.374   2.519  52.570  1.00  0.00    -0.305 N 
HETATM   19  H5  UNL     1      26.930   3.044  51.849  1.00  0.00     0.182 HD
BRANCH  18  20
HETATM   20  N1  UNL     1      27.070   2.612  53.753  1.00  0.00    -0.243 NA
HETATM   21  C1  UNL     1      28.470   2.364  53.545  1.00  0.00     0.133 C 
HETATM   22  H4  UNL     1      26.906   3.462  54.301  1.00  0.00     0.146 HD
ENDBRANCH  18  20
ENDBRANCH   1  18
TORSDOF 2
ENDMDL
MODEL 7
REMARK VINA RESULT:      -6.2      2.878      5.589
REMARK  2 active torsions:
REMARK  status: ('A' for Active; 'I' for Inactive)
REMARK    1  A    between atoms: N1_2  and  N2_3 
REMARK    2  A    between atoms: N2_3  and  C2_4 
ROOT
HETATM    1  C2  UNL     1      21.025  -0.078  53.167  1.00  0.00     0.149 A 
HETATM    2  N3  UNL     1      21.863  -1.087  53.496  1.00  0.00    -0.223 NA
HETATM    3  C3  UNL     1      23.185  -0.756  53.497  1.00  0.00     0.236 A 
HETATM    4  N4  UNL     1      23.549   0.498  53.183  1.00  0.00    -0.241 NA
HETATM    5  C4  UNL     1      22.694   1.473  52.860  1.00  0.00     0.073 A 
HETATM    6  C5  UNL     1      21.343   1.223  52.836  1.00  0.00     0.041 A 
HETATM    7  C6  UNL     1      20.160   2.055  52.533  1.00  0.00     0.212 C 
HETATM    8  O1  UNL     1      19.553   1.687  51.406  1.00  0.00    -0.384 OA
HETATM    9  C7  UNL     1      20.025   1.771  50.176  1.00  0.00     0.194 C 
HETATM   10  C8  UNL     1      21.281   1.056  49.801  1.00  0.00     0.201 C 
HETATM   11  O2  UNL     1      22.428   1.402  50.496  1.00  0.00    -0.346 OA
HETATM   12  C9  UNL     1      23.284   2.438  50.159  1.00  0.00     0.100 A 
HETATM   13  C10 UNL     1      23.805   3.139  49.177  1.00  0.00     0.039 A 
HETATM   14  C11 UNL     1      24.738   4.190  49.636  1.00  0.00     0.206 A 
HETATM   15  O3  UNL     1      24.713   4.061  51.024  1.00  0.00    -0.344 OA
HETATM   16  C12 UNL     1      23.867   3.021  51.365  1.00  0.00     0.104 A 
HETATM   17  C13 UNL     1      23.607   2.594  52.613  1.00  0.00     0.072 C 
ENDROOT
BRANCH   1  18
HETATM   18  N2  UNL     1      19.649  -0.492  53.186  1.00  0.00    -0.305 N 
HETATM   19  H5  UNL     1      18.811  -0.118  52.672  1.00  0.00     0.182 HD
BRANCH  18  20
HETATM   20  N1  UNL     1      19.206  -1.542  53.957  1.00  0.00    -0.243 NA
HETATM   21  C1  UNL     1      17.928  -2.011  53.496  1.00  0.00     0.133 C 
HETATM   22  H4  UNL     1      19.872  -2.307  54.092  1.00  0.00     0.146 HD
ENDBRANCH  18  20
ENDBRANCH   1  18
TORSDOF 2
ENDMDL
MODEL 8
REMARK VINA RESULT:      -6.0      3.440      4.474
REMARK  2 active torsions:
REMARK  status: ('A' for Active; 'I' for Inactive)
REMARK    1  A    between atoms: N1_2  and  N2_3 
REMARK    2  A    between atoms: N2_3  and  C2_4 
ROOT
HETATM    1  C2  UNL     1      25.594   3.333  50.722  1.00  0.00     0.149 A 
HETATM    2  N3  UNL     1      26.238   2.597  51.655  1.00  0.00    -0.223 NA
HETATM    3  C3  UNL     1      25.531   1.534  52.135  1.00  0.00     0.236 A 
HETATM    4  N4  UNL     1      24.294   1.302  51.667  1.00  0.00    -0.241 NA
HETATM    5  C4  UNL     1      23.684   2.051  50.743  1.00  0.00     0.073 A 
HETATM    6  C5  UNL     1      24.328   3.141  50.207  1.00  0.00     0.041 A 
HETATM    7  C6  UNL     1      23.949   4.148  49.194  1.00  0.00     0.212 C 
HETATM    8  O1  UNL     1      23.789   5.363  49.718  1.00  0.00    -0.384 OA
HETATM    9  C7  UNL     1      22.858   5.753  50.569  1.00  0.00     0.194 C 
HETATM   10  C8  UNL     1      22.735   5.098  51.904  1.00  0.00     0.201 C 
HETATM   11  O2  UNL     1      22.476   3.737  51.910  1.00  0.00    -0.346 OA
HETATM   12  C9  UNL     1      21.216   3.163  51.859  1.00  0.00     0.100 A 
HETATM   13  C10 UNL     1      19.951   3.290  52.195  1.00  0.00     0.039 A 
HETATM   14  C11 UNL     1      19.109   2.160  51.748  1.00  0.00     0.206 A 
HETATM   15  O3  UNL     1      20.009   1.330  51.080  1.00  0.00    -0.344 OA
HETATM   16  C12 UNL     1      21.271   1.893  51.138  1.00  0.00     0.104 A 
HETATM   17  C13 UNL     1      22.393   1.368  50.617  1.00  0.00     0.072 C 
ENDROOT
BRANCH   1  18
HETATM   18  N2  UNL     1      26.391   4.434  50.258  1.00  0.00    -0.305 N 
HETATM   19  H5  UNL     1      26.301   5.468  50.428  1.00  0.00     0.182 HD
BRANCH  18  20
HETATM   20  N1  UNL     1      27.491   4.258  49.451  1.00  0.00    -0.243 NA
HETATM   21  C1  UNL     1      27.620   5.345  48.517  1.00  0.00     0.133 C 
HETATM   22  H4  UNL     1      28.371   4.058  49.933  1.00  0.00     0.146 HD
ENDBRANCH  18  20
ENDBRANCH   1  18
TORSDOF 2
ENDMDL
MODEL 9
REMARK VINA RESULT:      -5.9      3.514      6.090
REMARK  2 active torsions:
REMARK  status: ('A' for Active; 'I' for Inactive)
REMARK    1  A    between atoms: N1_2  and  N2_3 
REMARK    2  A    between atoms: N2_3  and  C2_4 
ROOT
HETATM    1  C2  UNL     1      22.160   3.355  50.483  1.00  0.00     0.149 A 
HETATM    2  N3  UNL     1      22.604   4.487  51.075  1.00  0.00    -0.223 NA
HETATM    3  C3  UNL     1      23.437   4.290  52.135  1.00  0.00     0.236 A 
HETATM    4  N4  UNL     1      23.747   3.037  52.504  1.00  0.00    -0.241 NA
HETATM    5  C4  UNL     1      23.290   1.937  51.897  1.00  0.00     0.073 A 
HETATM    6  C5  UNL     1      22.445   2.047  50.819  1.00  0.00     0.041 A 
HETATM    7  C6  UNL     1      21.780   1.061  49.943  1.00  0.00     0.212 C 
HETATM    8  O1  UNL     1      20.457   1.044  50.106  1.00  0.00    -0.384 OA
HETATM    9  C7  UNL     1      19.786   0.664  51.178  1.00  0.00     0.194 C 
HETATM   10  C8  UNL     1      19.996   1.356  52.484  1.00  0.00     0.201 C 
HETATM   11  O2  UNL     1      21.277   1.322  53.009  1.00  0.00    -0.346 OA
HETATM   12  C9  UNL     1      21.784   0.316  53.815  1.00  0.00     0.100 A 
HETATM   13  C10 UNL     1      21.506  -0.582  54.735  1.00  0.00     0.039 A 
HETATM   14  C11 UNL     1      22.681  -1.374  55.156  1.00  0.00     0.206 A 
HETATM   15  O3  UNL     1      23.714  -0.866  54.368  1.00  0.00    -0.344 OA
HETATM   16  C12 UNL     1      23.214   0.147  53.569  1.00  0.00     0.104 A 
HETATM   17  C13 UNL     1      23.923   0.879  52.692  1.00  0.00     0.072 C 
ENDROOT
BRANCH   1  18
HETATM   18  N2  UNL     1      21.289   3.632  49.374  1.00  0.00    -0.305 N 
HETATM   19  H5  UNL     1      21.448   3.553  48.338  1.00  0.00     0.182 HD
BRANCH  18  20
HETATM   20  N1  UNL     1      19.999   4.080  49.545  1.00  0.00    -0.243 NA
HETATM   21  C1  UNL     1      19.230   3.894  48.345  1.00  0.00     0.133 C 
HETATM   22  H4  UNL     1      19.512   3.730  50.374  1.00  0.00     0.146 HD
ENDBRANCH  18  20
ENDBRANCH   1  18
TORSDOF 2
ENDMDL
