MODEL 1
REMARK VINA RESULT:      -8.7      0.000      0.000
REMARK  1 active torsions:
REMARK  status: ('A' for Active; 'I' for Inactive)
REMARK    1  A    between atoms: C14_17  and  C15_18 
ROOT
HETATM    1  N1  UNL     1      18.766  -0.939  53.098  1.00  0.00    -0.191 NA
HETATM    2  C1  UNL     1      19.857  -0.907  53.457  1.00  0.00     0.102 C 
HETATM    3  C2  UNL     1      21.204  -0.870  53.906  1.00  0.00     0.073 A 
HETATM    4  C3  UNL     1      21.715  -1.641  54.945  1.00  0.00     0.142 A 
HETATM    5  N2  UNL     1      23.001  -1.643  55.413  1.00  0.00    -0.241 NA
HETATM    6  C4  UNL     1      23.919  -0.857  54.872  1.00  0.00     0.134 A 
HETATM    7  C5  UNL     1      23.439  -0.084  53.844  1.00  0.00     0.022 A 
HETATM    8  C6  UNL     1      24.111   0.802  53.043  1.00  0.00     0.031 A 
HETATM    9  C7  UNL     1      24.032   1.662  51.994  1.00  0.00     0.011 A 
HETATM   10  C8  UNL     1      22.707   1.571  51.627  1.00  0.00     0.016 A 
HETATM   11  C9  UNL     1      21.795   0.756  52.263  1.00  0.00     0.015 A 
HETATM   12  C10 UNL     1      22.161  -0.037  53.328  1.00  0.00     0.000 A 
HETATM   13  C11 UNL     1      25.402   2.126  51.880  1.00  0.00     0.159 C 
HETATM   14  O1  UNL     1      24.913   3.234  52.189  1.00  0.00    -0.292 OA
HETATM   15  C12 UNL     1      26.448   1.108  51.508  1.00  0.00     0.084 C 
HETATM   16  C13 UNL     1      26.689   0.027  52.486  1.00  0.00     0.015 C 
HETATM   17  C14 UNL     1      27.209   0.317  53.836  1.00  0.00     0.014 C 
HETATM   18  C16 UNL     1      26.691  -0.662  54.848  1.00  0.00     0.126 C 
HETATM   19  N3  UNL     1      25.298  -0.677  55.090  1.00  0.00    -0.374 N 
HETATM   20  H14 UNL     1      25.082  -0.317  56.072  1.00  0.00     0.161 HD
ENDROOT
BRANCH  17  21
HETATM   21  C15 UNL     1      28.685   0.606  53.932  1.00  0.00     0.091 C 
HETATM   22 BR1  UNL     1      29.793  -0.895  53.458  1.00  0.00    -0.096 Br
ENDBRANCH  17  21
TORSDOF 1
ENDMDL
MODEL 2
REMARK VINA RESULT:      -8.4      3.497      6.122
REMARK  1 active torsions:
REMARK  status: ('A' for Active; 'I' for Inactive)
REMARK    1  A    between atoms: C14_17  and  C15_18 
ROOT
HETATM    1  N1  UNL     1      26.731  -0.142  55.004  1.00  0.00    -0.191 NA
HETATM    2  C1  UNL     1      25.621  -0.371  54.818  1.00  0.00     0.102 C 
HETATM    3  C2  UNL     1      24.248  -0.658  54.594  1.00  0.00     0.073 A 
HETATM    4  C3  UNL     1      23.459  -1.455  55.417  1.00  0.00     0.142 A 
HETATM    5  N2  UNL     1      22.136  -1.759  55.245  1.00  0.00    -0.241 NA
HETATM    6  C4  UNL     1      21.461  -1.283  54.211  1.00  0.00     0.134 A 
HETATM    7  C5  UNL     1      22.219  -0.494  53.380  1.00  0.00     0.022 A 
HETATM    8  C6  UNL     1      21.840   0.186  52.253  1.00  0.00     0.031 A 
HETATM    9  C7  UNL     1      22.225   1.024  51.255  1.00  0.00     0.011 A 
HETATM   10  C8  UNL     1      23.555   1.245  51.542  1.00  0.00     0.016 A 
HETATM   11  C9  UNL     1      24.204   0.684  52.621  1.00  0.00     0.015 A 
HETATM   12  C10 UNL     1      23.549  -0.151  53.499  1.00  0.00     0.000 A 
HETATM   13  C11 UNL     1      20.990   1.202  50.516  1.00  0.00     0.159 C 
HETATM   14  O1  UNL     1      21.610   0.623  49.598  1.00  0.00    -0.292 OA
HETATM   15  C12 UNL     1      19.853   1.890  51.224  1.00  0.00     0.084 C 
HETATM   16  C13 UNL     1      19.282   1.184  52.390  1.00  0.00     0.015 C 
HETATM   17  C14 UNL     1      18.620  -0.126  52.243  1.00  0.00     0.014 C 
HETATM   18  C16 UNL     1      18.801  -0.976  53.467  1.00  0.00     0.126 C 
HETATM   19  N3  UNL     1      20.117  -1.370  53.800  1.00  0.00    -0.374 N 
HETATM   20  H14 UNL     1      20.239  -2.423  53.668  1.00  0.00     0.161 HD
ENDROOT
BRANCH  17  21
HETATM   21  C15 UNL     1      17.219  -0.105  51.688  1.00  0.00     0.091 C 
HETATM   22 BR1  UNL     1      16.120  -1.551  52.325  1.00  0.00    -0.096 Br
ENDBRANCH  17  21
TORSDOF 1
ENDMDL
MODEL 3
REMARK VINA RESULT:      -8.4      3.078      5.732
REMARK  1 active torsions:
REMARK  status: ('A' for Active; 'I' for Inactive)
REMARK    1  A    between atoms: C14_17  and  C15_18 
ROOT
HETATM    1  N1  UNL     1      28.667   2.424  53.088  1.00  0.00    -0.191 NA
HETATM    2  C1  UNL     1      27.718   1.811  53.295  1.00  0.00     0.102 C 
HETATM    3  C2  UNL     1      26.547   1.048  53.554  1.00  0.00     0.073 A 
HETATM    4  C3  UNL     1      26.459   0.025  54.493  1.00  0.00     0.142 A 
HETATM    5  N2  UNL     1      25.358  -0.735  54.779  1.00  0.00    -0.241 NA
HETATM    6  C4  UNL     1      24.214  -0.539  54.141  1.00  0.00     0.134 A 
HETATM    7  C5  UNL     1      24.276   0.467  53.207  1.00  0.00     0.022 A 
HETATM    8  C6  UNL     1      23.283   0.960  52.403  1.00  0.00     0.031 A 
HETATM    9  C7  UNL     1      22.943   1.876  51.459  1.00  0.00     0.011 A 
HETATM   10  C8  UNL     1      24.123   2.561  51.264  1.00  0.00     0.016 A 
HETATM   11  C9  UNL     1      25.290   2.276  51.940  1.00  0.00     0.015 A 
HETATM   12  C10 UNL     1      25.350   1.266  52.874  1.00  0.00     0.000 A 
HETATM   13  C11 UNL     1      21.535   1.595  51.257  1.00  0.00     0.159 C 
HETATM   14  O1  UNL     1      21.899   1.273  50.106  1.00  0.00    -0.292 OA
HETATM   15  C12 UNL     1      20.609   1.832  52.422  1.00  0.00     0.084 C 
HETATM   16  C13 UNL     1      20.812   0.973  53.607  1.00  0.00     0.015 C 
HETATM   17  C14 UNL     1      20.622  -0.489  53.535  1.00  0.00     0.014 C 
HETATM   18  C16 UNL     1      21.539  -1.211  54.478  1.00  0.00     0.126 C 
HETATM   19  N3  UNL     1      22.930  -1.104  54.246  1.00  0.00    -0.374 N 
HETATM   20  H14 UNL     1      23.332  -2.043  53.935  1.00  0.00     0.161 HD
ENDROOT
BRANCH  17  21
HETATM   21  C15 UNL     1      19.195  -0.975  53.543  1.00  0.00     0.091 C 
HETATM   22 BR1  UNL     1      18.202  -0.465  51.975  1.00  0.00    -0.096 Br
ENDBRANCH  17  21
TORSDOF 1
ENDMDL
MODEL 4
REMARK VINA RESULT:      -8.1      3.673      6.322
REMARK  1 active torsions:
REMARK  status: ('A' for Active; 'I' for Inactive)
REMARK    1  A    between atoms: C14_17  and  C15_18 
ROOT
HETATM    1  N1  UNL     1      28.428  -0.839  54.196  1.00  0.00    -0.191 NA
HETATM    2  C1  UNL     1      27.691  -0.162  53.631  1.00  0.00     0.102 C 
HETATM    3  C2  UNL     1      26.786   0.680  52.931  1.00  0.00     0.073 A 
HETATM    4  C3  UNL     1      27.161   1.735  52.106  1.00  0.00     0.142 A 
HETATM    5  N2  UNL     1      26.329   2.571  51.412  1.00  0.00    -0.241 NA
HETATM    6  C4  UNL     1      25.015   2.428  51.477  1.00  0.00     0.134 A 
HETATM    7  C5  UNL     1      24.619   1.392  52.289  1.00  0.00     0.022 A 
HETATM    8  C6  UNL     1      23.354   0.938  52.553  1.00  0.00     0.031 A 
HETATM    9  C7  UNL     1      22.597   0.016  53.204  1.00  0.00     0.011 A 
HETATM   10  C8  UNL     1      23.542  -0.748  53.854  1.00  0.00     0.016 A 
HETATM   11  C9  UNL     1      24.898  -0.515  53.769  1.00  0.00     0.015 A 
HETATM   12  C10 UNL     1      25.403   0.517  53.011  1.00  0.00     0.000 A 
HETATM   13  C11 UNL     1      21.255   0.379  52.789  1.00  0.00     0.159 C 
HETATM   14  O1  UNL     1      21.093   0.641  54.000  1.00  0.00    -0.292 OA
HETATM   15  C12 UNL     1      20.922   0.236  51.326  1.00  0.00     0.084 C 
HETATM   16  C13 UNL     1      21.659   1.116  50.396  1.00  0.00     0.015 C 
HETATM   17  C14 UNL     1      21.520   2.584  50.459  1.00  0.00     0.014 C 
HETATM   18  C16 UNL     1      22.787   3.276  50.049  1.00  0.00     0.126 C 
HETATM   19  N3  UNL     1      23.931   3.075  50.856  1.00  0.00    -0.374 N 
HETATM   20  H14 UNL     1      24.197   3.977  51.362  1.00  0.00     0.161 HD
ENDROOT
BRANCH  17  21
HETATM   21  C15 UNL     1      20.262   3.159  49.858  1.00  0.00     0.091 C 
HETATM   22 BR1  UNL     1      18.925   3.613  51.167  1.00  0.00    -0.096 Br
ENDBRANCH  17  21
TORSDOF 1
ENDMDL
MODEL 5
REMARK VINA RESULT:      -8.0      3.956      6.443
REMARK  1 active torsions:
REMARK  status: ('A' for Active; 'I' for Inactive)
REMARK    1  A    between atoms: C14_17  and  C15_18 
ROOT
HETATM    1  N1  UNL     1      27.805   4.550  48.752  1.00  0.00    -0.191 NA
HETATM    2  C1  UNL     1      26.838   4.291  49.313  1.00  0.00     0.102 C 
HETATM    3  C2  UNL     1      25.637   3.976  50.005  1.00  0.00     0.073 A 
HETATM    4  C3  UNL     1      24.424   4.634  49.830  1.00  0.00     0.142 A 
HETATM    5  N2  UNL     1      23.245   4.367  50.470  1.00  0.00    -0.241 NA
HETATM    6  C4  UNL     1      23.163   3.395  51.364  1.00  0.00     0.134 A 
HETATM    7  C5  UNL     1      24.350   2.730  51.557  1.00  0.00     0.022 A 
HETATM    8  C6  UNL     1      24.617   1.658  52.367  1.00  0.00     0.031 A 
HETATM    9  C7  UNL     1      25.550   0.764  52.788  1.00  0.00     0.011 A 
HETATM   10  C8  UNL     1      26.671   1.140  52.081  1.00  0.00     0.016 A 
HETATM   11  C9  UNL     1      26.692   2.192  51.190  1.00  0.00     0.015 A 
HETATM   12  C10 UNL     1      25.567   2.949  50.946  1.00  0.00     0.000 A 
HETATM   13  C11 UNL     1      24.785  -0.063  53.702  1.00  0.00     0.159 C 
HETATM   14  O1  UNL     1      25.559   0.403  54.565  1.00  0.00    -0.292 OA
HETATM   15  C12 UNL     1      23.659  -0.877  53.120  1.00  0.00     0.084 C 
HETATM   16  C13 UNL     1      22.527  -0.118  52.549  1.00  0.00     0.015 C 
HETATM   17  C14 UNL     1      21.686   0.753  53.393  1.00  0.00     0.014 C 
HETATM   18  C16 UNL     1      21.164   1.930  52.622  1.00  0.00     0.126 C 
HETATM   19  N3  UNL     1      22.110   2.858  52.128  1.00  0.00    -0.374 N 
HETATM   20  H14 UNL     1      22.021   3.793  52.637  1.00  0.00     0.161 HD
ENDROOT
BRANCH  17  21
HETATM   21  C15 UNL     1      20.664   0.057  54.256  1.00  0.00     0.091 C 
HETATM   22 BR1  UNL     1      19.164  -0.629  53.265  1.00  0.00    -0.096 Br
ENDBRANCH  17  21
TORSDOF 1
ENDMDL
MODEL 6
REMARK VINA RESULT:      -7.7      2.324      3.425
REMARK  1 active torsions:
REMARK  status: ('A' for Active; 'I' for Inactive)
REMARK    1  A    between atoms: C14_17  and  C15_18 
ROOT
HETATM    1  N1  UNL     1      18.606  -0.336  52.194  1.00  0.00    -0.191 NA
HETATM    2  C1  UNL     1      19.662   0.072  51.999  1.00  0.00     0.102 C 
HETATM    3  C2  UNL     1      20.966   0.579  51.752  1.00  0.00     0.073 A 
HETATM    4  C3  UNL     1      21.287   1.484  50.745  1.00  0.00     0.142 A 
HETATM    5  N2  UNL     1      22.523   2.002  50.469  1.00  0.00    -0.241 NA
HETATM    6  C4  UNL     1      23.579   1.657  51.190  1.00  0.00     0.134 A 
HETATM    7  C5  UNL     1      23.287   0.762  52.190  1.00  0.00     0.022 A 
HETATM    8  C6  UNL     1      24.119   0.227  53.139  1.00  0.00     0.031 A 
HETATM    9  C7  UNL     1      24.221  -0.585  54.224  1.00  0.00     0.011 A 
HETATM   10  C8  UNL     1      22.929  -1.034  54.389  1.00  0.00     0.016 A 
HETATM   11  C9  UNL     1      21.883  -0.660  53.573  1.00  0.00     0.015 A 
HETATM   12  C10 UNL     1      22.069   0.206  52.519  1.00  0.00     0.000 A 
HETATM   13  C11 UNL     1      25.625  -0.456  54.566  1.00  0.00     0.159 C 
HETATM   14  O1  UNL     1      25.673  -1.669  54.269  1.00  0.00    -0.292 OA
HETATM   15  C12 UNL     1      26.106   0.899  55.013  1.00  0.00     0.084 C 
HETATM   16  C13 UNL     1      26.051   1.980  54.007  1.00  0.00     0.015 C 
HETATM   17  C14 UNL     1      26.852   1.916  52.769  1.00  0.00     0.014 C 
HETATM   18  C16 UNL     1      26.157   2.597  51.626  1.00  0.00     0.126 C 
HETATM   19  N3  UNL     1      24.931   2.047  51.187  1.00  0.00    -0.374 N 
HETATM   20  H14 UNL     1      25.036   1.625  50.211  1.00  0.00     0.161 HD
ENDROOT
BRANCH  17  21
HETATM   21  C15 UNL     1      28.316   2.247  52.907  1.00  0.00     0.091 C 
HETATM   22 BR1  UNL     1      29.353   0.827  53.690  1.00  0.00    -0.096 Br
ENDBRANCH  17  21
TORSDOF 1
ENDMDL
MODEL 7
REMARK VINA RESULT:      -7.7      1.629      2.150
REMARK  1 active torsions:
REMARK  status: ('A' for Active; 'I' for Inactive)
REMARK    1  A    between atoms: C14_17  and  C15_18 
ROOT
HETATM    1  N1  UNL     1      17.720  -1.006  53.506  1.00  0.00    -0.191 NA
HETATM    2  C1  UNL     1      18.857  -0.852  53.544  1.00  0.00     0.102 C 
HETATM    3  C2  UNL     1      20.265  -0.667  53.594  1.00  0.00     0.073 A 
HETATM    4  C3  UNL     1      21.169  -1.594  54.104  1.00  0.00     0.142 A 
HETATM    5  N2  UNL     1      22.529  -1.463  54.173  1.00  0.00    -0.241 NA
HETATM    6  C4  UNL     1      23.128  -0.370  53.728  1.00  0.00     0.134 A 
HETATM    7  C5  UNL     1      22.256   0.562  53.220  1.00  0.00     0.022 A 
HETATM    8  C6  UNL     1      22.528   1.776  52.646  1.00  0.00     0.031 A 
HETATM    9  C7  UNL     1      22.017   2.882  52.044  1.00  0.00     0.011 A 
HETATM   10  C8  UNL     1      20.663   2.626  52.041  1.00  0.00     0.016 A 
HETATM   11  C9  UNL     1      20.104   1.476  52.558  1.00  0.00     0.015 A 
HETATM   12  C10 UNL     1      20.882   0.491  53.122  1.00  0.00     0.000 A 
HETATM   13  C11 UNL     1      23.214   3.642  51.741  1.00  0.00     0.159 C 
HETATM   14  O1  UNL     1      22.737   4.466  52.550  1.00  0.00    -0.292 OA
HETATM   15  C12 UNL     1      24.184   3.041  50.757  1.00  0.00     0.084 C 
HETATM   16  C13 UNL     1      24.848   1.789  51.172  1.00  0.00     0.015 C 
HETATM   17  C14 UNL     1      25.748   1.750  52.341  1.00  0.00     0.014 C 
HETATM   18  C16 UNL     1      25.701   0.416  53.029  1.00  0.00     0.126 C 
HETATM   19  N3  UNL     1      24.474   0.027  53.615  1.00  0.00    -0.374 N 
HETATM   20  H14 UNL     1      24.555   0.008  54.679  1.00  0.00     0.161 HD
ENDROOT
BRANCH  17  21
HETATM   21  C15 UNL     1      27.134   2.306  52.133  1.00  0.00     0.091 C 
HETATM   22 BR1  UNL     1      28.263   2.151  53.683  1.00  0.00    -0.096 Br
ENDBRANCH  17  21
TORSDOF 1
ENDMDL
MODEL 8
REMARK VINA RESULT:      -7.7      4.161      6.085
REMARK  1 active torsions:
REMARK  status: ('A' for Active; 'I' for Inactive)
REMARK    1  A    between atoms: C14_17  and  C15_18 
ROOT
HETATM    1  N1  UNL     1      24.116   7.461  47.631  1.00  0.00    -0.191 NA
HETATM    2  C1  UNL     1      24.574   6.556  48.171  1.00  0.00     0.102 C 
HETATM    3  C2  UNL     1      25.146   5.439  48.836  1.00  0.00     0.073 A 
HETATM    4  C3  UNL     1      26.511   5.220  48.988  1.00  0.00     0.142 A 
HETATM    5  N2  UNL     1      27.109   4.163  49.620  1.00  0.00    -0.241 NA
HETATM    6  C4  UNL     1      26.382   3.205  50.173  1.00  0.00     0.134 A 
HETATM    7  C5  UNL     1      25.029   3.398  50.034  1.00  0.00     0.022 A 
HETATM    8  C6  UNL     1      23.996   2.635  50.512  1.00  0.00     0.031 A 
HETATM    9  C7  UNL     1      22.648   2.499  50.620  1.00  0.00     0.011 A 
HETATM   10  C8  UNL     1      22.177   3.607  49.951  1.00  0.00     0.016 A 
HETATM   11  C9  UNL     1      22.996   4.548  49.365  1.00  0.00     0.015 A 
HETATM   12  C10 UNL     1      24.368   4.436  49.413  1.00  0.00     0.000 A 
HETATM   13  C11 UNL     1      22.530   1.284  51.404  1.00  0.00     0.159 C 
HETATM   14  O1  UNL     1      21.997   0.825  50.371  1.00  0.00    -0.292 OA
HETATM   15  C12 UNL     1      23.060   1.317  52.814  1.00  0.00     0.084 C 
HETATM   16  C13 UNL     1      24.518   1.503  52.962  1.00  0.00     0.015 C 
HETATM   17  C14 UNL     1      25.474   0.505  52.445  1.00  0.00     0.014 C 
HETATM   18  C16 UNL     1      26.757   1.147  52.002  1.00  0.00     0.126 C 
HETATM   19  N3  UNL     1      26.694   2.052  50.918  1.00  0.00    -0.374 N 
HETATM   20  H14 UNL     1      27.188   1.649  50.062  1.00  0.00     0.161 HD
ENDROOT
BRANCH  17  21
HETATM   21  C15 UNL     1      25.644  -0.744  53.272  1.00  0.00     0.091 C 
HETATM   22 BR1  UNL     1      26.933  -1.976  52.546  1.00  0.00    -0.096 Br
ENDBRANCH  17  21
TORSDOF 1
ENDMDL
MODEL 9
REMARK VINA RESULT:      -7.0      3.621      4.836
REMARK  1 active torsions:
REMARK  status: ('A' for Active; 'I' for Inactive)
REMARK    1  A    between atoms: C14_17  and  C15_18 
ROOT
HETATM    1  N1  UNL     1      19.157   3.185  46.851  1.00  0.00    -0.191 NA
HETATM    2  C1  UNL     1      19.930   2.871  47.641  1.00  0.00     0.102 C 
HETATM    3  C2  UNL     1      20.881   2.478  48.621  1.00  0.00     0.073 A 
HETATM    4  C3  UNL     1      20.770   1.349  49.426  1.00  0.00     0.142 A 
HETATM    5  N2  UNL     1      21.656   0.929  50.380  1.00  0.00    -0.241 NA
HETATM    6  C4  UNL     1      22.763   1.612  50.624  1.00  0.00     0.134 A 
HETATM    7  C5  UNL     1      22.896   2.734  49.842  1.00  0.00     0.022 A 
HETATM    8  C6  UNL     1      23.923   3.640  49.799  1.00  0.00     0.031 A 
HETATM    9  C7  UNL     1      24.418   4.759  49.209  1.00  0.00     0.011 A 
HETATM   10  C8  UNL     1      23.444   5.073  48.287  1.00  0.00     0.016 A 
HETATM   11  C9  UNL     1      22.293   4.333  48.114  1.00  0.00     0.015 A 
HETATM   12  C10 UNL     1      22.042   3.209  48.868  1.00  0.00     0.000 A 
HETATM   13  C11 UNL     1      25.690   4.921  49.889  1.00  0.00     0.159 C 
HETATM   14  O1  UNL     1      25.175   5.974  50.321  1.00  0.00    -0.292 OA
HETATM   15  C12 UNL     1      26.725   3.846  49.682  1.00  0.00     0.084 C 
HETATM   16  C13 UNL     1      26.393   2.506  50.206  1.00  0.00     0.015 C 
HETATM   17  C14 UNL     1      26.196   2.275  51.650  1.00  0.00     0.014 C 
HETATM   18  C16 UNL     1      25.194   1.187  51.903  1.00  0.00     0.126 C 
HETATM   19  N3  UNL     1      23.864   1.413  51.478  1.00  0.00    -0.374 N 
HETATM   20  H14 UNL     1      23.213   1.515  52.319  1.00  0.00     0.161 HD
ENDROOT
BRANCH  17  21
HETATM   21  C15 UNL     1      27.447   2.190  52.487  1.00  0.00     0.091 C 
HETATM   22 BR1  UNL     1      27.437   0.725  53.735  1.00  0.00    -0.096 Br
ENDBRANCH  17  21
TORSDOF 1
ENDMDL
