MODEL 1
REMARK VINA RESULT:      -8.5      0.000      0.000
REMARK  7 active torsions:
REMARK  status: ('A' for Active; 'I' for Inactive)
REMARK    1  A    between atoms: C4_6  and  N2_7 
REMARK    2  A    between atoms: N2_7  and  C5_8 
REMARK    3  A    between atoms: C11_15  and  C12_16 
REMARK    4  A    between atoms: N3_23  and  C17_24 
REMARK    5  A    between atoms: C17_24  and  C18_25 
REMARK    6  A    between atoms: C18_25  and  C19_26 
REMARK    7  A    between atoms: C19_26  and  N4_27 
ROOT
HETATM    1  C12 UNL     1      24.880   0.202  53.252  1.00  0.00     0.043 C 
HETATM    2  C13 UNL     1      26.134  -0.132  53.091  1.00  0.00     0.039 C 
HETATM    3  C14 UNL     1      26.527  -1.544  52.849  1.00  0.00     0.225 C 
HETATM    4  O1  UNL     1      27.900  -1.652  52.795  1.00  0.00    -0.376 OA
HETATM    5  C15 UNL     1      28.603  -1.004  53.769  1.00  0.00     0.271 C 
HETATM    6  C16 UNL     1      28.500   0.480  53.646  1.00  0.00     0.247 C 
HETATM    7  O2  UNL     1      29.380   1.333  53.927  1.00  0.00    -0.271 OA
HETATM    8  N3  UNL     1      27.193   0.869  53.135  1.00  0.00    -0.318 N 
ENDROOT
BRANCH   1   9
HETATM    9  C11 UNL     1      23.474  -0.063  53.337  1.00  0.00     0.023 A 
HETATM   10  C2  UNL     1      22.808  -0.857  54.364  1.00  0.00    -0.022 A 
HETATM   11  C1  UNL     1      23.490  -1.392  55.358  1.00  0.00     0.050 C 
HETATM   12  S1  UNL     1      21.074  -1.243  54.487  1.00  0.00    -0.184 SA
HETATM   13  C3  UNL     1      20.326  -0.436  53.085  1.00  0.00     0.312 A 
HETATM   14  N1  UNL     1      21.183   0.193  52.362  1.00  0.00    -0.253 NA
HETATM   15  C4  UNL     1      22.553   0.337  52.500  1.00  0.00     0.135 A 
BRANCH  15  16
HETATM   16  N2  UNL     1      22.819   1.170  51.349  1.00  0.00    -0.340 N 
HETATM   17  H4  UNL     1      23.117   0.939  50.380  1.00  0.00     0.167 HD
BRANCH  16  18
HETATM   18  C5  UNL     1      22.617   2.583  51.554  1.00  0.00     0.036 A 
HETATM   19  C6  UNL     1      21.762   3.264  50.697  1.00  0.00     0.029 A 
HETATM   20  C7  UNL     1      21.531   4.632  50.853  1.00  0.00     0.005 A 
HETATM   21  C8  UNL     1      22.162   5.299  51.867  1.00  0.00     0.042 A 
HETATM   22  C9  UNL     1      23.019   4.662  52.740  1.00  0.00     0.118 A 
HETATM   23  F1  UNL     1      23.621   5.348  53.723  1.00  0.00    -0.206 F 
HETATM   24  C10 UNL     1      23.209   3.318  52.542  1.00  0.00     0.071 A 
ENDBRANCH  16  18
ENDBRANCH  15  16
ENDBRANCH   1   9
BRANCH   8  25
HETATM   25  C17 UNL     1      26.979   2.203  52.691  1.00  0.00     0.134 C 
BRANCH  25  26
HETATM   26  C18 UNL     1      26.731   2.333  51.213  1.00  0.00     0.050 C 
BRANCH  26  27
HETATM   27  C19 UNL     1      26.076   3.594  50.775  1.00  0.00     0.274 C 
BRANCH  27  28
HETATM   28  N4  UNL     1      26.003   3.810  49.364  1.00  0.00     0.088 N 
HETATM   29  C20 UNL     1      24.871   4.638  48.987  1.00  0.00     0.272 C 
HETATM   30  C21 UNL     1      24.908   5.920  49.750  1.00  0.00     0.030 C 
HETATM   31  C22 UNL     1      26.201   6.625  49.486  1.00  0.00     0.003 C 
HETATM   32  C23 UNL     1      27.105   5.861  48.552  1.00  0.00     0.030 C 
HETATM   33  C24 UNL     1      27.226   4.411  48.917  1.00  0.00     0.272 C 
ENDBRANCH  27  28
ENDBRANCH  26  27
ENDBRANCH  25  26
ENDBRANCH   8  25
TORSDOF 7
ENDMDL
MODEL 2
REMARK VINA RESULT:      -8.2      2.971      6.142
REMARK  7 active torsions:
REMARK  status: ('A' for Active; 'I' for Inactive)
REMARK    1  A    between atoms: C4_6  and  N2_7 
REMARK    2  A    between atoms: N2_7  and  C5_8 
REMARK    3  A    between atoms: C11_15  and  C12_16 
REMARK    4  A    between atoms: N3_23  and  C17_24 
REMARK    5  A    between atoms: C17_24  and  C18_25 
REMARK    6  A    between atoms: C18_25  and  C19_26 
REMARK    7  A    between atoms: C19_26  and  N4_27 
ROOT
HETATM    1  C12 UNL     1      23.732   3.809  49.191  1.00  0.00     0.043 C 
HETATM    2  C13 UNL     1      24.736   4.637  49.325  1.00  0.00     0.039 C 
HETATM    3  C14 UNL     1      24.509   6.096  49.485  1.00  0.00     0.225 C 
HETATM    4  O1  UNL     1      25.716   6.763  49.524  1.00  0.00    -0.376 OA
HETATM    5  C15 UNL     1      26.640   6.409  48.584  1.00  0.00     0.271 C 
HETATM    6  C16 UNL     1      27.153   5.024  48.791  1.00  0.00     0.247 C 
HETATM    7  O2  UNL     1      28.311   4.594  48.553  1.00  0.00    -0.271 OA
HETATM    8  N3  UNL     1      26.113   4.160  49.331  1.00  0.00    -0.318 N 
ENDROOT
BRANCH   1   9
HETATM    9  C11 UNL     1      22.343   3.468  49.101  1.00  0.00     0.023 A 
HETATM   10  C2  UNL     1      21.590   3.250  47.872  1.00  0.00    -0.022 A 
HETATM   11  C1  UNL     1      22.174   3.328  46.692  1.00  0.00     0.050 C 
HETATM   12  S1  UNL     1      19.859   2.862  47.712  1.00  0.00    -0.184 SA
HETATM   13  C3  UNL     1      19.251   2.786  49.385  1.00  0.00     0.312 A 
HETATM   14  N1  UNL     1      20.168   3.023  50.254  1.00  0.00    -0.253 NA
HETATM   15  C4  UNL     1      21.511   3.318  50.098  1.00  0.00     0.135 A 
BRANCH  15  16
HETATM   16  N2  UNL     1      21.889   3.436  51.487  1.00  0.00    -0.340 N 
HETATM   17  H4  UNL     1      22.062   4.265  52.091  1.00  0.00     0.167 HD
BRANCH  16  18
HETATM   18  C5  UNL     1      22.038   2.187  52.191  1.00  0.00     0.036 A 
HETATM   19  C6  UNL     1      23.242   1.502  52.082  1.00  0.00     0.029 A 
HETATM   20  C7  UNL     1      23.438   0.288  52.744  1.00  0.00     0.005 A 
HETATM   21  C8  UNL     1      22.425  -0.222  53.507  1.00  0.00     0.042 A 
HETATM   22  C9  UNL     1      21.215   0.425  53.644  1.00  0.00     0.118 A 
HETATM   23  F1  UNL     1      20.242  -0.105  54.401  1.00  0.00    -0.206 F 
HETATM   24  C10 UNL     1      21.075   1.613  52.972  1.00  0.00     0.071 A 
ENDBRANCH  16  18
ENDBRANCH  15  16
ENDBRANCH   1   9
BRANCH   8  25
HETATM   25  C17 UNL     1      26.459   2.881  49.851  1.00  0.00     0.134 C 
BRANCH  25  26
HETATM   26  C18 UNL     1      26.597   2.838  51.348  1.00  0.00     0.050 C 
BRANCH  26  27
HETATM   27  C19 UNL     1      27.009   1.529  51.921  1.00  0.00     0.274 C 
BRANCH  27  28
HETATM   28  N4  UNL     1      27.341   1.525  53.312  1.00  0.00     0.088 N 
HETATM   29  C20 UNL     1      26.789   0.379  54.012  1.00  0.00     0.272 C 
HETATM   30  C21 UNL     1      27.213  -0.880  53.330  1.00  0.00     0.030 C 
HETATM   31  C22 UNL     1      28.707  -0.947  53.283  1.00  0.00     0.003 C 
HETATM   32  C23 UNL     1      29.368   0.254  53.910  1.00  0.00     0.030 C 
HETATM   33  C24 UNL     1      28.768   1.552  53.454  1.00  0.00     0.272 C 
ENDBRANCH  27  28
ENDBRANCH  26  27
ENDBRANCH  25  26
ENDBRANCH   8  25
TORSDOF 7
ENDMDL
MODEL 3
REMARK VINA RESULT:      -7.9      3.056      6.408
REMARK  7 active torsions:
REMARK  status: ('A' for Active; 'I' for Inactive)
REMARK    1  A    between atoms: C4_6  and  N2_7 
REMARK    2  A    between atoms: N2_7  and  C5_8 
REMARK    3  A    between atoms: C11_15  and  C12_16 
REMARK    4  A    between atoms: N3_23  and  C17_24 
REMARK    5  A    between atoms: C17_24  and  C18_25 
REMARK    6  A    between atoms: C18_25  and  C19_26 
REMARK    7  A    between atoms: C19_26  and  N4_27 
ROOT
HETATM    1  C12 UNL     1      22.540   4.031  51.292  1.00  0.00     0.043 C 
HETATM    2  C13 UNL     1      22.530   2.723  51.309  1.00  0.00     0.039 C 
HETATM    3  C14 UNL     1      21.620   1.952  50.424  1.00  0.00     0.225 C 
HETATM    4  O1  UNL     1      21.737   0.603  50.684  1.00  0.00    -0.376 OA
HETATM    5  C15 UNL     1      21.736   0.231  51.997  1.00  0.00     0.271 C 
HETATM    6  C16 UNL     1      22.960   0.693  52.714  1.00  0.00     0.247 C 
HETATM    7  O2  UNL     1      23.565   0.110  53.650  1.00  0.00    -0.271 OA
HETATM    8  N3  UNL     1      23.417   1.973  52.190  1.00  0.00    -0.318 N 
ENDROOT
BRANCH   1   9
HETATM    9  C11 UNL     1      22.109   5.320  50.836  1.00  0.00     0.023 A 
HETATM   10  C2  UNL     1      20.820   5.630  50.229  1.00  0.00    -0.022 A 
HETATM   11  C1  UNL     1      19.898   4.700  50.075  1.00  0.00     0.050 C 
HETATM   12  S1  UNL     1      20.258   7.205  49.615  1.00  0.00    -0.184 SA
HETATM   13  C3  UNL     1      21.613   8.322  49.916  1.00  0.00     0.312 A 
HETATM   14  N1  UNL     1      22.616   7.743  50.473  1.00  0.00    -0.253 NA
HETATM   15  C4  UNL     1      22.802   6.428  50.863  1.00  0.00     0.135 A 
BRANCH  15  16
HETATM   16  N2  UNL     1      24.134   6.532  51.412  1.00  0.00    -0.340 N 
HETATM   17  H4  UNL     1      24.475   6.654  52.387  1.00  0.00     0.167 HD
BRANCH  16  18
HETATM   18  C5  UNL     1      25.204   6.427  50.451  1.00  0.00     0.036 A 
HETATM   19  C6  UNL     1      25.801   7.593  49.991  1.00  0.00     0.029 A 
HETATM   20  C7  UNL     1      26.842   7.547  49.061  1.00  0.00     0.005 A 
HETATM   21  C8  UNL     1      27.270   6.331  48.605  1.00  0.00     0.042 A 
HETATM   22  C9  UNL     1      26.706   5.149  49.036  1.00  0.00     0.118 A 
HETATM   23  F1  UNL     1      27.151   3.973  48.568  1.00  0.00    -0.206 F 
HETATM   24  C10 UNL     1      25.687   5.251  49.950  1.00  0.00     0.071 A 
ENDBRANCH  16  18
ENDBRANCH  15  16
ENDBRANCH   1   9
BRANCH   8  25
HETATM   25  C17 UNL     1      24.706   2.459  52.543  1.00  0.00     0.134 C 
BRANCH  25  26
HETATM   26  C18 UNL     1      25.809   2.017  51.621  1.00  0.00     0.050 C 
BRANCH  26  27
HETATM   27  C19 UNL     1      26.837   1.128  52.223  1.00  0.00     0.274 C 
BRANCH  27  28
HETATM   28  N4  UNL     1      27.110   1.329  53.612  1.00  0.00     0.088 N 
HETATM   29  C20 UNL     1      27.327   0.081  54.323  1.00  0.00     0.272 C 
HETATM   30  C21 UNL     1      28.403  -0.703  53.647  1.00  0.00     0.030 C 
HETATM   31  C22 UNL     1      29.658   0.111  53.593  1.00  0.00     0.003 C 
HETATM   32  C23 UNL     1      29.497   1.478  54.209  1.00  0.00     0.030 C 
HETATM   33  C24 UNL     1      28.255   2.181  53.747  1.00  0.00     0.272 C 
ENDBRANCH  27  28
ENDBRANCH  26  27
ENDBRANCH  25  26
ENDBRANCH   8  25
TORSDOF 7
ENDMDL
MODEL 4
REMARK VINA RESULT:      -7.9      2.899      6.011
REMARK  7 active torsions:
REMARK  status: ('A' for Active; 'I' for Inactive)
REMARK    1  A    between atoms: C4_6  and  N2_7 
REMARK    2  A    between atoms: N2_7  and  C5_8 
REMARK    3  A    between atoms: C11_15  and  C12_16 
REMARK    4  A    between atoms: N3_23  and  C17_24 
REMARK    5  A    between atoms: C17_24  and  C18_25 
REMARK    6  A    between atoms: C18_25  and  C19_26 
REMARK    7  A    between atoms: C19_26  and  N4_27 
ROOT
HETATM    1  C12 UNL     1      22.091   3.279  50.586  1.00  0.00     0.043 C 
HETATM    2  C13 UNL     1      22.994   4.205  50.779  1.00  0.00     0.039 C 
HETATM    3  C14 UNL     1      22.611   5.564  51.239  1.00  0.00     0.225 C 
HETATM    4  O1  UNL     1      23.722   6.379  51.289  1.00  0.00    -0.376 OA
HETATM    5  C15 UNL     1      24.559   6.336  50.213  1.00  0.00     0.271 C 
HETATM    6  C16 UNL     1      25.261   5.025  50.096  1.00  0.00     0.247 C 
HETATM    7  O2  UNL     1      26.425   4.815  49.667  1.00  0.00    -0.271 OA
HETATM    8  N3  UNL     1      24.409   3.937  50.558  1.00  0.00    -0.318 N 
ENDROOT
BRANCH   1   9
HETATM    9  C11 UNL     1      20.754   2.762  50.567  1.00  0.00     0.023 A 
HETATM   10  C2  UNL     1      19.899   2.632  49.393  1.00  0.00    -0.022 A 
HETATM   11  C1  UNL     1      20.332   2.973  48.195  1.00  0.00     0.050 C 
HETATM   12  S1  UNL     1      18.223   2.034  49.329  1.00  0.00    -0.184 SA
HETATM   13  C3  UNL     1      17.822   1.616  51.014  1.00  0.00     0.312 A 
HETATM   14  N1  UNL     1      18.795   1.843  51.823  1.00  0.00    -0.253 NA
HETATM   15  C4  UNL     1      20.065   2.345  51.596  1.00  0.00     0.135 A 
BRANCH  15  16
HETATM   16  N2  UNL     1      20.580   2.300  52.946  1.00  0.00    -0.340 N 
HETATM   17  H4  UNL     1      20.577   3.002  53.713  1.00  0.00     0.167 HD
BRANCH  16  18
HETATM   18  C5  UNL     1      21.197   1.054  53.326  1.00  0.00     0.036 A 
HETATM   19  C6  UNL     1      20.478   0.170  54.120  1.00  0.00     0.029 A 
HETATM   20  C7  UNL     1      21.029  -1.050  54.515  1.00  0.00     0.005 A 
HETATM   21  C8  UNL     1      22.295  -1.369  54.108  1.00  0.00     0.042 A 
HETATM   22  C9  UNL     1      23.044  -0.522  53.319  1.00  0.00     0.118 A 
HETATM   23  F1  UNL     1      24.283  -0.866  52.937  1.00  0.00    -0.206 F 
HETATM   24  C10 UNL     1      22.455   0.664  52.959  1.00  0.00     0.071 A 
ENDBRANCH  16  18
ENDBRANCH  15  16
ENDBRANCH   1   9
BRANCH   8  25
HETATM   25  C17 UNL     1      24.971   2.650  50.783  1.00  0.00     0.134 C 
BRANCH  25  26
HETATM   26  C18 UNL     1      25.427   2.412  52.197  1.00  0.00     0.050 C 
BRANCH  26  27
HETATM   27  C19 UNL     1      26.814   1.897  52.350  1.00  0.00     0.274 C 
BRANCH  27  28
HETATM   28  N4  UNL     1      27.311   1.812  53.688  1.00  0.00     0.088 N 
HETATM   29  C20 UNL     1      26.945   0.566  54.339  1.00  0.00     0.272 C 
HETATM   30  C21 UNL     1      27.385  -0.589  53.501  1.00  0.00     0.030 C 
HETATM   31  C22 UNL     1      28.862  -0.513  53.278  1.00  0.00     0.003 C 
HETATM   32  C23 UNL     1      29.493   0.690  53.933  1.00  0.00     0.030 C 
HETATM   33  C24 UNL     1      28.737   1.959  53.669  1.00  0.00     0.272 C 
ENDBRANCH  27  28
ENDBRANCH  26  27
ENDBRANCH  25  26
ENDBRANCH   8  25
TORSDOF 7
ENDMDL
MODEL 5
REMARK VINA RESULT:      -7.9      2.811      6.519
REMARK  7 active torsions:
REMARK  status: ('A' for Active; 'I' for Inactive)
REMARK    1  A    between atoms: C4_6  and  N2_7 
REMARK    2  A    between atoms: N2_7  and  C5_8 
REMARK    3  A    between atoms: C11_15  and  C12_16 
REMARK    4  A    between atoms: N3_23  and  C17_24 
REMARK    5  A    between atoms: C17_24  and  C18_25 
REMARK    6  A    between atoms: C18_25  and  C19_26 
REMARK    7  A    between atoms: C19_26  and  N4_27 
ROOT
HETATM    1  C12 UNL     1      23.928   2.405  50.655  1.00  0.00     0.043 C 
HETATM    2  C13 UNL     1      24.849   1.954  51.468  1.00  0.00     0.039 C 
HETATM    3  C14 UNL     1      26.250   2.440  51.383  1.00  0.00     0.225 C 
HETATM    4  O1  UNL     1      27.043   1.761  52.284  1.00  0.00    -0.376 OA
HETATM    5  C15 UNL     1      26.891   0.406  52.330  1.00  0.00     0.271 C 
HETATM    6  C16 UNL     1      25.560   0.005  52.873  1.00  0.00     0.247 C 
HETATM    7  O2  UNL     1      25.291  -1.006  53.569  1.00  0.00    -0.271 OA
HETATM    8  N3  UNL     1      24.534   0.966  52.492  1.00  0.00    -0.318 N 
ENDROOT
BRANCH   1   9
HETATM    9  C11 UNL     1      23.440   3.217  49.580  1.00  0.00     0.023 A 
HETATM   10  C2  UNL     1      22.503   2.800  48.544  1.00  0.00    -0.022 A 
HETATM   11  C1  UNL     1      21.988   1.586  48.541  1.00  0.00     0.050 C 
HETATM   12  S1  UNL     1      21.901   3.762  47.171  1.00  0.00    -0.184 SA
HETATM   13  C3  UNL     1      22.685   5.352  47.348  1.00  0.00     0.312 A 
HETATM   14  N1  UNL     1      23.460   5.409  48.372  1.00  0.00    -0.253 NA
HETATM   15  C4  UNL     1      23.768   4.458  49.329  1.00  0.00     0.135 A 
BRANCH  15  16
HETATM   16  N2  UNL     1      24.669   5.234  50.150  1.00  0.00    -0.340 N 
HETATM   17  H4  UNL     1      24.617   5.536  51.144  1.00  0.00     0.167 HD
BRANCH  16  18
HETATM   18  C5  UNL     1      25.881   5.663  49.496  1.00  0.00     0.036 A 
HETATM   19  C6  UNL     1      26.796   4.698  49.096  1.00  0.00     0.029 A 
HETATM   20  C7  UNL     1      27.985   5.059  48.457  1.00  0.00     0.005 A 
HETATM   21  C8  UNL     1      28.238   6.383  48.228  1.00  0.00     0.042 A 
HETATM   22  C9  UNL     1      27.356   7.373  48.608  1.00  0.00     0.118 A 
HETATM   23  F1  UNL     1      27.637   8.663  48.367  1.00  0.00    -0.206 F 
HETATM   24  C10 UNL     1      26.204   6.963  49.231  1.00  0.00     0.071 A 
ENDBRANCH  16  18
ENDBRANCH  15  16
ENDBRANCH   1   9
BRANCH   8  25
HETATM   25  C17 UNL     1      23.259   0.922  53.121  1.00  0.00     0.134 C 
BRANCH  25  26
HETATM   26  C18 UNL     1      22.370  -0.193  52.643  1.00  0.00     0.050 C 
BRANCH  26  27
HETATM   27  C19 UNL     1      21.170   0.224  51.871  1.00  0.00     0.274 C 
BRANCH  27  28
HETATM   28  N4  UNL     1      20.067   0.717  52.636  1.00  0.00     0.088 N 
HETATM   29  C20 UNL     1      19.300   1.722  51.923  1.00  0.00     0.272 C 
HETATM   30  C21 UNL     1      18.869   1.183  50.599  1.00  0.00     0.030 C 
HETATM   31  C22 UNL     1      18.064  -0.062  50.803  1.00  0.00     0.003 C 
HETATM   32  C23 UNL     1      17.921  -0.436  52.257  1.00  0.00     0.030 C 
HETATM   33  C24 UNL     1      19.222  -0.382  53.002  1.00  0.00     0.272 C 
ENDBRANCH  27  28
ENDBRANCH  26  27
ENDBRANCH  25  26
ENDBRANCH   8  25
TORSDOF 7
ENDMDL
MODEL 6
REMARK VINA RESULT:      -7.8      2.874      5.886
REMARK  7 active torsions:
REMARK  status: ('A' for Active; 'I' for Inactive)
REMARK    1  A    between atoms: C4_6  and  N2_7 
REMARK    2  A    between atoms: N2_7  and  C5_8 
REMARK    3  A    between atoms: C11_15  and  C12_16 
REMARK    4  A    between atoms: N3_23  and  C17_24 
REMARK    5  A    between atoms: C17_24  and  C18_25 
REMARK    6  A    between atoms: C18_25  and  C19_26 
REMARK    7  A    between atoms: C19_26  and  N4_27 
ROOT
HETATM    1  C12 UNL     1      23.778   1.578  51.424  1.00  0.00     0.043 C 
HETATM    2  C13 UNL     1      24.514   2.415  50.740  1.00  0.00     0.039 C 
HETATM    3  C14 UNL     1      25.918   2.699  51.134  1.00  0.00     0.225 C 
HETATM    4  O1  UNL     1      26.453   3.669  50.313  1.00  0.00    -0.376 OA
HETATM    5  C15 UNL     1      25.675   4.764  50.072  1.00  0.00     0.271 C 
HETATM    6  C16 UNL     1      24.472   4.433  49.255  1.00  0.00     0.247 C 
HETATM    7  O2  UNL     1      23.903   5.160  48.402  1.00  0.00    -0.271 OA
HETATM    8  N3  UNL     1      23.989   3.093  49.562  1.00  0.00    -0.318 N 
ENDROOT
BRANCH   1   9
HETATM    9  C11 UNL     1      23.527   0.649  52.487  1.00  0.00     0.023 A 
HETATM   10  C2  UNL     1      22.282  -0.072  52.723  1.00  0.00    -0.022 A 
HETATM   11  C1  UNL     1      21.251   0.067  51.913  1.00  0.00     0.050 C 
HETATM   12  S1  UNL     1      21.914  -1.203  54.049  1.00  0.00    -0.184 SA
HETATM   13  C3  UNL     1      23.408  -1.271  55.018  1.00  0.00     0.312 A 
HETATM   14  N1  UNL     1      24.338  -0.519  54.546  1.00  0.00    -0.253 NA
HETATM   15  C4  UNL     1      24.358   0.308  53.437  1.00  0.00     0.135 A 
BRANCH  15  16
HETATM   16  N2  UNL     1      25.713   0.801  53.537  1.00  0.00    -0.340 N 
HETATM   17  H4  UNL     1      26.094   1.749  53.731  1.00  0.00     0.167 HD
BRANCH  16  18
HETATM   18  C5  UNL     1      26.742  -0.193  53.358  1.00  0.00     0.036 A 
HETATM   19  C6  UNL     1      26.422  -1.368  52.691  1.00  0.00     0.029 A 
HETATM   20  C7  UNL     1      27.382  -2.362  52.490  1.00  0.00     0.005 A 
HETATM   21  C8  UNL     1      28.651  -2.164  52.961  1.00  0.00     0.042 A 
HETATM   22  C9  UNL     1      29.011  -1.012  53.628  1.00  0.00     0.118 A 
HETATM   23  F1  UNL     1      30.265  -0.849  54.077  1.00  0.00    -0.206 F 
HETATM   24  C10 UNL     1      28.030  -0.067  53.798  1.00  0.00     0.071 A 
ENDBRANCH  16  18
ENDBRANCH  15  16
ENDBRANCH   1   9
BRANCH   8  25
HETATM   25  C17 UNL     1      23.025   2.480  48.714  1.00  0.00     0.134 C 
BRANCH  25  26
HETATM   26  C18 UNL     1      21.735   3.244  48.589  1.00  0.00     0.050 C 
BRANCH  26  27
HETATM   27  C19 UNL     1      20.718   2.971  49.639  1.00  0.00     0.274 C 
BRANCH  27  28
HETATM   28  N4  UNL     1      20.039   4.111  50.171  1.00  0.00     0.088 N 
HETATM   29  C20 UNL     1      19.739   3.970  51.585  1.00  0.00     0.272 C 
HETATM   30  C21 UNL     1      20.990   3.660  52.337  1.00  0.00     0.030 C 
HETATM   31  C22 UNL     1      21.995   4.744  52.107  1.00  0.00     0.003 C 
HETATM   32  C23 UNL     1      21.490   5.826  51.186  1.00  0.00     0.030 C 
HETATM   33  C24 UNL     1      20.839   5.280  49.950  1.00  0.00     0.272 C 
ENDBRANCH  27  28
ENDBRANCH  26  27
ENDBRANCH  25  26
ENDBRANCH   8  25
TORSDOF 7
ENDMDL
MODEL 7
REMARK VINA RESULT:      -7.7      3.031      6.080
REMARK  7 active torsions:
REMARK  status: ('A' for Active; 'I' for Inactive)
REMARK    1  A    between atoms: C4_6  and  N2_7 
REMARK    2  A    between atoms: N2_7  and  C5_8 
REMARK    3  A    between atoms: C11_15  and  C12_16 
REMARK    4  A    between atoms: N3_23  and  C17_24 
REMARK    5  A    between atoms: C17_24  and  C18_25 
REMARK    6  A    between atoms: C18_25  and  C19_26 
REMARK    7  A    between atoms: C19_26  and  N4_27 
ROOT
HETATM    1  C12 UNL     1      23.657   2.384  52.478  1.00  0.00     0.043 C 
HETATM    2  C13 UNL     1      24.049   3.092  51.451  1.00  0.00     0.039 C 
HETATM    3  C14 UNL     1      24.909   2.498  50.395  1.00  0.00     0.225 C 
HETATM    4  O1  UNL     1      25.254   3.459  49.467  1.00  0.00    -0.376 OA
HETATM    5  C15 UNL     1      25.671   4.661  49.960  1.00  0.00     0.271 C 
HETATM    6  C16 UNL     1      24.570   5.405  50.639  1.00  0.00     0.247 C 
HETATM    7  O2  UNL     1      24.398   6.650  50.678  1.00  0.00    -0.271 OA
HETATM    8  N3  UNL     1      23.652   4.486  51.297  1.00  0.00    -0.318 N 
ENDROOT
BRANCH   1   9
HETATM    9  C11 UNL     1      23.576   1.192  53.270  1.00  0.00     0.023 A 
HETATM   10  C2  UNL     1      22.355   0.479  53.628  1.00  0.00    -0.022 A 
HETATM   11  C1  UNL     1      21.178   0.888  53.199  1.00  0.00     0.050 C 
HETATM   12  S1  UNL     1      22.205  -0.980  54.638  1.00  0.00    -0.184 SA
HETATM   13  C3  UNL     1      23.875  -1.385  55.107  1.00  0.00     0.312 A 
HETATM   14  N1  UNL     1      24.737  -0.561  54.627  1.00  0.00    -0.253 NA
HETATM   15  C4  UNL     1      24.574   0.557  53.826  1.00  0.00     0.135 A 
BRANCH  15  16
HETATM   16  N2  UNL     1      25.957   0.949  53.686  1.00  0.00    -0.340 N 
HETATM   17  H4  UNL     1      26.426   1.875  53.751  1.00  0.00     0.167 HD
BRANCH  16  18
HETATM   18  C5  UNL     1      26.878  -0.130  53.428  1.00  0.00     0.036 A 
HETATM   19  C6  UNL     1      26.440  -1.212  52.675  1.00  0.00     0.029 A 
HETATM   20  C7  UNL     1      27.292  -2.282  52.396  1.00  0.00     0.005 A 
HETATM   21  C8  UNL     1      28.572  -2.253  52.875  1.00  0.00     0.042 A 
HETATM   22  C9  UNL     1      29.048  -1.199  53.626  1.00  0.00     0.118 A 
HETATM   23  F1  UNL     1      30.311  -1.203  54.081  1.00  0.00    -0.206 F 
HETATM   24  C10 UNL     1      28.170  -0.173  53.871  1.00  0.00     0.071 A 
ENDBRANCH  16  18
ENDBRANCH  15  16
ENDBRANCH   1   9
BRANCH   8  25
HETATM   25  C17 UNL     1      22.398   4.962  51.771  1.00  0.00     0.134 C 
BRANCH  25  26
HETATM   26  C18 UNL     1      21.206   4.384  51.058  1.00  0.00     0.050 C 
BRANCH  26  27
HETATM   27  C19 UNL     1      21.347   4.228  49.586  1.00  0.00     0.274 C 
BRANCH  27  28
HETATM   28  N4  UNL     1      20.322   3.479  48.929  1.00  0.00     0.088 N 
HETATM   29  C20 UNL     1      20.832   2.690  47.822  1.00  0.00     0.272 C 
HETATM   30  C21 UNL     1      21.948   1.819  48.295  1.00  0.00     0.030 C 
HETATM   31  C22 UNL     1      21.462   0.939  49.403  1.00  0.00     0.003 C 
HETATM   32  C23 UNL     1      20.013   1.173  49.745  1.00  0.00     0.030 C 
HETATM   33  C24 UNL     1      19.676   2.628  49.886  1.00  0.00     0.272 C 
ENDBRANCH  27  28
ENDBRANCH  26  27
ENDBRANCH  25  26
ENDBRANCH   8  25
TORSDOF 7
ENDMDL
MODEL 8
REMARK VINA RESULT:      -7.6      3.212      5.647
REMARK  7 active torsions:
REMARK  status: ('A' for Active; 'I' for Inactive)
REMARK    1  A    between atoms: C4_6  and  N2_7 
REMARK    2  A    between atoms: N2_7  and  C5_8 
REMARK    3  A    between atoms: C11_15  and  C12_16 
REMARK    4  A    between atoms: N3_23  and  C17_24 
REMARK    5  A    between atoms: C17_24  and  C18_25 
REMARK    6  A    between atoms: C18_25  and  C19_26 
REMARK    7  A    between atoms: C19_26  and  N4_27 
ROOT
HETATM    1  C12 UNL     1      22.601   2.086  51.596  1.00  0.00     0.043 C 
HETATM    2  C13 UNL     1      22.376   3.299  51.165  1.00  0.00     0.039 C 
HETATM    3  C14 UNL     1      21.629   4.281  51.993  1.00  0.00     0.225 C 
HETATM    4  O1  UNL     1      21.451   5.455  51.292  1.00  0.00    -0.376 OA
HETATM    5  C15 UNL     1      21.032   5.337  49.998  1.00  0.00     0.271 C 
HETATM    6  C16 UNL     1      22.072   4.721  49.123  1.00  0.00     0.247 C 
HETATM    7  O2  UNL     1      22.297   4.968  47.911  1.00  0.00    -0.271 OA
HETATM    8  N3  UNL     1      22.855   3.738  49.860  1.00  0.00    -0.318 N 
ENDROOT
BRANCH   1   9
HETATM    9  C11 UNL     1      22.524   1.020  52.552  1.00  0.00     0.023 A 
HETATM   10  C2  UNL     1      21.388   0.130  52.758  1.00  0.00    -0.022 A 
HETATM   11  C1  UNL     1      20.301   0.231  52.018  1.00  0.00     0.050 C 
HETATM   12  S1  UNL     1      21.235  -1.179  53.956  1.00  0.00    -0.184 SA
HETATM   13  C3  UNL     1      22.782  -1.172  54.840  1.00  0.00     0.312 A 
HETATM   14  N1  UNL     1      23.587  -0.264  54.418  1.00  0.00    -0.253 NA
HETATM   15  C4  UNL     1      23.445   0.679  53.415  1.00  0.00     0.135 A 
BRANCH  15  16
HETATM   16  N2  UNL     1      24.736   1.321  53.510  1.00  0.00    -0.340 N 
HETATM   17  H4  UNL     1      25.009   2.312  53.665  1.00  0.00     0.167 HD
BRANCH  16  18
HETATM   18  C5  UNL     1      25.870   0.437  53.392  1.00  0.00     0.036 A 
HETATM   19  C6  UNL     1      27.068   0.809  53.988  1.00  0.00     0.029 A 
HETATM   20  C7  UNL     1      28.195  -0.010  53.905  1.00  0.00     0.005 A 
HETATM   21  C8  UNL     1      28.106  -1.193  53.224  1.00  0.00     0.042 A 
HETATM   22  C9  UNL     1      26.937  -1.601  52.617  1.00  0.00     0.118 A 
HETATM   23  F1  UNL     1      26.884  -2.768  51.957  1.00  0.00    -0.206 F 
HETATM   24  C10 UNL     1      25.859  -0.758  52.730  1.00  0.00     0.071 A 
ENDBRANCH  16  18
ENDBRANCH  15  16
ENDBRANCH   1   9
BRANCH   8  25
HETATM   25  C17 UNL     1      24.060   3.233  49.298  1.00  0.00     0.134 C 
BRANCH  25  26
HETATM   26  C18 UNL     1      25.314   3.802  49.905  1.00  0.00     0.050 C 
BRANCH  26  27
HETATM   27  C19 UNL     1      25.344   5.281  50.055  1.00  0.00     0.274 C 
BRANCH  27  28
HETATM   28  N4  UNL     1      25.502   6.035  48.850  1.00  0.00     0.088 N 
HETATM   29  C20 UNL     1      24.760   7.283  48.873  1.00  0.00     0.272 C 
HETATM   30  C21 UNL     1      25.139   8.072  50.082  1.00  0.00     0.030 C 
HETATM   31  C22 UNL     1      26.614   8.323  50.076  1.00  0.00     0.003 C 
HETATM   32  C23 UNL     1      27.307   7.714  48.884  1.00  0.00     0.030 C 
HETATM   33  C24 UNL     1      26.896   6.292  48.637  1.00  0.00     0.272 C 
ENDBRANCH  27  28
ENDBRANCH  26  27
ENDBRANCH  25  26
ENDBRANCH   8  25
TORSDOF 7
ENDMDL
MODEL 9
REMARK VINA RESULT:      -7.5      4.003      7.932
REMARK  7 active torsions:
REMARK  status: ('A' for Active; 'I' for Inactive)
REMARK    1  A    between atoms: C4_6  and  N2_7 
REMARK    2  A    between atoms: N2_7  and  C5_8 
REMARK    3  A    between atoms: C11_15  and  C12_16 
REMARK    4  A    between atoms: N3_23  and  C17_24 
REMARK    5  A    between atoms: C17_24  and  C18_25 
REMARK    6  A    between atoms: C18_25  and  C19_26 
REMARK    7  A    between atoms: C19_26  and  N4_27 
ROOT
HETATM    1  C12 UNL     1      22.115   4.473  50.251  1.00  0.00     0.043 C 
HETATM    2  C13 UNL     1      20.896   4.045  50.051  1.00  0.00     0.039 C 
HETATM    3  C14 UNL     1      20.342   3.922  48.678  1.00  0.00     0.225 C 
HETATM    4  O1  UNL     1      19.021   3.533  48.732  1.00  0.00    -0.376 OA
HETATM    5  C15 UNL     1      18.228   4.185  49.631  1.00  0.00     0.271 C 
HETATM    6  C16 UNL     1      18.600   3.874  51.042  1.00  0.00     0.247 C 
HETATM    7  O2  UNL     1      17.833   3.788  52.035  1.00  0.00    -0.271 OA
HETATM    8  N3  UNL     1      20.036   3.665  51.165  1.00  0.00    -0.318 N 
ENDROOT
BRANCH   1   9
HETATM    9  C11 UNL     1      23.399   4.956  49.835  1.00  0.00     0.023 A 
HETATM   10  C2  UNL     1      23.715   6.321  49.432  1.00  0.00    -0.022 A 
HETATM   11  C1  UNL     1      22.796   7.266  49.452  1.00  0.00     0.050 C 
HETATM   12  S1  UNL     1      25.283   6.955  48.873  1.00  0.00    -0.184 SA
HETATM   13  C3  UNL     1      26.386   5.556  48.926  1.00  0.00     0.312 A 
HETATM   14  N1  UNL     1      25.804   4.484  49.331  1.00  0.00    -0.253 NA
HETATM   15  C4  UNL     1      24.496   4.254  49.722  1.00  0.00     0.135 A 
BRANCH  15  16
HETATM   16  N2  UNL     1      24.592   2.850  50.050  1.00  0.00    -0.340 N 
HETATM   17  H4  UNL     1      24.313   1.995  49.529  1.00  0.00     0.167 HD
BRANCH  16  18
HETATM   18  C5  UNL     1      25.205   2.558  51.323  1.00  0.00     0.036 A 
HETATM   19  C6  UNL     1      24.555   2.963  52.482  1.00  0.00     0.029 A 
HETATM   20  C7  UNL     1      25.105   2.705  53.739  1.00  0.00     0.005 A 
HETATM   21  C8  UNL     1      26.299   2.043  53.817  1.00  0.00     0.042 A 
HETATM   22  C9  UNL     1      26.977   1.623  52.692  1.00  0.00     0.118 A 
HETATM   23  F1  UNL     1      28.147   0.975  52.805  1.00  0.00    -0.206 F 
HETATM   24  C10 UNL     1      26.393   1.902  51.482  1.00  0.00     0.071 A 
ENDBRANCH  16  18
ENDBRANCH  15  16
ENDBRANCH   1   9
BRANCH   8  25
HETATM   25  C17 UNL     1      20.566   3.098  52.358  1.00  0.00     0.134 C 
BRANCH  25  26
HETATM   26  C18 UNL     1      20.639   1.596  52.351  1.00  0.00     0.050 C 
BRANCH  26  27
HETATM   27  C19 UNL     1      21.606   0.991  53.305  1.00  0.00     0.274 C 
BRANCH  27  28
HETATM   28  N4  UNL     1      21.482  -0.416  53.522  1.00  0.00     0.088 N 
HETATM   29  C20 UNL     1      22.485  -1.181  52.802  1.00  0.00     0.272 C 
HETATM   30  C21 UNL     1      23.847  -0.677  53.148  1.00  0.00     0.030 C 
HETATM   31  C22 UNL     1      24.057  -0.772  54.626  1.00  0.00     0.003 C 
HETATM   32  C23 UNL     1      22.859  -1.327  55.354  1.00  0.00     0.030 C 
HETATM   33  C24 UNL     1      21.572  -0.684  54.928  1.00  0.00     0.272 C 
ENDBRANCH  27  28
ENDBRANCH  26  27
ENDBRANCH  25  26
ENDBRANCH   8  25
TORSDOF 7
ENDMDL
