MODEL 1
REMARK VINA RESULT:      -8.8      0.000      0.000
REMARK  5 active torsions:
REMARK  status: ('A' for Active; 'I' for Inactive)
REMARK    1  A    between atoms: C2_2  and  O1_3 
REMARK    2  A    between atoms: O1_3  and  C3_4 
REMARK    3  A    between atoms: C3_4  and  C4_6 
REMARK    4  A    between atoms: C5_7  and  C6_8 
REMARK       I    between atoms: C6_8  and  N1_10 
REMARK    5  A    between atoms: N1_10  and  C7_11 
ROOT
HETATM    1  C7  UNL     1      25.439   3.861  49.419  1.00  0.00     0.048 A 
HETATM    2  C8  UNL     1      24.077   3.677  49.514  1.00  0.00     0.030 A 
HETATM    3  C9  UNL     1      23.305   4.755  49.139  1.00  0.00     0.005 A 
HETATM    4  C10 UNL     1      23.914   5.937  48.695  1.00  0.00     0.038 A 
HETATM    5  C11 UNL     1      25.305   6.080  48.613  1.00  0.00     0.083 A 
HETATM    6  C12 UNL     1      26.067   5.008  48.988  1.00  0.00     0.026 A 
HETATM    7  C13 UNL     1      27.499   4.946  48.976  1.00  0.00     0.042 C 
HETATM    8  C14 UNL     1      28.421   5.590  48.283  1.00  0.00     0.056 A 
HETATM    9 CL1  UNL     1      30.153   5.278  48.504  1.00  0.00    -0.083 Cl
HETATM   10  O4  UNL     1      29.061   6.461  47.379  1.00  0.00     0.000 OA
HETATM   11  C15 UNL     1      29.060   7.852  47.651  1.00  0.00    -0.021 C 
HETATM   12  C16 UNL     1      28.268   8.167  46.639  1.00  0.00     0.043 C 
HETATM   13  C17 UNL     1      27.677   9.363  46.079  1.00  0.00    -0.000 C 
HETATM   14  C18 UNL     1      27.325  10.644  45.863  1.00  0.00     0.085 C 
HETATM   15  N2  UNL     1      27.981  11.334  46.905  1.00  0.00    -0.361 N 
HETATM   16  C19 UNL     1      27.889  11.188  48.309  1.00  0.00     0.208 C 
HETATM   17  N3  UNL     1      27.737  10.813  49.498  1.00  0.00    -0.237 NA
HETATM   18  C20 UNL     1      27.360   9.570  50.012  1.00  0.00     0.230 C 
HETATM   19  N4  UNL     1      26.530   8.589  49.849  1.00  0.00    -0.257 NA
HETATM   20  C21 UNL     1      25.540   8.550  48.819  1.00  0.00     0.325 C 
HETATM   21  O5  UNL     1      25.539   7.338  48.148  1.00  0.00    -0.329 OA
HETATM   22  H17 UNL     1      28.597  12.031  46.456  1.00  0.00     0.166 HD
ENDROOT
BRANCH   1  23
HETATM   23  N1  UNL     1      26.211   2.723  49.814  1.00  0.00    -0.323 N 
HETATM   24  C6  UNL     1      26.034   2.323  51.160  1.00  0.00     0.245 C 
HETATM   25  O3  UNL     1      25.207   3.049  51.800  1.00  0.00    -0.268 OA
HETATM   26  H8  UNL     1      26.866   2.198  49.191  1.00  0.00     0.169 HD
BRANCH  24  27
HETATM   27  C5  UNL     1      26.735   1.193  51.738  1.00  0.00     0.080 C 
HETATM   28  C4  UNL     1      26.214   0.308  52.567  1.00  0.00     0.088 C 
BRANCH  28  29
HETATM   29  C3  UNL     1      27.003  -0.799  53.096  1.00  0.00     0.283 C 
HETATM   30  O2  UNL     1      27.041  -1.902  52.452  1.00  0.00    -0.260 OA
BRANCH  29  31
HETATM   31  O1  UNL     1      27.703  -0.674  54.270  1.00  0.00    -0.319 OA
BRANCH  31  32
HETATM   32  C2  UNL     1      28.884   0.088  54.403  1.00  0.00     0.174 C 
HETATM   33  C1  UNL     1      29.970  -0.621  53.576  1.00  0.00     0.034 C 
ENDBRANCH  31  32
ENDBRANCH  29  31
ENDBRANCH  28  29
ENDBRANCH  24  27
ENDBRANCH   1  23
TORSDOF 5
ENDMDL
MODEL 2
REMARK VINA RESULT:      -8.4      5.135      9.299
REMARK  5 active torsions:
REMARK  status: ('A' for Active; 'I' for Inactive)
REMARK    1  A    between atoms: C2_2  and  O1_3 
REMARK    2  A    between atoms: O1_3  and  C3_4 
REMARK    3  A    between atoms: C3_4  and  C4_6 
REMARK    4  A    between atoms: C5_7  and  C6_8 
REMARK       I    between atoms: C6_8  and  N1_10 
REMARK    5  A    between atoms: N1_10  and  C7_11 
ROOT
HETATM    1  C7  UNL     1      23.230   3.512  50.596  1.00  0.00     0.048 A 
HETATM    2  C8  UNL     1      23.662   4.330  49.576  1.00  0.00     0.030 A 
HETATM    3  C9  UNL     1      24.992   4.203  49.237  1.00  0.00     0.005 A 
HETATM    4  C10 UNL     1      25.808   3.288  49.916  1.00  0.00     0.038 A 
HETATM    5  C11 UNL     1      25.326   2.474  50.949  1.00  0.00     0.083 A 
HETATM    6  C12 UNL     1      24.005   2.604  51.282  1.00  0.00     0.026 A 
HETATM    7  C13 UNL     1      23.317   1.867  52.301  1.00  0.00     0.042 C 
HETATM    8  C14 UNL     1      23.528   0.688  52.856  1.00  0.00     0.056 A 
HETATM    9 CL1  UNL     1      22.468   0.040  54.122  1.00  0.00    -0.083 Cl
HETATM   10  O4  UNL     1      24.082  -0.567  53.181  1.00  0.00     0.000 OA
HETATM   11  C15 UNL     1      25.308  -0.612  53.889  1.00  0.00    -0.021 C 
HETATM   12  C16 UNL     1      26.006  -1.109  52.879  1.00  0.00     0.043 C 
HETATM   13  C17 UNL     1      27.373  -1.506  52.620  1.00  0.00    -0.000 C 
HETATM   14  C18 UNL     1      28.688  -1.756  52.759  1.00  0.00     0.085 C 
HETATM   15  N2  UNL     1      28.948  -1.360  54.088  1.00  0.00    -0.361 N 
HETATM   16  C19 UNL     1      28.769  -0.112  54.732  1.00  0.00     0.208 C 
HETATM   17  N3  UNL     1      28.424   1.030  55.122  1.00  0.00    -0.237 NA
HETATM   18  C20 UNL     1      27.447   1.898  54.627  1.00  0.00     0.230 C 
HETATM   19  N4  UNL     1      26.948   2.382  53.534  1.00  0.00    -0.257 NA
HETATM   20  C21 UNL     1      27.416   2.041  52.228  1.00  0.00     0.325 C 
HETATM   21  O5  UNL     1      26.377   1.720  51.372  1.00  0.00    -0.329 OA
HETATM   22  H17 UNL     1      29.327  -2.189  54.575  1.00  0.00     0.166 HD
ENDROOT
BRANCH   1  23
HETATM   23  N1  UNL     1      21.845   3.666  50.921  1.00  0.00    -0.323 N 
HETATM   24  C6  UNL     1      20.958   2.916  50.113  1.00  0.00     0.245 C 
HETATM   25  O3  UNL     1      21.546   2.221  49.224  1.00  0.00    -0.268 OA
HETATM   26  H8  UNL     1      21.474   4.273  51.688  1.00  0.00     0.169 HD
BRANCH  24  27
HETATM   27  C5  UNL     1      19.520   2.949  50.295  1.00  0.00     0.080 C 
HETATM   28  C4  UNL     1      18.894   3.232  51.423  1.00  0.00     0.088 C 
BRANCH  28  29
HETATM   29  C3  UNL     1      17.438   3.241  51.507  1.00  0.00     0.283 C 
HETATM   30  O2  UNL     1      16.862   4.093  52.263  1.00  0.00    -0.260 OA
BRANCH  29  31
HETATM   31  O1  UNL     1      16.681   2.351  50.786  1.00  0.00    -0.319 OA
BRANCH  31  32
HETATM   32  C2  UNL     1      16.143   1.162  51.324  1.00  0.00     0.174 C 
HETATM   33  C1  UNL     1      17.074   0.015  50.896  1.00  0.00     0.034 C 
ENDBRANCH  31  32
ENDBRANCH  29  31
ENDBRANCH  28  29
ENDBRANCH  24  27
ENDBRANCH   1  23
TORSDOF 5
ENDMDL
MODEL 3
REMARK VINA RESULT:      -8.4      3.437      7.971
REMARK  5 active torsions:
REMARK  status: ('A' for Active; 'I' for Inactive)
REMARK    1  A    between atoms: C2_2  and  O1_3 
REMARK    2  A    between atoms: O1_3  and  C3_4 
REMARK    3  A    between atoms: C3_4  and  C4_6 
REMARK    4  A    between atoms: C5_7  and  C6_8 
REMARK       I    between atoms: C6_8  and  N1_10 
REMARK    5  A    between atoms: N1_10  and  C7_11 
ROOT
HETATM    1  C7  UNL     1      25.388   6.886  50.027  1.00  0.00     0.048 A 
HETATM    2  C8  UNL     1      24.877   8.161  49.926  1.00  0.00     0.030 A 
HETATM    3  C9  UNL     1      23.515   8.270  50.103  1.00  0.00     0.005 A 
HETATM    4  C10 UNL     1      22.745   7.129  50.368  1.00  0.00     0.038 A 
HETATM    5  C11 UNL     1      23.307   5.849  50.464  1.00  0.00     0.083 A 
HETATM    6  C12 UNL     1      24.661   5.746  50.287  1.00  0.00     0.026 A 
HETATM    7  C13 UNL     1      25.428   4.537  50.347  1.00  0.00     0.042 C 
HETATM    8  C14 UNL     1      25.236   3.380  50.953  1.00  0.00     0.056 A 
HETATM    9 CL1  UNL     1      26.403   2.050  50.832  1.00  0.00    -0.083 Cl
HETATM   10  O4  UNL     1      24.677   2.340  51.723  1.00  0.00     0.000 OA
HETATM   11  C15 UNL     1      23.534   1.663  51.232  1.00  0.00    -0.021 C 
HETATM   12  C16 UNL     1      22.714   2.134  52.159  1.00  0.00     0.043 C 
HETATM   13  C17 UNL     1      21.314   2.016  52.504  1.00  0.00    -0.000 C 
HETATM   14  C18 UNL     1      20.013   1.670  52.502  1.00  0.00     0.085 C 
HETATM   15  N2  UNL     1      19.913   0.818  51.382  1.00  0.00    -0.361 N 
HETATM   16  C19 UNL     1      20.205   1.051  50.016  1.00  0.00     0.208 C 
HETATM   17  N3  UNL     1      20.629   1.436  48.899  1.00  0.00    -0.237 NA
HETATM   18  C20 UNL     1      21.577   2.412  48.581  1.00  0.00     0.230 C 
HETATM   19  N4  UNL     1      21.972   3.609  48.876  1.00  0.00    -0.257 NA
HETATM   20  C21 UNL     1      21.353   4.426  49.871  1.00  0.00     0.325 C 
HETATM   21  O5  UNL     1      22.282   4.993  50.727  1.00  0.00    -0.329 OA
HETATM   22  H17 UNL     1      19.559  -0.088  51.730  1.00  0.00     0.166 HD
ENDROOT
BRANCH   1  23
HETATM   23  N1  UNL     1      26.804   6.808  49.841  1.00  0.00    -0.323 N 
HETATM   24  C6  UNL     1      27.226   6.796  48.490  1.00  0.00     0.245 C 
HETATM   25  O3  UNL     1      26.265   6.860  47.658  1.00  0.00    -0.268 OA
HETATM   26  H8  UNL     1      27.509   6.762  50.612  1.00  0.00     0.169 HD
BRANCH  24  27
HETATM   27  C5  UNL     1      28.623   6.718  48.109  1.00  0.00     0.080 C 
HETATM   28  C4  UNL     1      29.389   5.648  48.212  1.00  0.00     0.088 C 
BRANCH  28  29
HETATM   29  C3  UNL     1      30.787   5.667  47.800  1.00  0.00     0.283 C 
HETATM   30  O2  UNL     1      31.170   6.523  46.932  1.00  0.00    -0.260 OA
BRANCH  29  31
HETATM   31  O1  UNL     1      31.695   4.785  48.329  1.00  0.00    -0.319 OA
BRANCH  31  32
HETATM   32  C2  UNL     1      32.667   4.104  47.564  1.00  0.00     0.174 C 
HETATM   33  C1  UNL     1      31.908   3.170  46.606  1.00  0.00     0.034 C 
ENDBRANCH  31  32
ENDBRANCH  29  31
ENDBRANCH  28  29
ENDBRANCH  24  27
ENDBRANCH   1  23
TORSDOF 5
ENDMDL
MODEL 4
REMARK VINA RESULT:      -8.2      5.097      6.233
REMARK  5 active torsions:
REMARK  status: ('A' for Active; 'I' for Inactive)
REMARK    1  A    between atoms: C2_2  and  O1_3 
REMARK    2  A    between atoms: O1_3  and  C3_4 
REMARK    3  A    between atoms: C3_4  and  C4_6 
REMARK    4  A    between atoms: C5_7  and  C6_8 
REMARK       I    between atoms: C6_8  and  N1_10 
REMARK    5  A    between atoms: N1_10  and  C7_11 
ROOT
HETATM    1  C7  UNL     1      22.652   1.188  53.024  1.00  0.00     0.048 A 
HETATM    2  C8  UNL     1      21.715   0.586  53.834  1.00  0.00     0.030 A 
HETATM    3  C9  UNL     1      20.400   0.788  53.471  1.00  0.00     0.005 A 
HETATM    4  C10 UNL     1      20.091   1.561  52.344  1.00  0.00     0.038 A 
HETATM    5  C11 UNL     1      21.078   2.154  51.546  1.00  0.00     0.083 A 
HETATM    6  C12 UNL     1      22.382   1.951  51.911  1.00  0.00     0.026 A 
HETATM    7  C13 UNL     1      23.536   2.465  51.232  1.00  0.00     0.042 C 
HETATM    8  C14 UNL     1      23.753   2.838  49.985  1.00  0.00     0.056 A 
HETATM    9 CL1  UNL     1      25.331   3.441  49.444  1.00  0.00    -0.083 Cl
HETATM   10  O4  UNL     1      23.578   3.127  48.616  1.00  0.00     0.000 OA
HETATM   11  C15 UNL     1      22.787   4.245  48.248  1.00  0.00    -0.021 C 
HETATM   12  C16 UNL     1      21.808   3.525  47.723  1.00  0.00     0.043 C 
HETATM   13  C17 UNL     1      20.534   3.765  47.081  1.00  0.00    -0.000 C 
HETATM   14  C18 UNL     1      19.453   4.368  46.553  1.00  0.00     0.085 C 
HETATM   15  N2  UNL     1      19.726   5.738  46.751  1.00  0.00    -0.361 N 
HETATM   16  C19 UNL     1      19.978   6.468  47.937  1.00  0.00     0.208 C 
HETATM   17  N3  UNL     1      20.285   6.886  49.080  1.00  0.00    -0.237 NA
HETATM   18  C20 UNL     1      20.823   6.205  50.176  1.00  0.00     0.230 C 
HETATM   19  N4  UNL     1      20.736   5.110  50.860  1.00  0.00    -0.257 NA
HETATM   20  C21 UNL     1      19.814   4.059  50.564  1.00  0.00     0.325 C 
HETATM   21  O5  UNL     1      20.427   2.818  50.552  1.00  0.00    -0.329 OA
HETATM   22  H17 UNL     1      19.713   6.180  45.816  1.00  0.00     0.166 HD
ENDROOT
BRANCH   1  23
HETATM   23  N1  UNL     1      24.006   0.958  53.426  1.00  0.00    -0.323 N 
HETATM   24  C6  UNL     1      24.425  -0.392  53.356  1.00  0.00     0.245 C 
HETATM   25  O3  UNL     1      23.519  -1.184  52.940  1.00  0.00    -0.268 OA
HETATM   26  H8  UNL     1      24.669   1.698  53.752  1.00  0.00     0.169 HD
BRANCH  24  27
HETATM   27  C5  UNL     1      25.762  -0.815  53.726  1.00  0.00     0.080 C 
HETATM   28  C4  UNL     1      26.692  -1.240  52.891  1.00  0.00     0.088 C 
BRANCH  28  29
HETATM   29  C3  UNL     1      28.012  -1.644  53.361  1.00  0.00     0.283 C 
HETATM   30  O2  UNL     1      28.472  -2.787  53.022  1.00  0.00    -0.260 OA
BRANCH  29  31
HETATM   31  O1  UNL     1      28.766  -0.818  54.157  1.00  0.00    -0.319 OA
BRANCH  31  32
HETATM   32  C2  UNL     1      29.611   0.197  53.658  1.00  0.00     0.174 C 
HETATM   33  C1  UNL     1      28.966   1.542  54.032  1.00  0.00     0.034 C 
ENDBRANCH  31  32
ENDBRANCH  29  31
ENDBRANCH  28  29
ENDBRANCH  24  27
ENDBRANCH   1  23
TORSDOF 5
ENDMDL
MODEL 5
REMARK VINA RESULT:      -8.0      7.604     10.950
REMARK  5 active torsions:
REMARK  status: ('A' for Active; 'I' for Inactive)
REMARK    1  A    between atoms: C2_2  and  O1_3 
REMARK    2  A    between atoms: O1_3  and  C3_4 
REMARK    3  A    between atoms: C3_4  and  C4_6 
REMARK    4  A    between atoms: C5_7  and  C6_8 
REMARK       I    between atoms: C6_8  and  N1_10 
REMARK    5  A    between atoms: N1_10  and  C7_11 
ROOT
HETATM    1  C7  UNL     1      21.139   1.690  52.754  1.00  0.00     0.048 A 
HETATM    2  C8  UNL     1      21.610   2.945  52.436  1.00  0.00     0.030 A 
HETATM    3  C9  UNL     1      20.702   3.782  51.824  1.00  0.00     0.005 A 
HETATM    4  C10 UNL     1      19.398   3.337  51.564  1.00  0.00     0.038 A 
HETATM    5  C11 UNL     1      18.961   2.051  51.905  1.00  0.00     0.083 A 
HETATM    6  C12 UNL     1      19.867   1.224  52.513  1.00  0.00     0.026 A 
HETATM    7  C13 UNL     1      19.623  -0.122  52.943  1.00  0.00     0.042 C 
HETATM    8  C14 UNL     1      18.525  -0.770  53.288  1.00  0.00     0.056 A 
HETATM    9 CL1  UNL     1      18.555  -2.471  53.787  1.00  0.00    -0.083 Cl
HETATM   10  O4  UNL     1      17.180  -1.086  53.569  1.00  0.00     0.000 OA
HETATM   11  C15 UNL     1      16.265  -1.197  52.493  1.00  0.00    -0.021 C 
HETATM   12  C16 UNL     1      15.572  -0.118  52.820  1.00  0.00     0.043 C 
HETATM   13  C17 UNL     1      14.426   0.607  52.316  1.00  0.00    -0.000 C 
HETATM   14  C18 UNL     1      13.372   0.991  51.571  1.00  0.00     0.085 C 
HETATM   15  N2  UNL     1      13.331   0.016  50.553  1.00  0.00    -0.361 N 
HETATM   16  C19 UNL     1      14.303  -0.362  49.597  1.00  0.00     0.208 C 
HETATM   17  N3  UNL     1      15.336  -0.610  48.927  1.00  0.00    -0.237 NA
HETATM   18  C20 UNL     1      16.683  -0.406  49.235  1.00  0.00     0.230 C 
HETATM   19  N4  UNL     1      17.511   0.446  49.750  1.00  0.00    -0.257 NA
HETATM   20  C21 UNL     1      17.122   1.722  50.261  1.00  0.00     0.325 C 
HETATM   21  O5  UNL     1      17.661   1.966  51.513  1.00  0.00    -0.329 OA
HETATM   22  H17 UNL     1      12.398  -0.426  50.605  1.00  0.00     0.166 HD
ENDROOT
BRANCH   1  23
HETATM   23  N1  UNL     1      22.105   0.848  53.390  1.00  0.00    -0.323 N 
HETATM   24  C6  UNL     1      23.244   0.550  52.603  1.00  0.00     0.245 C 
HETATM   25  O3  UNL     1      23.219   1.089  51.450  1.00  0.00    -0.268 OA
HETATM   26  H8  UNL     1      22.019   0.461  54.358  1.00  0.00     0.169 HD
BRANCH  24  27
HETATM   27  C5  UNL     1      24.325  -0.290  53.081  1.00  0.00     0.080 C 
HETATM   28  C4  UNL     1      25.605  -0.129  52.800  1.00  0.00     0.088 C 
BRANCH  28  29
HETATM   29  C3  UNL     1      26.622  -1.028  53.331  1.00  0.00     0.283 C 
HETATM   30  O2  UNL     1      26.783  -2.175  52.792  1.00  0.00    -0.260 OA
BRANCH  29  31
HETATM   31  O1  UNL     1      27.407  -0.662  54.395  1.00  0.00    -0.319 OA
BRANCH  31  32
HETATM   32  C2  UNL     1      28.262   0.461  54.391  1.00  0.00     0.174 C 
HETATM   33  C1  UNL     1      29.582   0.018  53.738  1.00  0.00     0.034 C 
ENDBRANCH  31  32
ENDBRANCH  29  31
ENDBRANCH  28  29
ENDBRANCH  24  27
ENDBRANCH   1  23
TORSDOF 5
ENDMDL
MODEL 6
REMARK VINA RESULT:      -8.0      4.138      6.464
REMARK  5 active torsions:
REMARK  status: ('A' for Active; 'I' for Inactive)
REMARK    1  A    between atoms: C2_2  and  O1_3 
REMARK    2  A    between atoms: O1_3  and  C3_4 
REMARK    3  A    between atoms: C3_4  and  C4_6 
REMARK    4  A    between atoms: C5_7  and  C6_8 
REMARK       I    between atoms: C6_8  and  N1_10 
REMARK    5  A    between atoms: N1_10  and  C7_11 
ROOT
HETATM    1  C7  UNL     1      25.203   3.665  49.662  1.00  0.00     0.048 A 
HETATM    2  C8  UNL     1      26.128   4.685  49.702  1.00  0.00     0.030 A 
HETATM    3  C9  UNL     1      25.716   5.880  49.152  1.00  0.00     0.005 A 
HETATM    4  C10 UNL     1      24.432   5.998  48.604  1.00  0.00     0.038 A 
HETATM    5  C11 UNL     1      23.522   4.933  48.586  1.00  0.00     0.083 A 
HETATM    6  C12 UNL     1      23.935   3.748  49.132  1.00  0.00     0.026 A 
HETATM    7  C13 UNL     1      23.162   2.544  49.216  1.00  0.00     0.042 C 
HETATM    8  C14 UNL     1      21.863   2.310  49.239  1.00  0.00     0.056 A 
HETATM    9 CL1  UNL     1      21.205   0.667  49.355  1.00  0.00    -0.083 Cl
HETATM   10  O4  UNL     1      20.463   2.482  49.232  1.00  0.00     0.000 OA
HETATM   11  C15 UNL     1      19.828   2.880  48.030  1.00  0.00    -0.021 C 
HETATM   12  C16 UNL     1      19.486   4.080  48.472  1.00  0.00     0.043 C 
HETATM   13  C17 UNL     1      18.795   5.245  47.966  1.00  0.00    -0.000 C 
HETATM   14  C18 UNL     1      18.127   6.100  47.168  1.00  0.00     0.085 C 
HETATM   15  N2  UNL     1      17.987   5.371  45.969  1.00  0.00    -0.361 N 
HETATM   16  C19 UNL     1      18.962   4.801  45.116  1.00  0.00     0.208 C 
HETATM   17  N3  UNL     1      19.972   4.287  44.576  1.00  0.00    -0.237 NA
HETATM   18  C20 UNL     1      21.205   3.925  45.126  1.00  0.00     0.230 C 
HETATM   19  N4  UNL     1      22.134   4.320  45.936  1.00  0.00    -0.257 NA
HETATM   20  C21 UNL     1      22.095   5.560  46.645  1.00  0.00     0.325 C 
HETATM   21  O5  UNL     1      22.391   5.399  47.988  1.00  0.00    -0.329 OA
HETATM   22  H17 UNL     1      16.973   5.307  45.778  1.00  0.00     0.166 HD
ENDROOT
BRANCH   1  23
HETATM   23  N1  UNL     1      25.660   2.440  50.242  1.00  0.00    -0.323 N 
HETATM   24  C6  UNL     1      25.425   2.315  51.631  1.00  0.00     0.245 C 
HETATM   25  O3  UNL     1      24.837   3.324  52.139  1.00  0.00    -0.268 OA
HETATM   26  H8  UNL     1      26.136   1.669  49.718  1.00  0.00     0.169 HD
BRANCH  24  27
HETATM   27  C5  UNL     1      25.821   1.144  52.389  1.00  0.00     0.080 C 
HETATM   28  C4  UNL     1      26.623   0.187  51.959  1.00  0.00     0.088 C 
BRANCH  28  29
HETATM   29  C3  UNL     1      26.965  -0.956  52.798  1.00  0.00     0.283 C 
HETATM   30  O2  UNL     1      26.774  -2.138  52.352  1.00  0.00    -0.260 OA
BRANCH  29  31
HETATM   31  O1  UNL     1      27.489  -0.781  54.055  1.00  0.00    -0.319 OA
BRANCH  31  32
HETATM   32  C2  UNL     1      28.702  -0.108  54.314  1.00  0.00     0.174 C 
HETATM   33  C1  UNL     1      29.818  -0.919  53.634  1.00  0.00     0.034 C 
ENDBRANCH  31  32
ENDBRANCH  29  31
ENDBRANCH  28  29
ENDBRANCH  24  27
ENDBRANCH   1  23
TORSDOF 5
ENDMDL
MODEL 7
REMARK VINA RESULT:      -7.9      3.914      4.938
REMARK  5 active torsions:
REMARK  status: ('A' for Active; 'I' for Inactive)
REMARK    1  A    between atoms: C2_2  and  O1_3 
REMARK    2  A    between atoms: O1_3  and  C3_4 
REMARK    3  A    between atoms: C3_4  and  C4_6 
REMARK    4  A    between atoms: C5_7  and  C6_8 
REMARK       I    between atoms: C6_8  and  N1_10 
REMARK    5  A    between atoms: N1_10  and  C7_11 
ROOT
HETATM    1  C7  UNL     1      21.968   1.142  50.853  1.00  0.00     0.048 A 
HETATM    2  C8  UNL     1      20.785   0.436  50.815  1.00  0.00     0.030 A 
HETATM    3  C9  UNL     1      19.743   1.060  50.163  1.00  0.00     0.005 A 
HETATM    4  C10 UNL     1      19.927   2.326  49.592  1.00  0.00     0.038 A 
HETATM    5  C11 UNL     1      21.148   3.008  49.653  1.00  0.00     0.083 A 
HETATM    6  C12 UNL     1      22.180   2.386  50.303  1.00  0.00     0.026 A 
HETATM    7  C13 UNL     1      23.504   2.907  50.474  1.00  0.00     0.042 C 
HETATM    8  C14 UNL     1      24.221   3.782  49.793  1.00  0.00     0.056 A 
HETATM    9 CL1  UNL     1      25.870   4.224  50.273  1.00  0.00    -0.083 Cl
HETATM   10  O4  UNL     1      24.634   4.726  48.831  1.00  0.00     0.000 OA
HETATM   11  C15 UNL     1      24.056   6.019  48.849  1.00  0.00    -0.021 C 
HETATM   12  C16 UNL     1      23.400   5.868  47.709  1.00  0.00     0.043 C 
HETATM   13  C17 UNL     1      22.512   6.650  46.877  1.00  0.00    -0.000 C 
HETATM   14  C18 UNL     1      21.745   7.646  46.395  1.00  0.00     0.085 C 
HETATM   15  N2  UNL     1      21.888   8.657  47.368  1.00  0.00    -0.361 N 
HETATM   16  C19 UNL     1      21.606   8.651  48.755  1.00  0.00     0.208 C 
HETATM   17  N3  UNL     1      21.396   8.388  49.965  1.00  0.00    -0.237 NA
HETATM   18  C20 UNL     1      21.433   7.167  50.644  1.00  0.00     0.230 C 
HETATM   19  N4  UNL     1      21.082   5.923  50.560  1.00  0.00    -0.257 NA
HETATM   20  C21 UNL     1      20.386   5.368  49.442  1.00  0.00     0.325 C 
HETATM   21  O5  UNL     1      20.967   4.190  49.003  1.00  0.00    -0.329 OA
HETATM   22  H17 UNL     1      22.264   9.486  46.879  1.00  0.00     0.166 HD
ENDROOT
BRANCH   1  23
HETATM   23  N1  UNL     1      23.029   0.467  51.535  1.00  0.00    -0.323 N 
HETATM   24  C6  UNL     1      22.940   0.495  52.947  1.00  0.00     0.245 C 
HETATM   25  O3  UNL     1      21.920   1.120  53.379  1.00  0.00    -0.268 OA
HETATM   26  H8  UNL     1      23.827  -0.023  51.067  1.00  0.00     0.169 HD
BRANCH  24  27
HETATM   27  C5  UNL     1      23.927  -0.134  53.804  1.00  0.00     0.080 C 
HETATM   28  C4  UNL     1      25.155   0.305  54.012  1.00  0.00     0.088 C 
BRANCH  28  29
HETATM   29  C3  UNL     1      26.077  -0.399  54.896  1.00  0.00     0.283 C 
HETATM   30  O2  UNL     1      25.623  -0.976  55.941  1.00  0.00    -0.260 OA
BRANCH  29  31
HETATM   31  O1  UNL     1      27.421  -0.452  54.621  1.00  0.00    -0.319 OA
BRANCH  31  32
HETATM   32  C2  UNL     1      27.954  -0.520  53.315  1.00  0.00     0.174 C 
HETATM   33  C1  UNL     1      29.480  -0.637  53.460  1.00  0.00     0.034 C 
ENDBRANCH  31  32
ENDBRANCH  29  31
ENDBRANCH  28  29
ENDBRANCH  24  27
ENDBRANCH   1  23
TORSDOF 5
ENDMDL
MODEL 8
REMARK VINA RESULT:      -7.8      5.446      6.756
REMARK  5 active torsions:
REMARK  status: ('A' for Active; 'I' for Inactive)
REMARK    1  A    between atoms: C2_2  and  O1_3 
REMARK    2  A    between atoms: O1_3  and  C3_4 
REMARK    3  A    between atoms: C3_4  and  C4_6 
REMARK    4  A    between atoms: C5_7  and  C6_8 
REMARK       I    between atoms: C6_8  and  N1_10 
REMARK    5  A    between atoms: N1_10  and  C7_11 
ROOT
HETATM    1  C7  UNL     1      20.698   0.759  52.389  1.00  0.00     0.048 A 
HETATM    2  C8  UNL     1      19.609  -0.056  52.606  1.00  0.00     0.030 A 
HETATM    3  C9  UNL     1      18.648  -0.037  51.619  1.00  0.00     0.005 A 
HETATM    4  C10 UNL     1      18.815   0.774  50.488  1.00  0.00     0.038 A 
HETATM    5  C11 UNL     1      19.940   1.588  50.307  1.00  0.00     0.083 A 
HETATM    6  C12 UNL     1      20.892   1.566  51.290  1.00  0.00     0.026 A 
HETATM    7  C13 UNL     1      22.113   2.318  51.298  1.00  0.00     0.042 C 
HETATM    8  C14 UNL     1      22.858   2.833  50.337  1.00  0.00     0.056 A 
HETATM    9 CL1  UNL     1      24.349   3.728  50.680  1.00  0.00    -0.083 Cl
HETATM   10  O4  UNL     1      23.349   3.211  49.071  1.00  0.00     0.000 OA
HETATM   11  C15 UNL     1      22.662   4.215  48.343  1.00  0.00    -0.021 C 
HETATM   12  C16 UNL     1      22.236   3.397  47.393  1.00  0.00     0.043 C 
HETATM   13  C17 UNL     1      21.442   3.484  46.187  1.00  0.00    -0.000 C 
HETATM   14  C18 UNL     1      20.687   3.951  45.175  1.00  0.00     0.085 C 
HETATM   15  N2  UNL     1      20.564   5.323  45.477  1.00  0.00    -0.361 N 
HETATM   16  C19 UNL     1      20.042   5.975  46.620  1.00  0.00     0.208 C 
HETATM   17  N3  UNL     1      19.645   6.332  47.756  1.00  0.00    -0.237 NA
HETATM   18  C20 UNL     1      19.670   5.651  48.977  1.00  0.00     0.230 C 
HETATM   19  N4  UNL     1      19.453   4.499  49.526  1.00  0.00    -0.257 NA
HETATM   20  C21 UNL     1      19.019   3.345  48.804  1.00  0.00     0.325 C 
HETATM   21  O5  UNL     1      19.772   2.225  49.116  1.00  0.00    -0.329 OA
HETATM   22  H17 UNL     1      20.944   5.839  44.666  1.00  0.00     0.166 HD
ENDROOT
BRANCH   1  23
HETATM   23  N1  UNL     1      21.678   0.715  53.430  1.00  0.00    -0.323 N 
HETATM   24  C6  UNL     1      22.619  -0.335  53.317  1.00  0.00     0.245 C 
HETATM   25  O3  UNL     1      22.437  -1.071  52.295  1.00  0.00    -0.268 OA
HETATM   26  H8  UNL     1      21.732   1.386  54.231  1.00  0.00     0.169 HD
BRANCH  24  27
HETATM   27  C5  UNL     1      23.683  -0.537  54.281  1.00  0.00     0.080 C 
HETATM   28  C4  UNL     1      24.966  -0.304  54.071  1.00  0.00     0.088 C 
BRANCH  28  29
HETATM   29  C3  UNL     1      25.964  -0.539  55.107  1.00  0.00     0.283 C 
HETATM   30  O2  UNL     1      25.602  -1.057  56.217  1.00  0.00    -0.260 OA
BRANCH  29  31
HETATM   31  O1  UNL     1      27.283  -0.215  54.908  1.00  0.00    -0.319 OA
BRANCH  31  32
HETATM   32  C2  UNL     1      27.890  -0.140  53.636  1.00  0.00     0.174 C 
HETATM   33  C1  UNL     1      29.217  -0.911  53.726  1.00  0.00     0.034 C 
ENDBRANCH  31  32
ENDBRANCH  29  31
ENDBRANCH  28  29
ENDBRANCH  24  27
ENDBRANCH   1  23
TORSDOF 5
ENDMDL
MODEL 9
REMARK VINA RESULT:      -7.7      7.569      9.358
REMARK  5 active torsions:
REMARK  status: ('A' for Active; 'I' for Inactive)
REMARK    1  A    between atoms: C2_2  and  O1_3 
REMARK    2  A    between atoms: O1_3  and  C3_4 
REMARK    3  A    between atoms: C3_4  and  C4_6 
REMARK    4  A    between atoms: C5_7  and  C6_8 
REMARK       I    between atoms: C6_8  and  N1_10 
REMARK    5  A    between atoms: N1_10  and  C7_11 
ROOT
HETATM    1  C7  UNL     1      20.625   0.314  53.215  1.00  0.00     0.048 A 
HETATM    2  C8  UNL     1      20.282  -0.877  53.816  1.00  0.00     0.030 A 
HETATM    3  C9  UNL     1      19.055  -1.391  53.457  1.00  0.00     0.005 A 
HETATM    4  C10 UNL     1      18.248  -0.709  52.537  1.00  0.00     0.038 A 
HETATM    5  C11 UNL     1      18.637   0.501  51.948  1.00  0.00     0.083 A 
HETATM    6  C12 UNL     1      19.856   1.008  52.308  1.00  0.00     0.026 A 
HETATM    7  C13 UNL     1      20.440   2.224  51.823  1.00  0.00     0.042 C 
HETATM    8  C14 UNL     1      20.276   2.919  50.712  1.00  0.00     0.056 A 
HETATM    9 CL1  UNL     1      21.170   4.419  50.401  1.00  0.00    -0.083 Cl
HETATM   10  O4  UNL     1      19.826   3.349  49.447  1.00  0.00     0.000 OA
HETATM   11  C15 UNL     1      18.510   3.859  49.326  1.00  0.00    -0.021 C 
HETATM   12  C16 UNL     1      18.060   2.846  48.602  1.00  0.00     0.043 C 
HETATM   13  C17 UNL     1      16.815   2.447  47.983  1.00  0.00    -0.000 C 
HETATM   14  C18 UNL     1      15.534   2.420  47.571  1.00  0.00     0.085 C 
HETATM   15  N2  UNL     1      15.004   3.614  48.103  1.00  0.00    -0.361 N 
HETATM   16  C19 UNL     1      14.921   4.073  49.439  1.00  0.00     0.208 C 
HETATM   17  N3  UNL     1      15.056   4.325  50.662  1.00  0.00    -0.237 NA
HETATM   18  C20 UNL     1      15.996   3.855  51.584  1.00  0.00     0.230 C 
HETATM   19  N4  UNL     1      16.615   2.789  51.980  1.00  0.00    -0.257 NA
HETATM   20  C21 UNL     1      16.423   1.497  51.401  1.00  0.00     0.325 C 
HETATM   21  O5  UNL     1      17.625   0.872  51.117  1.00  0.00    -0.329 OA
HETATM   22  H17 UNL     1      14.646   4.162  47.303  1.00  0.00     0.166 HD
ENDROOT
BRANCH   1  23
HETATM   23  N1  UNL     1      21.905   0.819  53.608  1.00  0.00    -0.323 N 
HETATM   24  C6  UNL     1      23.010   0.089  53.110  1.00  0.00     0.245 C 
HETATM   25  O3  UNL     1      22.678  -0.905  52.387  1.00  0.00    -0.268 OA
HETATM   26  H8  UNL     1      22.058   1.659  54.212  1.00  0.00     0.169 HD
BRANCH  24  27
HETATM   27  C5  UNL     1      24.383   0.452  53.406  1.00  0.00     0.080 C 
HETATM   28  C4  UNL     1      25.202  -0.219  54.194  1.00  0.00     0.088 C 
BRANCH  28  29
HETATM   29  C3  UNL     1      26.570   0.226  54.430  1.00  0.00     0.283 C 
HETATM   30  O2  UNL     1      26.786   1.452  54.717  1.00  0.00    -0.260 OA
BRANCH  29  31
HETATM   31  O1  UNL     1      27.625  -0.649  54.351  1.00  0.00    -0.319 OA
BRANCH  31  32
HETATM   32  C2  UNL     1      28.461  -0.769  53.220  1.00  0.00     0.174 C 
HETATM   33  C1  UNL     1      29.881  -0.388  53.671  1.00  0.00     0.034 C 
ENDBRANCH  31  32
ENDBRANCH  29  31
ENDBRANCH  28  29
ENDBRANCH  24  27
ENDBRANCH   1  23
TORSDOF 5
ENDMDL
