MODEL 1
REMARK VINA RESULT:      -8.8      0.000      0.000
REMARK  2 active torsions:
REMARK  status: ('A' for Active; 'I' for Inactive)
REMARK    1  A    between atoms: C4_5  and  N1_6 
REMARK    2  A    between atoms: N1_6  and  C5_7 
ROOT
HETATM    1  C5  UNL     1      23.901  -0.242  53.669  1.00  0.00     0.144 A 
HETATM    2  N2  UNL     1      24.317  -0.861  54.781  1.00  0.00    -0.223 NA
HETATM    3  C6  UNL     1      23.441  -1.505  55.563  1.00  0.00     0.236 A 
HETATM    4  N3  UNL     1      22.145  -1.546  55.256  1.00  0.00    -0.239 NA
HETATM    5  C7  UNL     1      21.633  -0.951  54.155  1.00  0.00     0.096 A 
HETATM    6  C8  UNL     1      22.564  -0.306  53.387  1.00  0.00     0.075 A 
HETATM    7  C9  UNL     1      22.134   0.294  52.300  1.00  0.00     0.118 A 
HETATM    8  O1  UNL     1      22.940   0.980  51.431  1.00  0.00    -0.347 OA
HETATM    9  C10 UNL     1      22.362   1.542  50.273  1.00  0.00     0.201 C 
HETATM   10  C11 UNL     1      21.029   2.194  50.561  1.00  0.00     0.198 C 
HETATM   11  O2  UNL     1      20.425   1.712  51.724  1.00  0.00    -0.352 OA
HETATM   12  C12 UNL     1      20.735   0.350  51.808  1.00  0.00     0.324 A 
HETATM   13  O3  UNL     1      19.912  -0.343  52.686  1.00  0.00    -0.324 OA
HETATM   14  C13 UNL     1      20.359  -0.972  53.825  1.00  0.00     0.171 A 
ENDROOT
BRANCH   1  15
HETATM   15  N1  UNL     1      24.897   0.413  52.899  1.00  0.00    -0.340 N 
HETATM   16  H3  UNL     1      25.007   1.100  52.130  1.00  0.00     0.167 HD
BRANCH  15  17
HETATM   17  C4  UNL     1      26.272   0.142  53.149  1.00  0.00     0.035 A 
HETATM   18  C3  UNL     1      26.814  -1.095  52.790  1.00  0.00     0.032 A 
HETATM   19  C2  UNL     1      28.141  -1.413  52.978  1.00  0.00     0.046 A 
HETATM   20  C1  UNL     1      29.010  -0.527  53.532  1.00  0.00     0.138 A 
HETATM   21  F1  UNL     1      30.319  -0.760  53.750  1.00  0.00    -0.204 F 
HETATM   22  C15 UNL     1      28.551   0.715  53.914  1.00  0.00     0.074 A 
HETATM   23  C14 UNL     1      27.222   0.999  53.711  1.00  0.00     0.056 A 
HETATM   24 CL1  UNL     1      29.548   1.977  54.647  1.00  0.00    -0.081 Cl
ENDBRANCH  15  17
ENDBRANCH   1  15
TORSDOF 2
ENDMDL
MODEL 2
REMARK VINA RESULT:      -8.5      1.504      3.052
REMARK  2 active torsions:
REMARK  status: ('A' for Active; 'I' for Inactive)
REMARK    1  A    between atoms: C4_5  and  N1_6 
REMARK    2  A    between atoms: N1_6  and  C5_7 
ROOT
HETATM    1  C5  UNL     1      24.443   0.811  52.517  1.00  0.00     0.144 A 
HETATM    2  N2  UNL     1      25.236   1.603  51.785  1.00  0.00    -0.223 NA
HETATM    3  C6  UNL     1      24.747   2.717  51.226  1.00  0.00     0.236 A 
HETATM    4  N3  UNL     1      23.471   3.064  51.384  1.00  0.00    -0.239 NA
HETATM    5  C7  UNL     1      22.594   2.328  52.104  1.00  0.00     0.096 A 
HETATM    6  C8  UNL     1      23.138   1.199  52.656  1.00  0.00     0.075 A 
HETATM    7  C9  UNL     1      22.341   0.437  53.370  1.00  0.00     0.118 A 
HETATM    8  O1  UNL     1      22.734  -0.722  53.984  1.00  0.00    -0.347 OA
HETATM    9  C10 UNL     1      21.793  -1.428  54.763  1.00  0.00     0.201 C 
HETATM   10  C11 UNL     1      20.433  -1.481  54.103  1.00  0.00     0.198 C 
HETATM   11  O2  UNL     1      20.243  -0.467  53.163  1.00  0.00    -0.352 OA
HETATM   12  C12 UNL     1      20.902   0.667  53.648  1.00  0.00     0.324 A 
HETATM   13  O3  UNL     1      20.496   1.841  53.026  1.00  0.00    -0.324 OA
HETATM   14  C13 UNL     1      21.328   2.641  52.278  1.00  0.00     0.171 A 
ENDROOT
BRANCH   1  15
HETATM   15  N1  UNL     1      25.044  -0.348  53.073  1.00  0.00    -0.340 N 
HETATM   16  H3  UNL     1      24.807  -1.291  53.432  1.00  0.00     0.167 HD
BRANCH  15  17
HETATM   17  C4  UNL     1      26.453  -0.386  53.266  1.00  0.00     0.035 A 
HETATM   18  C3  UNL     1      27.176  -1.523  52.893  1.00  0.00     0.032 A 
HETATM   19  C2  UNL     1      28.543  -1.616  53.027  1.00  0.00     0.046 A 
HETATM   20  C1  UNL     1      29.278  -0.593  53.537  1.00  0.00     0.138 A 
HETATM   21  F1  UNL     1      30.615  -0.606  53.700  1.00  0.00    -0.204 F 
HETATM   22  C15 UNL     1      28.637   0.563  53.929  1.00  0.00     0.074 A 
HETATM   23  C14 UNL     1      27.272   0.622  53.782  1.00  0.00     0.056 A 
HETATM   24 CL1  UNL     1      29.442   1.981  54.611  1.00  0.00    -0.081 Cl
ENDBRANCH  15  17
ENDBRANCH   1  15
TORSDOF 2
ENDMDL
MODEL 3
REMARK VINA RESULT:      -8.4      3.540      4.956
REMARK  2 active torsions:
REMARK  status: ('A' for Active; 'I' for Inactive)
REMARK    1  A    between atoms: C4_5  and  N1_6 
REMARK    2  A    between atoms: N1_6  and  C5_7 
ROOT
HETATM    1  C5  UNL     1      24.965   0.648  52.717  1.00  0.00     0.144 A 
HETATM    2  N2  UNL     1      26.284   0.845  52.821  1.00  0.00    -0.223 NA
HETATM    3  C6  UNL     1      26.966   0.327  53.850  1.00  0.00     0.236 A 
HETATM    4  N3  UNL     1      26.353  -0.394  54.789  1.00  0.00    -0.239 NA
HETATM    5  C7  UNL     1      25.024  -0.645  54.769  1.00  0.00     0.096 A 
HETATM    6  C8  UNL     1      24.370  -0.096  53.699  1.00  0.00     0.075 A 
HETATM    7  C9  UNL     1      23.075  -0.303  53.618  1.00  0.00     0.118 A 
HETATM    8  O1  UNL     1      22.282   0.181  52.611  1.00  0.00    -0.347 OA
HETATM    9  C10 UNL     1      20.911  -0.151  52.612  1.00  0.00     0.201 C 
HETATM   10  C11 UNL     1      20.307  -0.073  53.996  1.00  0.00     0.198 C 
HETATM   11  O2  UNL     1      21.258  -0.177  55.013  1.00  0.00    -0.352 OA
HETATM   12  C12 UNL     1      22.235  -1.074  54.566  1.00  0.00     0.324 A 
HETATM   13  O3  UNL     1      23.033  -1.566  55.591  1.00  0.00    -0.324 OA
HETATM   14  C13 UNL     1      24.389  -1.351  55.680  1.00  0.00     0.171 A 
ENDROOT
BRANCH   1  15
HETATM   15  N1  UNL     1      24.323   1.232  51.594  1.00  0.00    -0.340 N 
HETATM   16  H3  UNL     1      23.816   0.977  50.726  1.00  0.00     0.167 HD
BRANCH  15  17
HETATM   17  C4  UNL     1      24.269   2.649  51.471  1.00  0.00     0.035 A 
HETATM   18  C3  UNL     1      23.587   3.404  52.428  1.00  0.00     0.032 A 
HETATM   19  C2  UNL     1      23.518   4.779  52.385  1.00  0.00     0.046 A 
HETATM   20  C1  UNL     1      24.119   5.488  51.394  1.00  0.00     0.138 A 
HETATM   21  F1  UNL     1      24.098   6.831  51.281  1.00  0.00    -0.204 F 
HETATM   22  C15 UNL     1      24.812   4.815  50.412  1.00  0.00     0.074 A 
HETATM   23  C14 UNL     1      24.860   3.443  50.486  1.00  0.00     0.056 A 
HETATM   24 CL1  UNL     1      25.646   5.585  49.057  1.00  0.00    -0.081 Cl
ENDBRANCH  15  17
ENDBRANCH   1  15
TORSDOF 2
ENDMDL
MODEL 4
REMARK VINA RESULT:      -8.3      4.146      6.128
REMARK  2 active torsions:
REMARK  status: ('A' for Active; 'I' for Inactive)
REMARK    1  A    between atoms: C4_5  and  N1_6 
REMARK    2  A    between atoms: N1_6  and  C5_7 
ROOT
HETATM    1  C5  UNL     1      24.127   0.855  52.337  1.00  0.00     0.144 A 
HETATM    2  N2  UNL     1      22.876   0.522  51.995  1.00  0.00    -0.223 NA
HETATM    3  C6  UNL     1      22.180  -0.344  52.743  1.00  0.00     0.236 A 
HETATM    4  N3  UNL     1      22.709  -0.890  53.837  1.00  0.00    -0.239 NA
HETATM    5  C7  UNL     1      23.963  -0.615  54.260  1.00  0.00     0.096 A 
HETATM    6  C8  UNL     1      24.636   0.274  53.466  1.00  0.00     0.075 A 
HETATM    7  C9  UNL     1      25.862   0.587  53.821  1.00  0.00     0.118 A 
HETATM    8  O1  UNL     1      26.663   1.458  53.130  1.00  0.00    -0.347 OA
HETATM    9  C10 UNL     1      27.946   1.746  53.642  1.00  0.00     0.201 C 
HETATM   10  C11 UNL     1      28.643   0.509  54.161  1.00  0.00     0.198 C 
HETATM   11  O2  UNL     1      27.759  -0.522  54.482  1.00  0.00    -0.352 OA
HETATM   12  C12 UNL     1      26.605   0.078  55.000  1.00  0.00     0.324 A 
HETATM   13  O3  UNL     1      25.799  -0.808  55.703  1.00  0.00    -0.324 OA
HETATM   14  C13 UNL     1      24.515  -1.137  55.335  1.00  0.00     0.171 A 
ENDROOT
BRANCH   1  15
HETATM   15  N1  UNL     1      24.790   1.781  51.490  1.00  0.00    -0.340 N 
HETATM   16  H3  UNL     1      25.616   1.864  50.869  1.00  0.00     0.167 HD
BRANCH  15  17
HETATM   17  C4  UNL     1      24.259   3.091  51.327  1.00  0.00     0.035 A 
HETATM   18  C3  UNL     1      23.854   3.822  52.446  1.00  0.00     0.032 A 
HETATM   19  C2  UNL     1      23.357   5.104  52.363  1.00  0.00     0.046 A 
HETATM   20  C1  UNL     1      23.233   5.739  51.168  1.00  0.00     0.138 A 
HETATM   21  F1  UNL     1      22.757   6.989  51.003  1.00  0.00    -0.204 F 
HETATM   22  C15 UNL     1      23.611   5.084  50.017  1.00  0.00     0.074 A 
HETATM   23  C14 UNL     1      24.102   3.806  50.137  1.00  0.00     0.056 A 
HETATM   24 CL1  UNL     1      23.512   5.766  48.389  1.00  0.00    -0.081 Cl
ENDBRANCH  15  17
ENDBRANCH   1  15
TORSDOF 2
ENDMDL
MODEL 5
REMARK VINA RESULT:      -8.2      2.689      3.818
REMARK  2 active torsions:
REMARK  status: ('A' for Active; 'I' for Inactive)
REMARK    1  A    between atoms: C4_5  and  N1_6 
REMARK    2  A    between atoms: N1_6  and  C5_7 
ROOT
HETATM    1  C5  UNL     1      24.702   1.809  52.481  1.00  0.00     0.144 A 
HETATM    2  N2  UNL     1      24.076   0.972  53.317  1.00  0.00    -0.223 NA
HETATM    3  C6  UNL     1      22.884   0.457  52.989  1.00  0.00     0.236 A 
HETATM    4  N3  UNL     1      22.297   0.760  51.833  1.00  0.00    -0.239 NA
HETATM    5  C7  UNL     1      22.852   1.595  50.925  1.00  0.00     0.096 A 
HETATM    6  C8  UNL     1      24.069   2.097  51.303  1.00  0.00     0.075 A 
HETATM    7  C9  UNL     1      24.665   2.916  50.466  1.00  0.00     0.118 A 
HETATM    8  O1  UNL     1      25.882   3.501  50.700  1.00  0.00    -0.347 OA
HETATM    9  C10 UNL     1      26.438   4.326  49.700  1.00  0.00     0.201 C 
HETATM   10  C11 UNL     1      25.404   5.230  49.067  1.00  0.00     0.198 C 
HETATM   11  O2  UNL     1      24.100   4.757  49.220  1.00  0.00    -0.352 OA
HETATM   12  C12 UNL     1      24.161   3.362  49.144  1.00  0.00     0.324 A 
HETATM   13  O3  UNL     1      22.926   2.774  48.902  1.00  0.00    -0.324 OA
HETATM   14  C13 UNL     1      22.299   1.916  49.775  1.00  0.00     0.171 A 
ENDROOT
BRANCH   1  15
HETATM   15  N1  UNL     1      25.961   2.306  52.907  1.00  0.00    -0.340 N 
HETATM   16  H3  UNL     1      26.444   3.191  53.151  1.00  0.00     0.167 HD
BRANCH  15  17
HETATM   17  C4  UNL     1      27.039   1.402  53.123  1.00  0.00     0.035 A 
HETATM   18  C3  UNL     1      28.244   1.870  53.652  1.00  0.00     0.032 A 
HETATM   19  C2  UNL     1      29.317   1.045  53.911  1.00  0.00     0.046 A 
HETATM   20  C1  UNL     1      29.262  -0.289  53.662  1.00  0.00     0.138 A 
HETATM   21  F1  UNL     1      30.265  -1.161  53.887  1.00  0.00    -0.204 F 
HETATM   22  C15 UNL     1      28.107  -0.827  53.138  1.00  0.00     0.074 A 
HETATM   23  C14 UNL     1      27.056   0.024  52.892  1.00  0.00     0.056 A 
HETATM   24 CL1  UNL     1      27.872  -2.537  52.757  1.00  0.00    -0.081 Cl
ENDBRANCH  15  17
ENDBRANCH   1  15
TORSDOF 2
ENDMDL
MODEL 6
REMARK VINA RESULT:      -8.1      2.154      3.872
REMARK  2 active torsions:
REMARK  status: ('A' for Active; 'I' for Inactive)
REMARK    1  A    between atoms: C4_5  and  N1_6 
REMARK    2  A    between atoms: N1_6  and  C5_7 
ROOT
HETATM    1  C5  UNL     1      25.420   2.167  51.720  1.00  0.00     0.144 A 
HETATM    2  N2  UNL     1      26.460   2.701  51.071  1.00  0.00    -0.223 NA
HETATM    3  C6  UNL     1      26.278   3.322  49.898  1.00  0.00     0.236 A 
HETATM    4  N3  UNL     1      25.066   3.423  49.354  1.00  0.00    -0.239 NA
HETATM    5  C7  UNL     1      23.956   2.914  49.935  1.00  0.00     0.096 A 
HETATM    6  C8  UNL     1      24.191   2.290  51.131  1.00  0.00     0.075 A 
HETATM    7  C9  UNL     1      23.155   1.773  51.751  1.00  0.00     0.118 A 
HETATM    8  O1  UNL     1      23.227   1.117  52.952  1.00  0.00    -0.347 OA
HETATM    9  C10 UNL     1      22.033   0.648  53.539  1.00  0.00     0.201 C 
HETATM   10  C11 UNL     1      21.107   0.021  52.521  1.00  0.00     0.198 C 
HETATM   11  O2  UNL     1      21.360   0.448  51.217  1.00  0.00    -0.352 OA
HETATM   12  C12 UNL     1      21.743   1.791  51.295  1.00  0.00     0.324 A 
HETATM   13  O3  UNL     1      21.663   2.453  50.077  1.00  0.00    -0.324 OA
HETATM   14  C13 UNL     1      22.746   2.996  49.425  1.00  0.00     0.171 A 
ENDROOT
BRANCH   1  15
HETATM   15  N1  UNL     1      25.704   1.531  52.957  1.00  0.00    -0.340 N 
HETATM   16  H3  UNL     1      25.491   1.595  53.970  1.00  0.00     0.167 HD
BRANCH  15  17
HETATM   17  C4  UNL     1      26.559   0.393  52.983  1.00  0.00     0.035 A 
HETATM   18  C3  UNL     1      26.061  -0.860  52.619  1.00  0.00     0.032 A 
HETATM   19  C2  UNL     1      26.840  -1.996  52.596  1.00  0.00     0.046 A 
HETATM   20  C1  UNL     1      28.156  -1.960  52.932  1.00  0.00     0.138 A 
HETATM   21  F1  UNL     1      28.983  -3.024  52.936  1.00  0.00    -0.204 F 
HETATM   22  C15 UNL     1      28.721  -0.760  53.304  1.00  0.00     0.074 A 
HETATM   23  C14 UNL     1      27.916   0.353  53.316  1.00  0.00     0.056 A 
HETATM   24 CL1  UNL     1      30.412  -0.543  53.770  1.00  0.00    -0.081 Cl
ENDBRANCH  15  17
ENDBRANCH   1  15
TORSDOF 2
ENDMDL
MODEL 7
REMARK VINA RESULT:      -8.0      3.598      5.853
REMARK  2 active torsions:
REMARK  status: ('A' for Active; 'I' for Inactive)
REMARK    1  A    between atoms: C4_5  and  N1_6 
REMARK    2  A    between atoms: N1_6  and  C5_7 
ROOT
HETATM    1  C5  UNL     1      22.271  -0.008  52.746  1.00  0.00     0.144 A 
HETATM    2  N2  UNL     1      20.978  -0.268  52.977  1.00  0.00    -0.223 NA
HETATM    3  C6  UNL     1      20.608  -0.914  54.090  1.00  0.00     0.236 A 
HETATM    4  N3  UNL     1      21.509  -1.310  54.988  1.00  0.00    -0.239 NA
HETATM    5  C7  UNL     1      22.836  -1.093  54.841  1.00  0.00     0.096 A 
HETATM    6  C8  UNL     1      23.166  -0.430  53.690  1.00  0.00     0.075 A 
HETATM    7  C9  UNL     1      24.441  -0.185  53.484  1.00  0.00     0.118 A 
HETATM    8  O1  UNL     1      24.929   0.467  52.382  1.00  0.00    -0.347 OA
HETATM    9  C10 UNL     1      26.317   0.710  52.300  1.00  0.00     0.201 C 
HETATM   10  C11 UNL     1      27.131  -0.481  52.754  1.00  0.00     0.198 C 
HETATM   11  O2  UNL     1      26.417  -1.345  53.586  1.00  0.00    -0.352 OA
HETATM   12  C12 UNL     1      25.573  -0.551  54.370  1.00  0.00     0.324 A 
HETATM   13  O3  UNL     1      25.084  -1.214  55.488  1.00  0.00    -0.324 OA
HETATM   14  C13 UNL     1      23.751  -1.472  55.707  1.00  0.00     0.171 A 
ENDROOT
BRANCH   1  15
HETATM   15  N1  UNL     1      22.572   0.683  51.543  1.00  0.00    -0.340 N 
HETATM   16  H3  UNL     1      23.020   0.544  50.618  1.00  0.00     0.167 HD
BRANCH  15  17
HETATM   17  C4  UNL     1      22.190   2.047  51.400  1.00  0.00     0.035 A 
HETATM   18  C3  UNL     1      20.887   2.367  51.010  1.00  0.00     0.032 A 
HETATM   19  C2  UNL     1      20.444   3.664  50.878  1.00  0.00     0.046 A 
HETATM   20  C1  UNL     1      21.262   4.721  51.123  1.00  0.00     0.138 A 
HETATM   21  F1  UNL     1      20.905   6.016  51.017  1.00  0.00    -0.204 F 
HETATM   22  C15 UNL     1      22.563   4.487  51.511  1.00  0.00     0.074 A 
HETATM   23  C14 UNL     1      22.972   3.181  51.633  1.00  0.00     0.056 A 
HETATM   24 CL1  UNL     1      23.751   5.747  51.866  1.00  0.00    -0.081 Cl
ENDBRANCH  15  17
ENDBRANCH   1  15
TORSDOF 2
ENDMDL
MODEL 8
REMARK VINA RESULT:      -7.9      2.028      2.499
REMARK  2 active torsions:
REMARK  status: ('A' for Active; 'I' for Inactive)
REMARK    1  A    between atoms: C4_5  and  N1_6 
REMARK    2  A    between atoms: N1_6  and  C5_7 
ROOT
HETATM    1  C5  UNL     1      23.996   1.012  52.377  1.00  0.00     0.144 A 
HETATM    2  N2  UNL     1      23.868  -0.173  52.986  1.00  0.00    -0.223 NA
HETATM    3  C6  UNL     1      22.696  -0.530  53.528  1.00  0.00     0.236 A 
HETATM    4  N3  UNL     1      21.638   0.277  53.475  1.00  0.00    -0.239 NA
HETATM    5  C7  UNL     1      21.672   1.492  52.882  1.00  0.00     0.096 A 
HETATM    6  C8  UNL     1      22.888   1.813  52.342  1.00  0.00     0.075 A 
HETATM    7  C9  UNL     1      22.990   2.982  51.749  1.00  0.00     0.118 A 
HETATM    8  O1  UNL     1      24.138   3.447  51.163  1.00  0.00    -0.347 OA
HETATM    9  C10 UNL     1      24.106   4.701  50.516  1.00  0.00     0.201 C 
HETATM   10  C11 UNL     1      23.326   5.729  51.305  1.00  0.00     0.198 C 
HETATM   11  O2  UNL     1      22.423   5.157  52.204  1.00  0.00    -0.352 OA
HETATM   12  C12 UNL     1      21.922   4.000  51.597  1.00  0.00     0.324 A 
HETATM   13  O3  UNL     1      20.756   3.535  52.191  1.00  0.00    -0.324 OA
HETATM   14  C13 UNL     1      20.646   2.313  52.813  1.00  0.00     0.171 A 
ENDROOT
BRANCH   1  15
HETATM   15  N1  UNL     1      25.271   1.308  51.829  1.00  0.00    -0.340 N 
HETATM   16  H3  UNL     1      25.718   1.824  51.048  1.00  0.00     0.167 HD
BRANCH  15  17
HETATM   17  C4  UNL     1      26.442   0.794  52.453  1.00  0.00     0.035 A 
HETATM   18  C3  UNL     1      26.754  -0.563  52.337  1.00  0.00     0.032 A 
HETATM   19  C2  UNL     1      27.885  -1.120  52.893  1.00  0.00     0.046 A 
HETATM   20  C1  UNL     1      28.773  -0.369  53.596  1.00  0.00     0.138 A 
HETATM   21  F1  UNL     1      29.899  -0.838  54.169  1.00  0.00    -0.204 F 
HETATM   22  C15 UNL     1      28.535   0.978  53.755  1.00  0.00     0.074 A 
HETATM   23  C14 UNL     1      27.398   1.501  53.187  1.00  0.00     0.056 A 
HETATM   24 CL1  UNL     1      29.586   2.091  54.639  1.00  0.00    -0.081 Cl
ENDBRANCH  15  17
ENDBRANCH   1  15
TORSDOF 2
ENDMDL
MODEL 9
REMARK VINA RESULT:      -7.6      4.208      6.880
REMARK  2 active torsions:
REMARK  status: ('A' for Active; 'I' for Inactive)
REMARK    1  A    between atoms: C4_5  and  N1_6 
REMARK    2  A    between atoms: N1_6  and  C5_7 
ROOT
HETATM    1  C5  UNL     1      24.497   1.973  51.958  1.00  0.00     0.144 A 
HETATM    2  N2  UNL     1      25.101   2.899  51.204  1.00  0.00    -0.223 NA
HETATM    3  C6  UNL     1      26.427   2.860  51.021  1.00  0.00     0.236 A 
HETATM    4  N3  UNL     1      27.172   1.908  51.580  1.00  0.00    -0.239 NA
HETATM    5  C7  UNL     1      26.652   0.932  52.358  1.00  0.00     0.096 A 
HETATM    6  C8  UNL     1      25.294   1.011  52.516  1.00  0.00     0.075 A 
HETATM    7  C9  UNL     1      24.723   0.092  53.261  1.00  0.00     0.118 A 
HETATM    8  O1  UNL     1      23.377   0.036  53.514  1.00  0.00    -0.347 OA
HETATM    9  C10 UNL     1      22.880  -1.030  54.293  1.00  0.00     0.201 C 
HETATM   10  C11 UNL     1      23.769  -1.333  55.479  1.00  0.00     0.198 C 
HETATM   11  O2  UNL     1      25.077  -0.877  55.310  1.00  0.00    -0.352 OA
HETATM   12  C12 UNL     1      25.392  -1.035  53.956  1.00  0.00     0.324 A 
HETATM   13  O3  UNL     1      26.757  -0.983  53.704  1.00  0.00    -0.324 OA
HETATM   14  C13 UNL     1      27.359  -0.022  52.925  1.00  0.00     0.171 A 
ENDROOT
BRANCH   1  15
HETATM   15  N1  UNL     1      23.089   2.088  52.096  1.00  0.00    -0.340 N 
HETATM   16  H3  UNL     1      22.344   2.113  52.817  1.00  0.00     0.167 HD
BRANCH  15  17
HETATM   17  C4  UNL     1      22.277   2.230  50.936  1.00  0.00     0.035 A 
HETATM   18  C3  UNL     1      21.971   1.108  50.161  1.00  0.00     0.032 A 
HETATM   19  C2  UNL     1      21.170   1.169  49.042  1.00  0.00     0.046 A 
HETATM   20  C1  UNL     1      20.624   2.342  48.624  1.00  0.00     0.138 A 
HETATM   21  F1  UNL     1      19.832   2.484  47.543  1.00  0.00    -0.204 F 
HETATM   22  C15 UNL     1      20.880   3.493  49.336  1.00  0.00     0.074 A 
HETATM   23  C14 UNL     1      21.684   3.396  50.447  1.00  0.00     0.056 A 
HETATM   24 CL1  UNL     1      20.251   5.093  48.927  1.00  0.00    -0.081 Cl
ENDBRANCH  15  17
ENDBRANCH   1  15
TORSDOF 2
ENDMDL
