MODEL 1
REMARK VINA RESULT:      -8.5      0.000      0.000
REMARK  4 active torsions:
REMARK  status: ('A' for Active; 'I' for Inactive)
REMARK    1  A    between atoms: C2_2  and  C3_3 
REMARK    2  A    between atoms: C8_8  and  O1_9 
REMARK    3  A    between atoms: O1_9  and  C9_10 
REMARK    4  A    between atoms: C11_12  and  C12_13 
ROOT
HETATM    1  C9  UNL     1      25.502   2.533  51.018  1.00  0.00     0.171 C 
HETATM    2  C10 UNL     1      26.155   3.134  50.025  1.00  0.00     0.071 C 
HETATM    3  C11 UNL     1      25.604   4.384  49.504  1.00  0.00    -0.008 C 
HETATM    4  C18 UNL     1      24.295   4.466  49.688  1.00  0.00     0.020 C 
HETATM    5  C19 UNL     1      23.877   4.174  50.883  1.00  0.00     0.101 C 
HETATM    6  N1  UNL     1      24.308   3.136  51.516  1.00  0.00    -0.221 NA
ENDROOT
BRANCH   1   7
HETATM    7  O1  UNL     1      25.848   1.365  51.641  1.00  0.00    -0.291 OA
BRANCH   7   8
HETATM    8  C8  UNL     1      26.966   1.313  52.462  1.00  0.00     0.084 A 
HETATM    9  C3  UNL     1      27.376   0.018  52.801  1.00  0.00    -0.025 A 
HETATM   10  C4  UNL     1      28.490  -0.185  53.622  1.00  0.00     0.010 A 
HETATM   11  C5  UNL     1      29.221   0.868  54.126  1.00  0.00     0.001 A 
HETATM   12  C6  UNL     1      28.798   2.133  53.781  1.00  0.00     0.003 A 
HETATM   13  C7  UNL     1      27.707   2.358  52.975  1.00  0.00     0.038 A 
BRANCH   9  14
HETATM   14  C2  UNL     1      26.639  -1.190  52.294  1.00  0.00     0.037 C 
HETATM   15  C1  UNL     1      27.472  -2.390  52.653  1.00  0.00     0.010 C 
ENDBRANCH   9  14
ENDBRANCH   7   8
ENDBRANCH   1   7
BRANCH   3  16
HETATM   16  C12 UNL     1      26.558   5.312  48.883  1.00  0.00    -0.025 A 
HETATM   17  C13 UNL     1      27.813   4.713  48.715  1.00  0.00     0.012 A 
HETATM   18  C14 UNL     1      28.876   5.400  48.146  1.00  0.00     0.001 A 
HETATM   19  C15 UNL     1      28.675   6.713  47.739  1.00  0.00     0.000 A 
HETATM   20  C16 UNL     1      27.434   7.275  47.916  1.00  0.00     0.001 A 
HETATM   21  C17 UNL     1      26.375   6.599  48.479  1.00  0.00     0.012 A 
ENDBRANCH   3  16
TORSDOF 4
ENDMDL
MODEL 2
REMARK VINA RESULT:      -8.4      1.326      2.854
REMARK  4 active torsions:
REMARK  status: ('A' for Active; 'I' for Inactive)
REMARK    1  A    between atoms: C2_2  and  C3_3 
REMARK    2  A    between atoms: C8_8  and  O1_9 
REMARK    3  A    between atoms: O1_9  and  C9_10 
REMARK    4  A    between atoms: C11_12  and  C12_13 
ROOT
HETATM    1  C9  UNL     1      25.392   1.405  52.931  1.00  0.00     0.171 C 
HETATM    2  C10 UNL     1      25.870   2.047  51.866  1.00  0.00     0.071 C 
HETATM    3  C11 UNL     1      24.910   2.679  50.963  1.00  0.00    -0.008 C 
HETATM    4  C18 UNL     1      23.725   2.089  51.004  1.00  0.00     0.020 C 
HETATM    5  C19 UNL     1      23.249   1.867  52.191  1.00  0.00     0.101 C 
HETATM    6  N1  UNL     1      23.979   1.369  53.130  1.00  0.00    -0.221 NA
ENDROOT
BRANCH   1   7
HETATM    7  O1  UNL     1      26.115   0.752  53.890  1.00  0.00    -0.291 OA
BRANCH   7   8
HETATM    8  C8  UNL     1      26.957  -0.296  53.542  1.00  0.00     0.084 A 
HETATM    9  C3  UNL     1      28.282  -0.139  53.963  1.00  0.00    -0.025 A 
HETATM   10  C4  UNL     1      29.240  -1.119  53.682  1.00  0.00     0.010 A 
HETATM   11  C5  UNL     1      28.923  -2.265  52.986  1.00  0.00     0.001 A 
HETATM   12  C6  UNL     1      27.612  -2.397  52.580  1.00  0.00     0.003 A 
HETATM   13  C7  UNL     1      26.653  -1.448  52.845  1.00  0.00     0.038 A 
BRANCH   9  14
HETATM   14  C2  UNL     1      28.717   1.077  54.730  1.00  0.00     0.037 C 
HETATM   15  C1  UNL     1      29.010   2.150  53.716  1.00  0.00     0.010 C 
ENDBRANCH   9  14
ENDBRANCH   7   8
ENDBRANCH   1   7
BRANCH   3  16
HETATM   16  C12 UNL     1      25.399   3.824  50.184  1.00  0.00    -0.025 A 
HETATM   17  C13 UNL     1      26.667   3.569  49.645  1.00  0.00     0.012 A 
HETATM   18  C14 UNL     1      27.331   4.508  48.870  1.00  0.00     0.001 A 
HETATM   19  C15 UNL     1      26.711   5.729  48.632  1.00  0.00     0.000 A 
HETATM   20  C16 UNL     1      25.468   5.953  49.173  1.00  0.00     0.001 A 
HETATM   21  C17 UNL     1      24.803   5.024  49.942  1.00  0.00     0.012 A 
ENDBRANCH   3  16
TORSDOF 4
ENDMDL
MODEL 3
REMARK VINA RESULT:      -8.3      1.215      6.746
REMARK  4 active torsions:
REMARK  status: ('A' for Active; 'I' for Inactive)
REMARK    1  A    between atoms: C2_2  and  C3_3 
REMARK    2  A    between atoms: C8_8  and  O1_9 
REMARK    3  A    between atoms: O1_9  and  C9_10 
REMARK    4  A    between atoms: C11_12  and  C12_13 
ROOT
HETATM    1  C9  UNL     1      25.544   2.583  51.208  1.00  0.00     0.171 C 
HETATM    2  C10 UNL     1      26.607   1.816  51.444  1.00  0.00     0.071 C 
HETATM    3  C11 UNL     1      26.798   1.317  52.804  1.00  0.00    -0.008 C 
HETATM    4  C18 UNL     1      26.236   2.104  53.708  1.00  0.00     0.020 C 
HETATM    5  C19 UNL     1      25.014   2.464  53.456  1.00  0.00     0.101 C 
HETATM    6  N1  UNL     1      24.656   2.874  52.287  1.00  0.00    -0.221 NA
ENDROOT
BRANCH   1   7
HETATM    7  O1  UNL     1      25.186   3.147  50.014  1.00  0.00    -0.291 OA
BRANCH   7   8
HETATM    8  C8  UNL     1      25.940   4.181  49.474  1.00  0.00     0.084 A 
HETATM    9  C3  UNL     1      25.266   5.405  49.389  1.00  0.00    -0.025 A 
HETATM   10  C4  UNL     1      25.904   6.535  48.866  1.00  0.00     0.010 A 
HETATM   11  C5  UNL     1      27.206   6.490  48.417  1.00  0.00     0.001 A 
HETATM   12  C6  UNL     1      27.848   5.274  48.509  1.00  0.00     0.003 A 
HETATM   13  C7  UNL     1      27.242   4.150  49.020  1.00  0.00     0.038 A 
BRANCH   9  14
HETATM   14  C2  UNL     1      23.846   5.547  49.858  1.00  0.00     0.037 C 
HETATM   15  C1  UNL     1      23.889   6.302  51.158  1.00  0.00     0.010 C 
ENDBRANCH   9  14
ENDBRANCH   7   8
ENDBRANCH   1   7
BRANCH   3  16
HETATM   16  C12 UNL     1      27.558   0.067  52.942  1.00  0.00    -0.025 A 
HETATM   17  C13 UNL     1      26.808  -1.034  52.509  1.00  0.00     0.012 A 
HETATM   18  C14 UNL     1      27.320  -2.323  52.545  1.00  0.00     0.001 A 
HETATM   19  C15 UNL     1      28.609  -2.511  53.027  1.00  0.00     0.000 A 
HETATM   20  C16 UNL     1      29.322  -1.414  53.445  1.00  0.00     0.001 A 
HETATM   21  C17 UNL     1      28.820  -0.131  53.411  1.00  0.00     0.012 A 
ENDBRANCH   3  16
TORSDOF 4
ENDMDL
MODEL 4
REMARK VINA RESULT:      -8.2      1.226      6.771
REMARK  4 active torsions:
REMARK  status: ('A' for Active; 'I' for Inactive)
REMARK    1  A    between atoms: C2_2  and  C3_3 
REMARK    2  A    between atoms: C8_8  and  O1_9 
REMARK    3  A    between atoms: O1_9  and  C9_10 
REMARK    4  A    between atoms: C11_12  and  C12_13 
ROOT
HETATM    1  C9  UNL     1      25.483   2.597  51.080  1.00  0.00     0.171 C 
HETATM    2  C10 UNL     1      26.481   1.744  51.303  1.00  0.00     0.071 C 
HETATM    3  C11 UNL     1      26.653   1.235  52.662  1.00  0.00    -0.008 C 
HETATM    4  C18 UNL     1      26.174   2.070  53.571  1.00  0.00     0.020 C 
HETATM    5  C19 UNL     1      24.983   2.531  53.338  1.00  0.00     0.101 C 
HETATM    6  N1  UNL     1      24.642   2.966  52.173  1.00  0.00    -0.221 NA
ENDROOT
BRANCH   1   7
HETATM    7  O1  UNL     1      25.155   3.185  49.890  1.00  0.00    -0.291 OA
BRANCH   7   8
HETATM    8  C8  UNL     1      25.950   4.195  49.364  1.00  0.00     0.084 A 
HETATM    9  C3  UNL     1      25.274   5.396  49.119  1.00  0.00    -0.025 A 
HETATM   10  C4  UNL     1      25.952   6.500  48.590  1.00  0.00     0.010 A 
HETATM   11  C5  UNL     1      27.295   6.451  48.292  1.00  0.00     0.001 A 
HETATM   12  C6  UNL     1      27.939   5.259  48.541  1.00  0.00     0.003 A 
HETATM   13  C7  UNL     1      27.295   4.161  49.061  1.00  0.00     0.038 A 
BRANCH   9  14
HETATM   14  C2  UNL     1      23.808   5.540  49.416  1.00  0.00     0.037 C 
HETATM   15  C1  UNL     1      23.084   5.417  48.103  1.00  0.00     0.010 C 
ENDBRANCH   9  14
ENDBRANCH   7   8
ENDBRANCH   1   7
BRANCH   3  16
HETATM   16  C12 UNL     1      27.306  -0.074  52.794  1.00  0.00    -0.025 A 
HETATM   17  C13 UNL     1      28.606   0.054  53.300  1.00  0.00     0.012 A 
HETATM   18  C14 UNL     1      29.417  -1.051  53.510  1.00  0.00     0.001 A 
HETATM   19  C15 UNL     1      28.915  -2.310  53.206  1.00  0.00     0.000 A 
HETATM   20  C16 UNL     1      27.637  -2.407  52.711  1.00  0.00     0.001 A 
HETATM   21  C17 UNL     1      26.826  -1.314  52.501  1.00  0.00     0.012 A 
ENDBRANCH   3  16
TORSDOF 4
ENDMDL
MODEL 5
REMARK VINA RESULT:      -8.2      2.440      7.328
REMARK  4 active torsions:
REMARK  status: ('A' for Active; 'I' for Inactive)
REMARK    1  A    between atoms: C2_2  and  C3_3 
REMARK    2  A    between atoms: C8_8  and  O1_9 
REMARK    3  A    between atoms: O1_9  and  C9_10 
REMARK    4  A    between atoms: C11_12  and  C12_13 
ROOT
HETATM    1  C9  UNL     1      26.899   1.951  51.743  1.00  0.00     0.171 C 
HETATM    2  C10 UNL     1      25.965   1.048  52.034  1.00  0.00     0.071 C 
HETATM    3  C11 UNL     1      26.110   0.292  53.276  1.00  0.00    -0.008 C 
HETATM    4  C18 UNL     1      27.375   0.201  53.659  1.00  0.00     0.020 C 
HETATM    5  C19 UNL     1      28.046   1.313  53.648  1.00  0.00     0.101 C 
HETATM    6  N1  UNL     1      27.984   2.130  52.653  1.00  0.00    -0.221 NA
ENDROOT
BRANCH   1   7
HETATM    7  O1  UNL     1      26.948   2.757  50.639  1.00  0.00    -0.291 OA
BRANCH   7   8
HETATM    8  C8  UNL     1      25.899   3.621  50.354  1.00  0.00     0.084 A 
HETATM    9  C3  UNL     1      26.188   4.579  49.375  1.00  0.00    -0.025 A 
HETATM   10  C4  UNL     1      25.222   5.515  48.987  1.00  0.00     0.010 A 
HETATM   11  C5  UNL     1      23.964   5.532  49.546  1.00  0.00     0.001 A 
HETATM   12  C6  UNL     1      23.703   4.580  50.508  1.00  0.00     0.003 A 
HETATM   13  C7  UNL     1      24.635   3.650  50.905  1.00  0.00     0.038 A 
BRANCH   9  14
HETATM   14  C2  UNL     1      27.534   4.633  48.711  1.00  0.00     0.037 C 
HETATM   15  C1  UNL     1      27.806   6.078  48.394  1.00  0.00     0.010 C 
ENDBRANCH   9  14
ENDBRANCH   7   8
ENDBRANCH   1   7
BRANCH   3  16
HETATM   16  C12 UNL     1      24.874  -0.227  53.877  1.00  0.00    -0.025 A 
HETATM   17  C13 UNL     1      23.752   0.132  53.120  1.00  0.00     0.012 A 
HETATM   18  C14 UNL     1      22.470  -0.246  53.493  1.00  0.00     0.001 A 
HETATM   19  C15 UNL     1      22.313  -1.000  54.650  1.00  0.00     0.000 A 
HETATM   20  C16 UNL     1      23.431  -1.338  55.373  1.00  0.00     0.001 A 
HETATM   21  C17 UNL     1      24.705  -0.966  55.007  1.00  0.00     0.012 A 
ENDBRANCH   3  16
TORSDOF 4
ENDMDL
MODEL 6
REMARK VINA RESULT:      -8.0      2.445      6.858
REMARK  4 active torsions:
REMARK  status: ('A' for Active; 'I' for Inactive)
REMARK    1  A    between atoms: C2_2  and  C3_3 
REMARK    2  A    between atoms: C8_8  and  O1_9 
REMARK    3  A    between atoms: O1_9  and  C9_10 
REMARK    4  A    between atoms: C11_12  and  C12_13 
ROOT
HETATM    1  C9  UNL     1      23.859   1.272  52.625  1.00  0.00     0.171 C 
HETATM    2  C10 UNL     1      25.137   1.254  52.996  1.00  0.00     0.071 C 
HETATM    3  C11 UNL     1      25.626   0.071  53.703  1.00  0.00    -0.008 C 
HETATM    4  C18 UNL     1      24.656  -0.559  54.349  1.00  0.00     0.020 C 
HETATM    5  C19 UNL     1      23.574  -0.775  53.664  1.00  0.00     0.101 C 
HETATM    6  N1  UNL     1      23.040   0.144  52.935  1.00  0.00    -0.221 NA
ENDROOT
BRANCH   1   7
HETATM    7  O1  UNL     1      23.210   2.276  51.960  1.00  0.00    -0.291 OA
BRANCH   7   8
HETATM    8  C8  UNL     1      22.833   2.109  50.634  1.00  0.00     0.084 A 
HETATM    9  C3  UNL     1      23.525   2.921  49.728  1.00  0.00    -0.025 A 
HETATM   10  C4  UNL     1      23.248   2.857  48.358  1.00  0.00     0.010 A 
HETATM   11  C5  UNL     1      22.294   2.004  47.850  1.00  0.00     0.001 A 
HETATM   12  C6  UNL     1      21.625   1.215  48.760  1.00  0.00     0.003 A 
HETATM   13  C7  UNL     1      21.880   1.259  50.111  1.00  0.00     0.038 A 
BRANCH   9  14
HETATM   14  C2  UNL     1      24.583   3.880  50.193  1.00  0.00     0.037 C 
HETATM   15  C1  UNL     1      25.908   3.307  49.768  1.00  0.00     0.010 C 
ENDBRANCH   9  14
ENDBRANCH   7   8
ENDBRANCH   1   7
BRANCH   3  16
HETATM   16  C12 UNL     1      27.062  -0.215  53.586  1.00  0.00    -0.025 A 
HETATM   17  C13 UNL     1      27.833   0.880  53.994  1.00  0.00     0.012 A 
HETATM   18  C14 UNL     1      29.220   0.843  53.971  1.00  0.00     0.001 A 
HETATM   19  C15 UNL     1      29.844  -0.318  53.529  1.00  0.00     0.000 A 
HETATM   20  C16 UNL     1      29.063  -1.377  53.136  1.00  0.00     0.001 A 
HETATM   21  C17 UNL     1      27.686  -1.346  53.157  1.00  0.00     0.012 A 
ENDBRANCH   3  16
TORSDOF 4
ENDMDL
MODEL 7
REMARK VINA RESULT:      -7.9      1.774      2.209
REMARK  4 active torsions:
REMARK  status: ('A' for Active; 'I' for Inactive)
REMARK    1  A    between atoms: C2_2  and  C3_3 
REMARK    2  A    between atoms: C8_8  and  O1_9 
REMARK    3  A    between atoms: O1_9  and  C9_10 
REMARK    4  A    between atoms: C11_12  and  C12_13 
ROOT
HETATM    1  C9  UNL     1      24.291   3.009  50.879  1.00  0.00     0.171 C 
HETATM    2  C10 UNL     1      24.972   3.559  49.876  1.00  0.00     0.071 C 
HETATM    3  C11 UNL     1      25.001   5.018  49.789  1.00  0.00    -0.008 C 
HETATM    4  C18 UNL     1      23.941   5.572  50.357  1.00  0.00     0.020 C 
HETATM    5  C19 UNL     1      23.644   5.129  51.542  1.00  0.00     0.101 C 
HETATM    6  N1  UNL     1      23.631   3.868  51.809  1.00  0.00    -0.221 NA
ENDROOT
BRANCH   1   7
HETATM    7  O1  UNL     1      24.141   1.675  51.137  1.00  0.00    -0.291 OA
BRANCH   7   8
HETATM    8  C8  UNL     1      25.043   1.013  51.960  1.00  0.00     0.084 A 
HETATM    9  C3  UNL     1      24.464   0.390  53.072  1.00  0.00    -0.025 A 
HETATM   10  C4  UNL     1      25.254  -0.314  53.986  1.00  0.00     0.010 A 
HETATM   11  C5  UNL     1      26.619  -0.422  53.833  1.00  0.00     0.001 A 
HETATM   12  C6  UNL     1      27.166   0.200  52.732  1.00  0.00     0.003 A 
HETATM   13  C7  UNL     1      26.410   0.898  51.820  1.00  0.00     0.038 A 
BRANCH   9  14
HETATM   14  C2  UNL     1      22.982   0.454  53.317  1.00  0.00     0.037 C 
HETATM   15  C1  UNL     1      22.435  -0.919  53.036  1.00  0.00     0.010 C 
ENDBRANCH   9  14
ENDBRANCH   7   8
ENDBRANCH   1   7
BRANCH   3  16
HETATM   16  C12 UNL     1      26.160   5.611  49.109  1.00  0.00    -0.025 A 
HETATM   17  C13 UNL     1      27.216   4.696  49.012  1.00  0.00     0.012 A 
HETATM   18  C14 UNL     1      28.418   5.033  48.407  1.00  0.00     0.001 A 
HETATM   19  C15 UNL     1      28.563   6.314  47.889  1.00  0.00     0.000 A 
HETATM   20  C16 UNL     1      27.511   7.191  47.997  1.00  0.00     0.001 A 
HETATM   21  C17 UNL     1      26.315   6.862  48.596  1.00  0.00     0.012 A 
ENDBRANCH   3  16
TORSDOF 4
ENDMDL
MODEL 8
REMARK VINA RESULT:      -7.8      2.872      7.304
REMARK  4 active torsions:
REMARK  status: ('A' for Active; 'I' for Inactive)
REMARK    1  A    between atoms: C2_2  and  C3_3 
REMARK    2  A    between atoms: C8_8  and  O1_9 
REMARK    3  A    between atoms: O1_9  and  C9_10 
REMARK    4  A    between atoms: C11_12  and  C12_13 
ROOT
HETATM    1  C9  UNL     1      25.219   2.629  50.780  1.00  0.00     0.171 C 
HETATM    2  C10 UNL     1      24.236   1.825  51.180  1.00  0.00     0.071 C 
HETATM    3  C11 UNL     1      24.504   0.924  52.299  1.00  0.00    -0.008 C 
HETATM    4  C18 UNL     1      25.792   0.631  52.405  1.00  0.00     0.020 C 
HETATM    5  C19 UNL     1      26.603   1.643  52.349  1.00  0.00     0.101 C 
HETATM    6  N1  UNL     1      26.473   2.567  51.460  1.00  0.00    -0.221 NA
ENDROOT
BRANCH   1   7
HETATM    7  O1  UNL     1      25.173   3.539  49.760  1.00  0.00    -0.291 OA
BRANCH   7   8
HETATM    8  C8  UNL     1      25.097   4.898  50.035  1.00  0.00     0.084 A 
HETATM    9  C3  UNL     1      26.142   5.657  49.497  1.00  0.00    -0.025 A 
HETATM   10  C4  UNL     1      26.192   7.041  49.695  1.00  0.00     0.010 A 
HETATM   11  C5  UNL     1      25.227   7.706  50.419  1.00  0.00     0.001 A 
HETATM   12  C6  UNL     1      24.209   6.938  50.940  1.00  0.00     0.003 A 
HETATM   13  C7  UNL     1      24.138   5.576  50.758  1.00  0.00     0.038 A 
BRANCH   9  14
HETATM   14  C2  UNL     1      27.237   5.016  48.692  1.00  0.00     0.037 C 
HETATM   15  C1  UNL     1      28.139   6.125  48.223  1.00  0.00     0.010 C 
ENDBRANCH   9  14
ENDBRANCH   7   8
ENDBRANCH   1   7
BRANCH   3  16
HETATM   16  C12 UNL     1      23.344   0.503  53.095  1.00  0.00    -0.025 A 
HETATM   17  C13 UNL     1      23.669  -0.562  53.945  1.00  0.00     0.012 A 
HETATM   18  C14 UNL     1      22.729  -1.129  54.794  1.00  0.00     0.001 A 
HETATM   19  C15 UNL     1      21.438  -0.616  54.790  1.00  0.00     0.000 A 
HETATM   20  C16 UNL     1      21.147   0.430  53.948  1.00  0.00     0.001 A 
HETATM   21  C17 UNL     1      22.075   0.997  53.103  1.00  0.00     0.012 A 
ENDBRANCH   3  16
TORSDOF 4
ENDMDL
MODEL 9
REMARK VINA RESULT:      -7.6      2.799      6.824
REMARK  4 active torsions:
REMARK  status: ('A' for Active; 'I' for Inactive)
REMARK    1  A    between atoms: C2_2  and  C3_3 
REMARK    2  A    between atoms: C8_8  and  O1_9 
REMARK    3  A    between atoms: O1_9  and  C9_10 
REMARK    4  A    between atoms: C11_12  and  C12_13 
ROOT
HETATM    1  C9  UNL     1      22.754   1.245  52.612  1.00  0.00     0.171 C 
HETATM    2  C10 UNL     1      24.006   1.167  53.059  1.00  0.00     0.071 C 
HETATM    3  C11 UNL     1      24.442  -0.097  53.648  1.00  0.00    -0.008 C 
HETATM    4  C18 UNL     1      23.431  -0.787  54.153  1.00  0.00     0.020 C 
HETATM    5  C19 UNL     1      22.393  -0.907  53.381  1.00  0.00     0.101 C 
HETATM    6  N1  UNL     1      21.911   0.099  52.734  1.00  0.00    -0.221 NA
ENDROOT
BRANCH   1   7
HETATM    7  O1  UNL     1      22.154   2.329  52.033  1.00  0.00    -0.291 OA
BRANCH   7   8
HETATM    8  C8  UNL     1      22.895   3.207  51.253  1.00  0.00     0.084 A 
HETATM    9  C3  UNL     1      22.891   2.911  49.885  1.00  0.00    -0.025 A 
HETATM   10  C4  UNL     1      23.596   3.713  48.980  1.00  0.00     0.010 A 
HETATM   11  C5  UNL     1      24.315   4.813  49.394  1.00  0.00     0.001 A 
HETATM   12  C6  UNL     1      24.305   5.084  50.745  1.00  0.00     0.003 A 
HETATM   13  C7  UNL     1      23.619   4.311  51.653  1.00  0.00     0.038 A 
BRANCH   9  14
HETATM   14  C2  UNL     1      22.132   1.732  49.344  1.00  0.00     0.037 C 
HETATM   15  C1  UNL     1      22.293   1.759  47.849  1.00  0.00     0.010 C 
ENDBRANCH   9  14
ENDBRANCH   7   8
ENDBRANCH   1   7
BRANCH   3  16
HETATM   16  C12 UNL     1      25.881  -0.387  53.588  1.00  0.00    -0.025 A 
HETATM   17  C13 UNL     1      26.587   0.343  54.553  1.00  0.00     0.012 A 
HETATM   18  C14 UNL     1      27.964   0.233  54.686  1.00  0.00     0.001 A 
HETATM   19  C15 UNL     1      28.645  -0.626  53.832  1.00  0.00     0.000 A 
HETATM   20  C16 UNL     1      27.928  -1.329  52.895  1.00  0.00     0.001 A 
HETATM   21  C17 UNL     1      26.561  -1.225  52.759  1.00  0.00     0.012 A 
ENDBRANCH   3  16
TORSDOF 4
ENDMDL
