MODEL 1
REMARK VINA RESULT:      -7.4      0.000      0.000
REMARK  6 active torsions:
REMARK  status: ('A' for Active; 'I' for Inactive)
REMARK    1  A    between atoms: O1_2  and  C2_3 
REMARK    2  A    between atoms: C2_3  and  C3_4 
REMARK    3  A    between atoms: C6_7  and  N1_8 
REMARK    4  A    between atoms: N1_8  and  C8_10 
REMARK    5  A    between atoms: C17_21  and  P1_22 
REMARK    6  A    between atoms: P1_22  and  O2_23 
ROOT
HETATM    1  C3  UNL     1      22.581   0.882  51.896  1.00  0.00    -0.021 A 
HETATM    2  C4  UNL     1      23.898   0.989  52.287  1.00  0.00     0.028 A 
HETATM    3  C5  UNL     1      24.746   1.773  51.534  1.00  0.00     0.040 A 
HETATM    4  C6  UNL     1      26.037   1.842  51.970  1.00  0.00     0.143 A 
HETATM    5  N2  UNL     1      26.907   2.595  51.265  1.00  0.00    -0.223 NA
HETATM    6  C14 UNL     1      26.439   3.242  50.162  1.00  0.00     0.236 A 
HETATM    7  N3  UNL     1      25.174   3.187  49.718  1.00  0.00    -0.241 NA
HETATM    8  C15 UNL     1      24.304   2.435  50.418  1.00  0.00     0.073 A 
HETATM    9  C16 UNL     1      22.970   2.314  50.040  1.00  0.00     0.047 A 
HETATM   10  C17 UNL     1      22.082   1.529  50.778  1.00  0.00     0.003 A 
ENDROOT
BRANCH   4  11
HETATM   11  N1  UNL     1      26.612   1.206  53.106  1.00  0.00    -0.335 N 
HETATM   12  C7  UNL     1      26.530   1.838  54.418  1.00  0.00     0.158 C 
BRANCH  11  13
HETATM   13  C8  UNL     1      27.286  -0.046  53.037  1.00  0.00     0.035 A 
HETATM   14  C9  UNL     1      28.599  -0.116  53.450  1.00  0.00     0.029 A 
HETATM   15  C10 UNL     1      29.349  -1.286  53.424  1.00  0.00     0.002 A 
HETATM   16  C11 UNL     1      28.689  -2.403  52.948  1.00  0.00     0.000 A 
HETATM   17  C12 UNL     1      27.380  -2.417  52.515  1.00  0.00     0.002 A 
HETATM   18  C13 UNL     1      26.699  -1.205  52.574  1.00  0.00     0.029 A 
ENDBRANCH  11  13
ENDBRANCH   4  11
BRANCH   1  19
HETATM   19  C2  UNL     1      21.640   0.052  52.676  1.00  0.00     0.206 C 
BRANCH  19  20
HETATM   20  O1  UNL     1      22.049  -0.010  54.009  1.00  0.00    -0.391 OA
HETATM   21  C1  UNL     1      21.854  -1.280  54.543  1.00  0.00     0.201 C 
ENDBRANCH  19  20
ENDBRANCH   1  19
BRANCH  10  22
HETATM   22  P1  UNL     1      20.352   1.406  50.240  1.00  0.00     0.043 P 
HETATM   23  H17 UNL     1      19.511   2.316  50.999  1.00  0.00     0.092 HD
BRANCH  22  24
HETATM   24  O2  UNL     1      20.179   1.636  48.538  1.00  0.00    -0.371 OA
HETATM   25  H18 UNL     1      20.908   2.185  48.184  1.00  0.00     0.215 HD
ENDBRANCH  22  24
ENDBRANCH  10  22
TORSDOF 6
ENDMDL
MODEL 2
REMARK VINA RESULT:      -7.4      2.192      3.730
REMARK  6 active torsions:
REMARK  status: ('A' for Active; 'I' for Inactive)
REMARK    1  A    between atoms: O1_2  and  C2_3 
REMARK    2  A    between atoms: C2_3  and  C3_4 
REMARK    3  A    between atoms: C6_7  and  N1_8 
REMARK    4  A    between atoms: N1_8  and  C8_10 
REMARK    5  A    between atoms: C17_21  and  P1_22 
REMARK    6  A    between atoms: P1_22  and  O2_23 
ROOT
HETATM    1  C3  UNL     1      22.462   0.878  51.780  1.00  0.00    -0.021 A 
HETATM    2  C4  UNL     1      23.631   0.672  52.481  1.00  0.00     0.028 A 
HETATM    3  C5  UNL     1      23.590  -0.116  53.611  1.00  0.00     0.040 A 
HETATM    4  C6  UNL     1      24.777  -0.285  54.263  1.00  0.00     0.143 A 
HETATM    5  N2  UNL     1      24.789  -1.047  55.376  1.00  0.00    -0.223 NA
HETATM    6  C14 UNL     1      23.612  -1.601  55.779  1.00  0.00     0.236 A 
HETATM    7  N3  UNL     1      22.436  -1.447  55.153  1.00  0.00    -0.241 NA
HETATM    8  C15 UNL     1      22.420  -0.687  54.042  1.00  0.00     0.073 A 
HETATM    9  C16 UNL     1      21.251  -0.467  53.320  1.00  0.00     0.047 A 
HETATM   10  C17 UNL     1      21.254   0.325  52.170  1.00  0.00     0.003 A 
ENDROOT
BRANCH   4  11
HETATM   11  N1  UNL     1      26.049   0.250  53.916  1.00  0.00    -0.335 N 
HETATM   12  C7  UNL     1      26.237   1.694  53.827  1.00  0.00     0.158 C 
BRANCH  11  13
HETATM   13  C8  UNL     1      27.184  -0.563  53.640  1.00  0.00     0.035 A 
HETATM   14  C9  UNL     1      28.422  -0.144  54.078  1.00  0.00     0.029 A 
HETATM   15  C10 UNL     1      29.594  -0.860  53.862  1.00  0.00     0.002 A 
HETATM   16  C11 UNL     1      29.446  -2.044  53.166  1.00  0.00     0.000 A 
HETATM   17  C12 UNL     1      28.246  -2.533  52.693  1.00  0.00     0.002 A 
HETATM   18  C13 UNL     1      27.121  -1.756  52.951  1.00  0.00     0.029 A 
ENDBRANCH  11  13
ENDBRANCH   4  11
BRANCH   1  19
HETATM   19  C2  UNL     1      22.465   1.715  50.563  1.00  0.00     0.206 C 
BRANCH  19  20
HETATM   20  O1  UNL     1      23.020   2.964  50.842  1.00  0.00    -0.391 OA
HETATM   21  C1  UNL     1      22.058   3.860  51.299  1.00  0.00     0.201 C 
ENDBRANCH  19  20
ENDBRANCH   1  19
BRANCH  10  22
HETATM   22  P1  UNL     1      19.700   0.579  51.266  1.00  0.00     0.043 P 
HETATM   23  H17 UNL     1      19.918   0.493  49.832  1.00  0.00     0.092 HD
BRANCH  22  24
HETATM   24  O2  UNL     1      18.455  -0.493  51.794  1.00  0.00    -0.371 OA
HETATM   25  H18 UNL     1      18.301  -0.403  52.757  1.00  0.00     0.215 HD
ENDBRANCH  22  24
ENDBRANCH  10  22
TORSDOF 6
ENDMDL
MODEL 3
REMARK VINA RESULT:      -7.3      2.345      4.197
REMARK  6 active torsions:
REMARK  status: ('A' for Active; 'I' for Inactive)
REMARK    1  A    between atoms: O1_2  and  C2_3 
REMARK    2  A    between atoms: C2_3  and  C3_4 
REMARK    3  A    between atoms: C6_7  and  N1_8 
REMARK    4  A    between atoms: N1_8  and  C8_10 
REMARK    5  A    between atoms: C17_21  and  P1_22 
REMARK    6  A    between atoms: P1_22  and  O2_23 
ROOT
HETATM    1  C3  UNL     1      22.702   1.115  51.735  1.00  0.00    -0.021 A 
HETATM    2  C4  UNL     1      23.829   0.513  52.252  1.00  0.00     0.028 A 
HETATM    3  C5  UNL     1      23.725  -0.158  53.450  1.00  0.00     0.040 A 
HETATM    4  C6  UNL     1      24.873  -0.734  53.912  1.00  0.00     0.143 A 
HETATM    5  N2  UNL     1      24.824  -1.403  55.083  1.00  0.00    -0.223 NA
HETATM    6  C14 UNL     1      23.627  -1.461  55.731  1.00  0.00     0.236 A 
HETATM    7  N3  UNL     1      22.489  -0.902  55.294  1.00  0.00    -0.241 NA
HETATM    8  C15 UNL     1      22.535  -0.234  54.126  1.00  0.00     0.073 A 
HETATM    9  C16 UNL     1      21.408   0.381  53.588  1.00  0.00     0.047 A 
HETATM   10  C17 UNL     1      21.475   1.070  52.375  1.00  0.00     0.003 A 
ENDROOT
BRANCH   4  11
HETATM   11  N1  UNL     1      26.160  -0.728  53.305  1.00  0.00    -0.335 N 
HETATM   12  C7  UNL     1      26.545  -1.797  52.391  1.00  0.00     0.158 C 
BRANCH  11  13
HETATM   13  C8  UNL     1      27.126   0.290  53.545  1.00  0.00     0.035 A 
HETATM   14  C9  UNL     1      28.150   0.036  54.433  1.00  0.00     0.029 A 
HETATM   15  C10 UNL     1      29.143   0.958  54.741  1.00  0.00     0.002 A 
HETATM   16  C11 UNL     1      29.046   2.174  54.092  1.00  0.00     0.000 A 
HETATM   17  C12 UNL     1      28.055   2.508  53.193  1.00  0.00     0.002 A 
HETATM   18  C13 UNL     1      27.099   1.529  52.940  1.00  0.00     0.029 A 
ENDBRANCH  11  13
ENDBRANCH   4  11
BRANCH   1  19
HETATM   19  C2  UNL     1      22.772   1.844  50.452  1.00  0.00     0.206 C 
BRANCH  19  20
HETATM   20  O1  UNL     1      23.570   2.979  50.589  1.00  0.00    -0.391 OA
HETATM   21  C1  UNL     1      22.868   4.139  50.272  1.00  0.00     0.201 C 
ENDBRANCH  19  20
ENDBRANCH   1  19
BRANCH  10  22
HETATM   22  P1  UNL     1      19.974   1.852  51.718  1.00  0.00     0.043 P 
HETATM   23  H17 UNL     1      18.857   0.924  51.741  1.00  0.00     0.092 HD
BRANCH  22  24
HETATM   24  O2  UNL     1      19.601   3.330  52.527  1.00  0.00    -0.371 OA
HETATM   25  H18 UNL     1      20.091   4.080  52.130  1.00  0.00     0.215 HD
ENDBRANCH  22  24
ENDBRANCH  10  22
TORSDOF 6
ENDMDL
MODEL 4
REMARK VINA RESULT:      -7.2      3.466      6.615
REMARK  6 active torsions:
REMARK  status: ('A' for Active; 'I' for Inactive)
REMARK    1  A    between atoms: O1_2  and  C2_3 
REMARK    2  A    between atoms: C2_3  and  C3_4 
REMARK    3  A    between atoms: C6_7  and  N1_8 
REMARK    4  A    between atoms: N1_8  and  C8_10 
REMARK    5  A    between atoms: C17_21  and  P1_22 
REMARK    6  A    between atoms: P1_22  and  O2_23 
ROOT
HETATM    1  C3  UNL     1      25.696   1.091  52.313  1.00  0.00    -0.021 A 
HETATM    2  C4  UNL     1      24.371   1.441  52.167  1.00  0.00     0.028 A 
HETATM    3  C5  UNL     1      23.424   0.745  52.886  1.00  0.00     0.040 A 
HETATM    4  C6  UNL     1      22.129   1.137  52.701  1.00  0.00     0.143 A 
HETATM    5  N2  UNL     1      21.164   0.485  53.382  1.00  0.00    -0.223 NA
HETATM    6  C14 UNL     1      21.544  -0.524  54.214  1.00  0.00     0.236 A 
HETATM    7  N3  UNL     1      22.809  -0.923  54.409  1.00  0.00    -0.241 NA
HETATM    8  C15 UNL     1      23.775  -0.275  53.731  1.00  0.00     0.073 A 
HETATM    9  C16 UNL     1      25.119  -0.614  53.865  1.00  0.00     0.047 A 
HETATM   10  C17 UNL     1      26.106   0.069  53.153  1.00  0.00     0.003 A 
ENDROOT
BRANCH   4  11
HETATM   11  N1  UNL     1      21.641   2.175  51.859  1.00  0.00    -0.335 N 
HETATM   12  C7  UNL     1      20.851   3.264  52.423  1.00  0.00     0.158 C 
BRANCH  11  13
HETATM   13  C8  UNL     1      21.883   2.216  50.457  1.00  0.00     0.035 A 
HETATM   14  C9  UNL     1      22.489   3.332  49.921  1.00  0.00     0.029 A 
HETATM   15  C10 UNL     1      22.770   3.476  48.567  1.00  0.00     0.002 A 
HETATM   16  C11 UNL     1      22.398   2.412  47.768  1.00  0.00     0.000 A 
HETATM   17  C12 UNL     1      21.789   1.262  48.224  1.00  0.00     0.002 A 
HETATM   18  C13 UNL     1      21.543   1.197  49.592  1.00  0.00     0.029 A 
ENDBRANCH  11  13
ENDBRANCH   4  11
BRANCH   1  19
HETATM   19  C2  UNL     1      26.742   1.813  51.561  1.00  0.00     0.206 C 
BRANCH  19  20
HETATM   20  O1  UNL     1      26.246   3.034  51.103  1.00  0.00    -0.391 OA
HETATM   21  C1  UNL     1      26.497   3.211  49.746  1.00  0.00     0.201 C 
ENDBRANCH  19  20
ENDBRANCH   1  19
BRANCH  10  22
HETATM   22  P1  UNL     1      27.844  -0.414  53.366  1.00  0.00     0.043 P 
HETATM   23  H17 UNL     1      28.702   0.343  52.470  1.00  0.00     0.092 HD
BRANCH  22  24
HETATM   24  O2  UNL     1      28.359  -0.292  55.008  1.00  0.00    -0.371 OA
HETATM   25  H18 UNL     1      28.907   0.508  55.145  1.00  0.00     0.215 HD
ENDBRANCH  22  24
ENDBRANCH  10  22
TORSDOF 6
ENDMDL
MODEL 5
REMARK VINA RESULT:      -7.0      2.432      5.267
REMARK  6 active torsions:
REMARK  status: ('A' for Active; 'I' for Inactive)
REMARK    1  A    between atoms: O1_2  and  C2_3 
REMARK    2  A    between atoms: C2_3  and  C3_4 
REMARK    3  A    between atoms: C6_7  and  N1_8 
REMARK    4  A    between atoms: N1_8  and  C8_10 
REMARK    5  A    between atoms: C17_21  and  P1_22 
REMARK    6  A    between atoms: P1_22  and  O2_23 
ROOT
HETATM    1  C3  UNL     1      20.742   0.174  52.060  1.00  0.00    -0.021 A 
HETATM    2  C4  UNL     1      22.093   0.328  52.285  1.00  0.00     0.028 A 
HETATM    3  C5  UNL     1      22.648  -0.276  53.392  1.00  0.00     0.040 A 
HETATM    4  C6  UNL     1      23.990  -0.089  53.562  1.00  0.00     0.143 A 
HETATM    5  N2  UNL     1      24.581  -0.658  54.633  1.00  0.00    -0.223 NA
HETATM    6  C14 UNL     1      23.798  -1.385  55.479  1.00  0.00     0.236 A 
HETATM    7  N3  UNL     1      22.480  -1.580  55.329  1.00  0.00    -0.241 NA
HETATM    8  C15 UNL     1      21.887  -1.013  54.261  1.00  0.00     0.073 A 
HETATM    9  C16 UNL     1      20.524  -1.156  54.017  1.00  0.00     0.047 A 
HETATM   10  C17 UNL     1      19.926  -0.561  52.905  1.00  0.00     0.003 A 
ENDROOT
BRANCH   4  11
HETATM   11  N1  UNL     1      24.882   0.648  52.735  1.00  0.00    -0.335 N 
HETATM   12  C7  UNL     1      26.152   0.061  52.323  1.00  0.00     0.158 C 
BRANCH  11  13
HETATM   13  C8  UNL     1      24.603   1.965  52.272  1.00  0.00     0.035 A 
HETATM   14  C9  UNL     1      24.726   2.234  50.926  1.00  0.00     0.029 A 
HETATM   15  C10 UNL     1      24.479   3.484  50.369  1.00  0.00     0.002 A 
HETATM   16  C11 UNL     1      24.094   4.466  51.261  1.00  0.00     0.000 A 
HETATM   17  C12 UNL     1      23.949   4.279  52.620  1.00  0.00     0.002 A 
HETATM   18  C13 UNL     1      24.214   2.999  53.097  1.00  0.00     0.029 A 
ENDBRANCH  11  13
ENDBRANCH   4  11
BRANCH   1  19
HETATM   19  C2  UNL     1      20.109   0.804  50.883  1.00  0.00     0.206 C 
BRANCH  19  20
HETATM   20  O1  UNL     1      21.031   1.611  50.218  1.00  0.00    -0.391 OA
HETATM   21  C1  UNL     1      21.234   1.184  48.909  1.00  0.00     0.201 C 
ENDBRANCH  19  20
ENDBRANCH   1  19
BRANCH  10  22
HETATM   22  P1  UNL     1      18.145  -0.780  52.634  1.00  0.00     0.043 P 
HETATM   23  H17 UNL     1      17.901  -1.661  51.504  1.00  0.00     0.092 HD
BRANCH  22  24
HETATM   24  O2  UNL     1      17.328  -1.315  54.057  1.00  0.00    -0.371 OA
HETATM   25  H18 UNL     1      17.764  -2.107  54.433  1.00  0.00     0.215 HD
ENDBRANCH  22  24
ENDBRANCH  10  22
TORSDOF 6
ENDMDL
MODEL 6
REMARK VINA RESULT:      -7.0      2.726      5.692
REMARK  6 active torsions:
REMARK  status: ('A' for Active; 'I' for Inactive)
REMARK    1  A    between atoms: O1_2  and  C2_3 
REMARK    2  A    between atoms: C2_3  and  C3_4 
REMARK    3  A    between atoms: C6_7  and  N1_8 
REMARK    4  A    between atoms: N1_8  and  C8_10 
REMARK    5  A    between atoms: C17_21  and  P1_22 
REMARK    6  A    between atoms: P1_22  and  O2_23 
ROOT
HETATM    1  C3  UNL     1      22.020   1.113  52.954  1.00  0.00    -0.021 A 
HETATM    2  C4  UNL     1      22.665   2.025  52.145  1.00  0.00     0.028 A 
HETATM    3  C5  UNL     1      24.020   1.879  51.939  1.00  0.00     0.040 A 
HETATM    4  C6  UNL     1      24.602   2.810  51.130  1.00  0.00     0.143 A 
HETATM    5  N2  UNL     1      25.928   2.712  50.898  1.00  0.00    -0.223 NA
HETATM    6  C14 UNL     1      26.602   1.686  51.488  1.00  0.00     0.236 A 
HETATM    7  N3  UNL     1      26.047   0.761  52.287  1.00  0.00    -0.241 NA
HETATM    8  C15 UNL     1      24.725   0.857  52.520  1.00  0.00     0.073 A 
HETATM    9  C16 UNL     1      24.056  -0.054  53.333  1.00  0.00     0.047 A 
HETATM   10  C17 UNL     1      22.684   0.062  53.565  1.00  0.00     0.003 A 
ENDROOT
BRANCH   4  11
HETATM   11  N1  UNL     1      23.982   3.909  50.472  1.00  0.00    -0.335 N 
HETATM   12  C7  UNL     1      23.998   5.233  51.083  1.00  0.00     0.158 C 
BRANCH  11  13
HETATM   13  C8  UNL     1      23.324   3.790  49.215  1.00  0.00     0.035 A 
HETATM   14  C9  UNL     1      23.002   4.938  48.524  1.00  0.00     0.029 A 
HETATM   15  C10 UNL     1      22.359   4.936  47.292  1.00  0.00     0.002 A 
HETATM   16  C11 UNL     1      22.053   3.688  46.785  1.00  0.00     0.000 A 
HETATM   17  C12 UNL     1      22.339   2.493  47.412  1.00  0.00     0.002 A 
HETATM   18  C13 UNL     1      22.984   2.583  48.641  1.00  0.00     0.029 A 
ENDBRANCH  11  13
ENDBRANCH   4  11
BRANCH   1  19
HETATM   19  C2  UNL     1      20.569   1.234  53.199  1.00  0.00     0.206 C 
BRANCH  19  20
HETATM   20  O1  UNL     1      20.138   2.526  52.897  1.00  0.00    -0.391 OA
HETATM   21  C1  UNL     1      19.144   2.519  51.923  1.00  0.00     0.201 C 
ENDBRANCH  19  20
ENDBRANCH   1  19
BRANCH  10  22
HETATM   22  P1  UNL     1      21.861  -1.154  54.634  1.00  0.00     0.043 P 
HETATM   23  H17 UNL     1      21.206  -2.178  53.839  1.00  0.00     0.092 HD
BRANCH  22  24
HETATM   24  O2  UNL     1      22.937  -1.831  55.800  1.00  0.00    -0.371 OA
HETATM   25  H18 UNL     1      22.489  -1.945  56.664  1.00  0.00     0.215 HD
ENDBRANCH  22  24
ENDBRANCH  10  22
TORSDOF 6
ENDMDL
MODEL 7
REMARK VINA RESULT:      -6.9      2.055      3.593
REMARK  6 active torsions:
REMARK  status: ('A' for Active; 'I' for Inactive)
REMARK    1  A    between atoms: O1_2  and  C2_3 
REMARK    2  A    between atoms: C2_3  and  C3_4 
REMARK    3  A    between atoms: C6_7  and  N1_8 
REMARK    4  A    between atoms: N1_8  and  C8_10 
REMARK    5  A    between atoms: C17_21  and  P1_22 
REMARK    6  A    between atoms: P1_22  and  O2_23 
ROOT
HETATM    1  C3  UNL     1      23.394   2.229  50.303  1.00  0.00    -0.021 A 
HETATM    2  C4  UNL     1      24.153   1.735  51.343  1.00  0.00     0.028 A 
HETATM    3  C5  UNL     1      23.571   0.840  52.214  1.00  0.00     0.040 A 
HETATM    4  C6  UNL     1      24.371   0.385  53.222  1.00  0.00     0.143 A 
HETATM    5  N2  UNL     1      23.847  -0.493  54.103  1.00  0.00    -0.223 NA
HETATM    6  C14 UNL     1      22.550  -0.872  53.928  1.00  0.00     0.236 A 
HETATM    7  N3  UNL     1      21.749  -0.436  52.944  1.00  0.00    -0.241 NA
HETATM    8  C15 UNL     1      22.268   0.440  52.064  1.00  0.00     0.073 A 
HETATM    9  C16 UNL     1      21.519   0.951  51.008  1.00  0.00     0.047 A 
HETATM   10  C17 UNL     1      22.074   1.859  50.105  1.00  0.00     0.003 A 
ENDROOT
BRANCH   4  11
HETATM   11  N1  UNL     1      25.729   0.720  53.481  1.00  0.00    -0.335 N 
HETATM   12  C7  UNL     1      26.082   2.070  53.906  1.00  0.00     0.158 C 
BRANCH  11  13
HETATM   13  C8  UNL     1      26.798  -0.210  53.343  1.00  0.00     0.035 A 
HETATM   14  C9  UNL     1      28.048   0.145  53.802  1.00  0.00     0.029 A 
HETATM   15  C10 UNL     1      29.160  -0.685  53.716  1.00  0.00     0.002 A 
HETATM   16  C11 UNL     1      28.937  -1.917  53.130  1.00  0.00     0.000 A 
HETATM   17  C12 UNL     1      27.719  -2.347  52.646  1.00  0.00     0.002 A 
HETATM   18  C13 UNL     1      26.658  -1.456  52.770  1.00  0.00     0.029 A 
ENDBRANCH  11  13
ENDBRANCH   4  11
BRANCH   1  19
HETATM   19  C2  UNL     1      23.981   3.190  49.348  1.00  0.00     0.206 C 
BRANCH  19  20
HETATM   20  O1  UNL     1      25.329   3.395  49.641  1.00  0.00    -0.391 OA
HETATM   21  C1  UNL     1      25.651   4.749  49.649  1.00  0.00     0.201 C 
ENDBRANCH  19  20
ENDBRANCH   1  19
BRANCH  10  22
HETATM   22  P1  UNL     1      21.052   2.493  48.745  1.00  0.00     0.043 P 
HETATM   23  H17 UNL     1      19.950   1.588  48.464  1.00  0.00     0.092 HD
BRANCH  22  24
HETATM   24  O2  UNL     1      20.506   4.104  49.035  1.00  0.00    -0.371 OA
HETATM   25  H18 UNL     1      19.706   4.303  48.505  1.00  0.00     0.215 HD
ENDBRANCH  22  24
ENDBRANCH  10  22
TORSDOF 6
ENDMDL
MODEL 8
REMARK VINA RESULT:      -6.7      7.481     10.285
REMARK  6 active torsions:
REMARK  status: ('A' for Active; 'I' for Inactive)
REMARK    1  A    between atoms: O1_2  and  C2_3 
REMARK    2  A    between atoms: C2_3  and  C3_4 
REMARK    3  A    between atoms: C6_7  and  N1_8 
REMARK    4  A    between atoms: N1_8  and  C8_10 
REMARK    5  A    between atoms: C17_21  and  P1_22 
REMARK    6  A    between atoms: P1_22  and  O2_23 
ROOT
HETATM    1  C3  UNL     1      32.064   5.651  47.589  1.00  0.00    -0.021 A 
HETATM    2  C4  UNL     1      30.796   6.187  47.656  1.00  0.00     0.028 A 
HETATM    3  C5  UNL     1      30.613   7.358  48.359  1.00  0.00     0.040 A 
HETATM    4  C6  UNL     1      29.337   7.841  48.388  1.00  0.00     0.143 A 
HETATM    5  N2  UNL     1      29.105   8.985  49.066  1.00  0.00    -0.223 NA
HETATM    6  C14 UNL     1      30.163   9.586  49.678  1.00  0.00     0.236 A 
HETATM    7  N3  UNL     1      31.423   9.127  49.660  1.00  0.00    -0.241 NA
HETATM    8  C15 UNL     1      31.658   7.986  48.985  1.00  0.00     0.073 A 
HETATM    9  C16 UNL     1      32.931   7.429  48.907  1.00  0.00     0.047 A 
HETATM   10  C17 UNL     1      33.155   6.244  48.203  1.00  0.00     0.003 A 
ENDROOT
BRANCH   4  11
HETATM   11  N1  UNL     1      28.176   7.286  47.780  1.00  0.00    -0.335 N 
HETATM   12  C7  UNL     1      27.768   7.720  46.449  1.00  0.00     0.158 C 
BRANCH  11  13
HETATM   13  C8  UNL     1      27.364   6.303  48.413  1.00  0.00     0.035 A 
HETATM   14  C9  UNL     1      26.118   6.669  48.874  1.00  0.00     0.029 A 
HETATM   15  C10 UNL     1      25.246   5.791  49.506  1.00  0.00     0.002 A 
HETATM   16  C11 UNL     1      25.709   4.497  49.651  1.00  0.00     0.000 A 
HETATM   17  C12 UNL     1      26.940   4.050  49.220  1.00  0.00     0.002 A 
HETATM   18  C13 UNL     1      27.753   4.992  48.597  1.00  0.00     0.029 A 
ENDBRANCH  11  13
ENDBRANCH   4  11
BRANCH   1  19
HETATM   19  C2  UNL     1      32.302   4.398  46.845  1.00  0.00     0.206 C 
BRANCH  19  20
HETATM   20  O1  UNL     1      32.240   3.306  47.711  1.00  0.00    -0.391 OA
HETATM   21  C1  UNL     1      32.838   2.179  47.155  1.00  0.00     0.201 C 
ENDBRANCH  19  20
ENDBRANCH   1  19
BRANCH  10  22
HETATM   22  P1  UNL     1      34.836   5.561  48.133  1.00  0.00     0.043 P 
HETATM   23  H17 UNL     1      35.817   6.570  48.491  1.00  0.00     0.092 HD
BRANCH  22  24
HETATM   24  O2  UNL     1      35.001   4.133  49.088  1.00  0.00    -0.371 OA
HETATM   25  H18 UNL     1      34.195   3.579  49.030  1.00  0.00     0.215 HD
ENDBRANCH  22  24
ENDBRANCH  10  22
TORSDOF 6
ENDMDL
MODEL 9
REMARK VINA RESULT:      -6.7      2.545      4.473
REMARK  6 active torsions:
REMARK  status: ('A' for Active; 'I' for Inactive)
REMARK    1  A    between atoms: O1_2  and  C2_3 
REMARK    2  A    between atoms: C2_3  and  C3_4 
REMARK    3  A    between atoms: C6_7  and  N1_8 
REMARK    4  A    between atoms: N1_8  and  C8_10 
REMARK    5  A    between atoms: C17_21  and  P1_22 
REMARK    6  A    between atoms: P1_22  and  O2_23 
ROOT
HETATM    1  C3  UNL     1      20.348   0.390  51.814  1.00  0.00    -0.021 A 
HETATM    2  C4  UNL     1      21.682   0.413  52.164  1.00  0.00     0.028 A 
HETATM    3  C5  UNL     1      22.080  -0.285  53.283  1.00  0.00     0.040 A 
HETATM    4  C6  UNL     1      23.411  -0.226  53.578  1.00  0.00     0.143 A 
HETATM    5  N2  UNL     1      23.852  -0.892  54.666  1.00  0.00    -0.223 NA
HETATM    6  C14 UNL     1      22.937  -1.584  55.401  1.00  0.00     0.236 A 
HETATM    7  N3  UNL     1      21.626  -1.654  55.127  1.00  0.00    -0.241 NA
HETATM    8  C15 UNL     1      21.183  -0.990  54.042  1.00  0.00     0.073 A 
HETATM    9  C16 UNL     1      19.841  -1.001  53.673  1.00  0.00     0.047 A 
HETATM   10  C17 UNL     1      19.400  -0.306  52.545  1.00  0.00     0.003 A 
ENDROOT
BRANCH   4  11
HETATM   11  N1  UNL     1      24.435   0.465  52.871  1.00  0.00    -0.335 N 
HETATM   12  C7  UNL     1      24.086   1.422  51.828  1.00  0.00     0.158 C 
BRANCH  11  13
HETATM   13  C8  UNL     1      25.822   0.271  53.127  1.00  0.00     0.035 A 
HETATM   14  C9  UNL     1      26.430  -0.869  52.649  1.00  0.00     0.029 A 
HETATM   15  C10 UNL     1      27.776  -1.158  52.843  1.00  0.00     0.002 A 
HETATM   16  C11 UNL     1      28.488  -0.215  53.560  1.00  0.00     0.000 A 
HETATM   17  C12 UNL     1      27.955   0.949  54.072  1.00  0.00     0.002 A 
HETATM   18  C13 UNL     1      26.601   1.163  53.834  1.00  0.00     0.029 A 
ENDBRANCH  11  13
ENDBRANCH   4  11
BRANCH   1  19
HETATM   19  C2  UNL     1      19.881   1.125  50.621  1.00  0.00     0.206 C 
BRANCH  19  20
HETATM   20  O1  UNL     1      20.274   2.461  50.697  1.00  0.00    -0.391 OA
HETATM   21  C1  UNL     1      19.328   3.234  51.363  1.00  0.00     0.201 C 
ENDBRANCH  19  20
ENDBRANCH   1  19
BRANCH  10  22
HETATM   22  P1  UNL     1      17.638  -0.354  52.108  1.00  0.00     0.043 P 
HETATM   23  H17 UNL     1      17.424  -1.166  50.923  1.00  0.00     0.092 HD
BRANCH  22  24
HETATM   24  O2  UNL     1      16.652  -0.866  53.428  1.00  0.00    -0.371 OA
HETATM   25  H18 UNL     1      15.703  -0.832  53.190  1.00  0.00     0.215 HD
ENDBRANCH  22  24
ENDBRANCH  10  22
TORSDOF 6
ENDMDL
