MODEL 1
REMARK VINA RESULT:      -8.0      0.000      0.000
REMARK  6 active torsions:
REMARK  status: ('A' for Active; 'I' for Inactive)
REMARK    1  A    between atoms: O1_2  and  C2_3 
REMARK    2  A    between atoms: C4_5  and  C5_6 
REMARK    3  A    between atoms: C6_7  and  C7_8 
REMARK    4  A    between atoms: N2_10  and  C8_11 
REMARK    5  A    between atoms: C9_13  and  O2_14 
REMARK    6  A    between atoms: C11_17  and  C12_18 
ROOT
HETATM    1  C7  UNL     1      25.657   2.549  51.824  1.00  0.00     0.110 C 
HETATM    2  N1  UNL     1      26.188   1.389  51.513  1.00  0.00    -0.165 NA
HETATM    3  N2  UNL     1      26.478   0.692  52.688  1.00  0.00    -0.236 N 
HETATM    4  C11 UNL     1      25.530   1.177  53.671  1.00  0.00     0.152 C 
HETATM    5  C18 UNL     1      25.578   2.650  53.326  1.00  0.00     0.103 C 
ENDROOT
BRANCH   1   6
HETATM    6  C6  UNL     1      25.249   3.501  50.830  1.00  0.00    -0.045 C 
HETATM    7  C5  UNL     1      24.896   4.312  50.009  1.00  0.00    -0.069 C 
BRANCH   7   8
HETATM    8  C4  UNL     1      24.453   5.298  49.037  1.00  0.00     0.096 C 
HETATM    9  C2  UNL     1      25.300   6.128  48.449  1.00  0.00     0.050 C 
HETATM   10  C3  UNL     1      26.751   6.041  48.804  1.00  0.00     0.077 C 
BRANCH   9  11
HETATM   11  O1  UNL     1      25.000   7.090  47.525  1.00  0.00    -0.360 OA
HETATM   12  C1  UNL     1      25.944   8.103  47.237  1.00  0.00     0.209 C 
ENDBRANCH   9  11
ENDBRANCH   7   8
ENDBRANCH   1   6
BRANCH   3  13
HETATM   13  C8  UNL     1      27.472  -0.308  52.986  1.00  0.00     0.192 A 
HETATM   14  N3  UNL     1      27.523  -1.671  52.975  1.00  0.00    -0.198 NA
HETATM   15  C9  UNL     1      28.704  -2.131  53.344  1.00  0.00     0.171 A 
HETATM   16  C10 UNL     1      29.869  -1.343  53.731  1.00  0.00     0.111 A 
HETATM   17  S1  UNL     1      29.129   0.313  53.528  1.00  0.00    -0.058 SA
BRANCH  15  18
HETATM   18  O2  UNL     1      28.572  -3.538  53.272  1.00  0.00    -0.344 OA
HETATM   19  H8  UNL     1      29.331  -4.162  53.127  1.00  0.00     0.219 HD
ENDBRANCH  15  18
ENDBRANCH   3  13
BRANCH   4  20
HETATM   20  C12 UNL     1      24.236   0.544  53.391  1.00  0.00    -0.033 A 
HETATM   21  C13 UNL     1      23.914  -0.798  53.368  1.00  0.00     0.009 A 
HETATM   22  C14 UNL     1      22.631  -1.224  53.083  1.00  0.00     0.001 A 
HETATM   23  C15 UNL     1      21.620  -0.326  52.809  1.00  0.00     0.000 A 
HETATM   24  C16 UNL     1      21.930   1.029  52.828  1.00  0.00     0.001 A 
HETATM   25  C17 UNL     1      23.215   1.453  53.115  1.00  0.00     0.009 A 
ENDBRANCH   4  20
TORSDOF 6
ENDMDL
MODEL 2
REMARK VINA RESULT:      -7.9      1.779      2.394
REMARK  6 active torsions:
REMARK  status: ('A' for Active; 'I' for Inactive)
REMARK    1  A    between atoms: O1_2  and  C2_3 
REMARK    2  A    between atoms: C4_5  and  C5_6 
REMARK    3  A    between atoms: C6_7  and  C7_8 
REMARK    4  A    between atoms: N2_10  and  C8_11 
REMARK    5  A    between atoms: C9_13  and  O2_14 
REMARK    6  A    between atoms: C11_17  and  C12_18 
ROOT
HETATM    1  C7  UNL     1      25.108   2.116  51.744  1.00  0.00     0.110 C 
HETATM    2  N1  UNL     1      25.687   0.956  51.537  1.00  0.00    -0.165 NA
HETATM    3  N2  UNL     1      26.212   0.487  52.742  1.00  0.00    -0.236 N 
HETATM    4  C11 UNL     1      25.384   1.070  53.779  1.00  0.00     0.152 C 
HETATM    5  C18 UNL     1      25.248   2.464  53.204  1.00  0.00     0.103 C 
ENDROOT
BRANCH   1   6
HETATM    6  C6  UNL     1      24.471   2.859  50.694  1.00  0.00    -0.045 C 
HETATM    7  C5  UNL     1      23.945   3.500  49.817  1.00  0.00    -0.069 C 
BRANCH   7   8
HETATM    8  C4  UNL     1      23.316   4.294  48.775  1.00  0.00     0.096 C 
HETATM    9  C2  UNL     1      22.592   3.741  47.816  1.00  0.00     0.050 C 
HETATM   10  C3  UNL     1      22.426   2.254  47.813  1.00  0.00     0.077 C 
BRANCH   9  11
HETATM   11  O1  UNL     1      21.957   4.383  46.790  1.00  0.00    -0.360 OA
HETATM   12  C1  UNL     1      21.842   3.750  45.531  1.00  0.00     0.209 C 
ENDBRANCH   9  11
ENDBRANCH   7   8
ENDBRANCH   1   6
BRANCH   3  13
HETATM   13  C8  UNL     1      27.325  -0.383  53.027  1.00  0.00     0.192 A 
HETATM   14  N3  UNL     1      27.531  -1.731  53.051  1.00  0.00    -0.198 NA
HETATM   15  C9  UNL     1      28.771  -2.042  53.384  1.00  0.00     0.171 A 
HETATM   16  C10 UNL     1      29.851  -1.115  53.702  1.00  0.00     0.111 A 
HETATM   17  S1  UNL     1      28.918   0.439  53.484  1.00  0.00    -0.058 SA
BRANCH  15  18
HETATM   18  O2  UNL     1      28.798  -3.456  53.356  1.00  0.00    -0.344 OA
HETATM   19  H8  UNL     1      29.167  -4.020  54.086  1.00  0.00     0.219 HD
ENDBRANCH  15  18
ENDBRANCH   3  13
BRANCH   4  20
HETATM   20  C12 UNL     1      24.125   0.319  53.817  1.00  0.00    -0.033 A 
HETATM   21  C13 UNL     1      22.969   0.525  53.092  1.00  0.00     0.009 A 
HETATM   22  C14 UNL     1      21.864  -0.288  53.255  1.00  0.00     0.001 A 
HETATM   23  C15 UNL     1      21.870  -1.339  54.149  1.00  0.00     0.000 A 
HETATM   24  C16 UNL     1      23.027  -1.558  54.887  1.00  0.00     0.001 A 
HETATM   25  C17 UNL     1      24.133  -0.744  54.722  1.00  0.00     0.009 A 
ENDBRANCH   4  20
TORSDOF 6
ENDMDL
MODEL 3
REMARK VINA RESULT:      -7.7      4.438      7.380
REMARK  6 active torsions:
REMARK  status: ('A' for Active; 'I' for Inactive)
REMARK    1  A    between atoms: O1_2  and  C2_3 
REMARK    2  A    between atoms: C4_5  and  C5_6 
REMARK    3  A    between atoms: C6_7  and  C7_8 
REMARK    4  A    between atoms: N2_10  and  C8_11 
REMARK    5  A    between atoms: C9_13  and  O2_14 
REMARK    6  A    between atoms: C11_17  and  C12_18 
ROOT
HETATM    1  C7  UNL     1      23.369   0.703  52.683  1.00  0.00     0.110 C 
HETATM    2  N1  UNL     1      22.441  -0.172  52.368  1.00  0.00    -0.165 NA
HETATM    3  N2  UNL     1      21.207   0.476  52.308  1.00  0.00    -0.236 N 
HETATM    4  C11 UNL     1      21.505   1.851  51.961  1.00  0.00     0.152 C 
HETATM    5  C18 UNL     1      22.715   2.051  52.849  1.00  0.00     0.103 C 
ENDROOT
BRANCH   1   6
HETATM    6  C6  UNL     1      24.751   0.344  52.823  1.00  0.00    -0.045 C 
HETATM    7  C5  UNL     1      25.916   0.056  52.957  1.00  0.00    -0.069 C 
BRANCH   7   8
HETATM    8  C4  UNL     1      27.322  -0.268  53.129  1.00  0.00     0.096 C 
HETATM    9  C2  UNL     1      28.229   0.665  53.371  1.00  0.00     0.050 C 
HETATM   10  C3  UNL     1      27.782   2.090  53.467  1.00  0.00     0.077 C 
BRANCH   9  11
HETATM   11  O1  UNL     1      29.572   0.481  53.550  1.00  0.00    -0.360 OA
HETATM   12  C1  UNL     1      30.083  -0.827  53.720  1.00  0.00     0.209 C 
ENDBRANCH   9  11
ENDBRANCH   7   8
ENDBRANCH   1   6
BRANCH   3  13
HETATM   13  C8  UNL     1      19.864  -0.002  52.524  1.00  0.00     0.192 A 
HETATM   14  N3  UNL     1      19.278  -0.950  53.311  1.00  0.00    -0.198 NA
HETATM   15  C9  UNL     1      17.970  -1.005  53.138  1.00  0.00     0.171 A 
HETATM   16  C10 UNL     1      17.171  -0.186  52.234  1.00  0.00     0.111 A 
HETATM   17  S1  UNL     1      18.530   0.811  51.533  1.00  0.00    -0.058 SA
BRANCH  15  18
HETATM   18  O2  UNL     1      17.541  -2.024  54.020  1.00  0.00    -0.344 OA
HETATM   19  H8  UNL     1      17.806  -2.082  54.976  1.00  0.00     0.219 HD
ENDBRANCH  15  18
ENDBRANCH   3  13
BRANCH   4  20
HETATM   20  C12 UNL     1      21.809   1.891  50.527  1.00  0.00    -0.033 A 
HETATM   21  C13 UNL     1      21.380   1.045  49.524  1.00  0.00     0.009 A 
HETATM   22  C14 UNL     1      21.767   1.231  48.212  1.00  0.00     0.001 A 
HETATM   23  C15 UNL     1      22.598   2.270  47.848  1.00  0.00     0.000 A 
HETATM   24  C16 UNL     1      23.039   3.131  48.846  1.00  0.00     0.001 A 
HETATM   25  C17 UNL     1      22.650   2.943  50.161  1.00  0.00     0.009 A 
ENDBRANCH   4  20
TORSDOF 6
ENDMDL
MODEL 4
REMARK VINA RESULT:      -7.6      2.561      2.992
REMARK  6 active torsions:
REMARK  status: ('A' for Active; 'I' for Inactive)
REMARK    1  A    between atoms: O1_2  and  C2_3 
REMARK    2  A    between atoms: C4_5  and  C5_6 
REMARK    3  A    between atoms: C6_7  and  C7_8 
REMARK    4  A    between atoms: N2_10  and  C8_11 
REMARK    5  A    between atoms: C9_13  and  O2_14 
REMARK    6  A    between atoms: C11_17  and  C12_18 
ROOT
HETATM    1  C7  UNL     1      24.264   2.770  50.937  1.00  0.00     0.110 C 
HETATM    2  N1  UNL     1      25.237   1.903  51.093  1.00  0.00    -0.165 NA
HETATM    3  N2  UNL     1      25.665   1.933  52.421  1.00  0.00    -0.236 N 
HETATM    4  C11 UNL     1      24.513   2.359  53.191  1.00  0.00     0.152 C 
HETATM    5  C18 UNL     1      24.008   3.442  52.262  1.00  0.00     0.103 C 
ENDROOT
BRANCH   1   6
HETATM    6  C6  UNL     1      23.610   2.977  49.676  1.00  0.00    -0.045 C 
HETATM    7  C5  UNL     1      23.064   3.171  48.617  1.00  0.00    -0.069 C 
BRANCH   7   8
HETATM    8  C4  UNL     1      22.404   3.430  47.349  1.00  0.00     0.096 C 
HETATM    9  C2  UNL     1      22.242   4.658  46.883  1.00  0.00     0.050 C 
HETATM   10  C3  UNL     1      22.756   5.805  47.695  1.00  0.00     0.077 C 
BRANCH   9  11
HETATM   11  O1  UNL     1      21.641   5.020  45.710  1.00  0.00    -0.360 OA
HETATM   12  C1  UNL     1      21.167   4.022  44.828  1.00  0.00     0.209 C 
ENDBRANCH   9  11
ENDBRANCH   7   8
ENDBRANCH   1   6
BRANCH   3  13
HETATM   13  C8  UNL     1      26.940   1.633  53.023  1.00  0.00     0.192 A 
HETATM   14  N3  UNL     1      27.875   2.329  53.731  1.00  0.00    -0.198 NA
HETATM   15  C9  UNL     1      28.907   1.578  54.071  1.00  0.00     0.171 A 
HETATM   16  C10 UNL     1      29.099   0.165  53.766  1.00  0.00     0.111 A 
HETATM   17  S1  UNL     1      27.546  -0.106  52.847  1.00  0.00    -0.058 SA
BRANCH  15  18
HETATM   18  O2  UNL     1      29.758   2.452  54.786  1.00  0.00    -0.344 OA
HETATM   19  H8  UNL     1      29.477   3.335  55.143  1.00  0.00     0.219 HD
ENDBRANCH  15  18
ENDBRANCH   3  13
BRANCH   4  20
HETATM   20  C12 UNL     1      23.609   1.210  53.310  1.00  0.00    -0.033 A 
HETATM   21  C13 UNL     1      23.908  -0.102  53.615  1.00  0.00     0.009 A 
HETATM   22  C14 UNL     1      22.921  -1.066  53.686  1.00  0.00     0.001 A 
HETATM   23  C15 UNL     1      21.597  -0.757  53.457  1.00  0.00     0.000 A 
HETATM   24  C16 UNL     1      21.280   0.560  53.149  1.00  0.00     0.001 A 
HETATM   25  C17 UNL     1      22.269   1.525  53.078  1.00  0.00     0.009 A 
ENDBRANCH   4  20
TORSDOF 6
ENDMDL
MODEL 5
REMARK VINA RESULT:      -7.5      3.606      6.920
REMARK  6 active torsions:
REMARK  status: ('A' for Active; 'I' for Inactive)
REMARK    1  A    between atoms: O1_2  and  C2_3 
REMARK    2  A    between atoms: C4_5  and  C5_6 
REMARK    3  A    between atoms: C6_7  and  C7_8 
REMARK    4  A    between atoms: N2_10  and  C8_11 
REMARK    5  A    between atoms: C9_13  and  O2_14 
REMARK    6  A    between atoms: C11_17  and  C12_18 
ROOT
HETATM    1  C7  UNL     1      22.818   2.330  51.446  1.00  0.00     0.110 C 
HETATM    2  N1  UNL     1      23.612   2.433  50.405  1.00  0.00    -0.165 NA
HETATM    3  N2  UNL     1      24.760   3.135  50.776  1.00  0.00    -0.236 N 
HETATM    4  C11 UNL     1      24.926   2.888  52.194  1.00  0.00     0.152 C 
HETATM    5  C18 UNL     1      23.478   3.014  52.617  1.00  0.00     0.103 C 
ENDROOT
BRANCH   1   6
HETATM    6  C6  UNL     1      21.551   1.659  51.386  1.00  0.00    -0.045 C 
HETATM    7  C5  UNL     1      20.476   1.113  51.338  1.00  0.00    -0.069 C 
BRANCH   7   8
HETATM    8  C4  UNL     1      19.170   0.477  51.290  1.00  0.00     0.096 C 
HETATM    9  C2  UNL     1      18.744  -0.317  52.260  1.00  0.00     0.050 C 
HETATM   10  C3  UNL     1      19.642  -0.559  53.433  1.00  0.00     0.077 C 
BRANCH   9  11
HETATM   11  O1  UNL     1      17.543  -0.966  52.324  1.00  0.00    -0.360 OA
HETATM   12  C1  UNL     1      16.592  -0.782  51.295  1.00  0.00     0.209 C 
ENDBRANCH   9  11
ENDBRANCH   7   8
ENDBRANCH   1   6
BRANCH   3  13
HETATM   13  C8  UNL     1      25.665   3.960  50.014  1.00  0.00     0.192 A 
HETATM   14  N3  UNL     1      26.926   3.824  49.514  1.00  0.00    -0.198 NA
HETATM   15  C9  UNL     1      27.326   4.902  48.865  1.00  0.00     0.171 A 
HETATM   16  C10 UNL     1      26.571   6.132  48.662  1.00  0.00     0.111 A 
HETATM   17  S1  UNL     1      25.053   5.643  49.549  1.00  0.00    -0.058 SA
BRANCH  15  18
HETATM   18  O2  UNL     1      28.633   4.583  48.425  1.00  0.00    -0.344 OA
HETATM   19  H8  UNL     1      29.191   3.859  48.814  1.00  0.00     0.219 HD
ENDBRANCH  15  18
ENDBRANCH   3  13
BRANCH   4  20
HETATM   20  C12 UNL     1      25.474   1.536  52.348  1.00  0.00    -0.033 A 
HETATM   21  C13 UNL     1      26.515   0.939  51.667  1.00  0.00     0.009 A 
HETATM   22  C14 UNL     1      26.904  -0.357  51.943  1.00  0.00     0.001 A 
HETATM   23  C15 UNL     1      26.269  -1.108  52.911  1.00  0.00     0.000 A 
HETATM   24  C16 UNL     1      25.218  -0.520  53.605  1.00  0.00     0.001 A 
HETATM   25  C17 UNL     1      24.830   0.779  53.328  1.00  0.00     0.009 A 
ENDBRANCH   4  20
TORSDOF 6
ENDMDL
MODEL 6
REMARK VINA RESULT:      -7.2      3.026      3.954
REMARK  6 active torsions:
REMARK  status: ('A' for Active; 'I' for Inactive)
REMARK    1  A    between atoms: O1_2  and  C2_3 
REMARK    2  A    between atoms: C4_5  and  C5_6 
REMARK    3  A    between atoms: C6_7  and  C7_8 
REMARK    4  A    between atoms: N2_10  and  C8_11 
REMARK    5  A    between atoms: C9_13  and  O2_14 
REMARK    6  A    between atoms: C11_17  and  C12_18 
ROOT
HETATM    1  C7  UNL     1      25.034   3.173  51.071  1.00  0.00     0.110 C 
HETATM    2  N1  UNL     1      25.004   1.889  51.343  1.00  0.00    -0.165 NA
HETATM    3  N2  UNL     1      23.961   1.637  52.236  1.00  0.00    -0.236 N 
HETATM    4  C11 UNL     1      22.979   2.675  51.990  1.00  0.00     0.152 C 
HETATM    5  C18 UNL     1      23.924   3.848  51.837  1.00  0.00     0.103 C 
ENDROOT
BRANCH   1   6
HETATM    6  C6  UNL     1      25.999   3.750  50.179  1.00  0.00    -0.045 C 
HETATM    7  C5  UNL     1      26.821   4.243  49.446  1.00  0.00    -0.069 C 
BRANCH   7   8
HETATM    8  C4  UNL     1      27.818   4.853  48.582  1.00  0.00     0.096 C 
HETATM    9  C2  UNL     1      27.789   6.142  48.283  1.00  0.00     0.050 C 
HETATM   10  C3  UNL     1      26.693   6.985  48.857  1.00  0.00     0.077 C 
BRANCH   9  11
HETATM   11  O1  UNL     1      28.667   6.822  47.487  1.00  0.00    -0.360 OA
HETATM   12  C1  UNL     1      29.951   7.149  47.979  1.00  0.00     0.209 C 
ENDBRANCH   9  11
ENDBRANCH   7   8
ENDBRANCH   1   6
BRANCH   3  13
HETATM   13  C8  UNL     1      23.780   0.610  53.231  1.00  0.00     0.192 A 
HETATM   14  N3  UNL     1      22.715  -0.026  53.798  1.00  0.00    -0.198 NA
HETATM   15  C9  UNL     1      23.086  -0.923  54.693  1.00  0.00     0.171 A 
HETATM   16  C10 UNL     1      24.450  -1.255  55.086  1.00  0.00     0.111 A 
HETATM   17  S1  UNL     1      25.319  -0.085  53.987  1.00  0.00    -0.058 SA
BRANCH  15  18
HETATM   18  O2  UNL     1      21.870  -1.472  55.166  1.00  0.00    -0.344 OA
HETATM   19  H8  UNL     1      21.786  -2.001  56.002  1.00  0.00     0.219 HD
ENDBRANCH  15  18
ENDBRANCH   3  13
BRANCH   4  20
HETATM   20  C12 UNL     1      22.262   2.326  50.759  1.00  0.00    -0.033 A 
HETATM   21  C13 UNL     1      21.901   1.079  50.288  1.00  0.00     0.009 A 
HETATM   22  C14 UNL     1      21.221   0.931  49.096  1.00  0.00     0.001 A 
HETATM   23  C15 UNL     1      20.874   2.022  48.325  1.00  0.00     0.000 A 
HETATM   24  C16 UNL     1      21.232   3.283  48.785  1.00  0.00     0.001 A 
HETATM   25  C17 UNL     1      21.913   3.430  49.981  1.00  0.00     0.009 A 
ENDBRANCH   4  20
TORSDOF 6
ENDMDL
MODEL 7
REMARK VINA RESULT:      -7.2      4.747      6.937
REMARK  6 active torsions:
REMARK  status: ('A' for Active; 'I' for Inactive)
REMARK    1  A    between atoms: O1_2  and  C2_3 
REMARK    2  A    between atoms: C4_5  and  C5_6 
REMARK    3  A    between atoms: C6_7  and  C7_8 
REMARK    4  A    between atoms: N2_10  and  C8_11 
REMARK    5  A    between atoms: C9_13  and  O2_14 
REMARK    6  A    between atoms: C11_17  and  C12_18 
ROOT
HETATM    1  C7  UNL     1      22.333   2.242  50.250  1.00  0.00     0.110 C 
HETATM    2  N1  UNL     1      21.451   2.903  50.965  1.00  0.00    -0.165 NA
HETATM    3  N2  UNL     1      20.262   2.174  51.008  1.00  0.00    -0.236 N 
HETATM    4  C11 UNL     1      20.650   0.786  50.852  1.00  0.00     0.152 C 
HETATM    5  C18 UNL     1      21.694   0.964  49.771  1.00  0.00     0.103 C 
ENDROOT
BRANCH   1   6
HETATM    6  C6  UNL     1      23.661   2.734  50.018  1.00  0.00    -0.045 C 
HETATM    7  C5  UNL     1      24.776   3.141  49.802  1.00  0.00    -0.069 C 
BRANCH   7   8
HETATM    8  C4  UNL     1      26.121   3.614  49.522  1.00  0.00     0.096 C 
HETATM    9  C2  UNL     1      26.352   4.841  49.080  1.00  0.00     0.050 C 
HETATM   10  C3  UNL     1      25.188   5.755  48.865  1.00  0.00     0.077 C 
BRANCH   9  11
HETATM   11  O1  UNL     1      27.567   5.393  48.785  1.00  0.00    -0.360 OA
HETATM   12  C1  UNL     1      27.630   6.694  48.235  1.00  0.00     0.209 C 
ENDBRANCH   9  11
ENDBRANCH   7   8
ENDBRANCH   1   6
BRANCH   3  13
HETATM   13  C8  UNL     1      18.890   2.589  51.165  1.00  0.00     0.192 A 
HETATM   14  N3  UNL     1      18.228   3.516  51.916  1.00  0.00    -0.198 NA
HETATM   15  C9  UNL     1      16.928   3.507  51.689  1.00  0.00     0.171 A 
HETATM   16  C10 UNL     1      16.206   2.643  50.763  1.00  0.00     0.111 A 
HETATM   17  S1  UNL     1      17.637   1.704  50.130  1.00  0.00    -0.058 SA
BRANCH  15  18
HETATM   18  O2  UNL     1      16.416   4.515  52.541  1.00  0.00    -0.344 OA
HETATM   19  H8  UNL     1      15.603   5.050  52.343  1.00  0.00     0.219 HD
ENDBRANCH  15  18
ENDBRANCH   3  13
BRANCH   4  20
HETATM   20  C12 UNL     1      21.197   0.332  52.136  1.00  0.00    -0.033 A 
HETATM   21  C13 UNL     1      22.430  -0.226  52.405  1.00  0.00     0.009 A 
HETATM   22  C14 UNL     1      22.785  -0.601  53.686  1.00  0.00     0.001 A 
HETATM   23  C15 UNL     1      21.921  -0.433  54.749  1.00  0.00     0.000 A 
HETATM   24  C16 UNL     1      20.675   0.127  54.493  1.00  0.00     0.001 A 
HETATM   25  C17 UNL     1      20.322   0.502  53.210  1.00  0.00     0.009 A 
ENDBRANCH   4  20
TORSDOF 6
ENDMDL
MODEL 8
REMARK VINA RESULT:      -7.1      2.412      2.903
REMARK  6 active torsions:
REMARK  status: ('A' for Active; 'I' for Inactive)
REMARK    1  A    between atoms: O1_2  and  C2_3 
REMARK    2  A    between atoms: C4_5  and  C5_6 
REMARK    3  A    between atoms: C6_7  and  C7_8 
REMARK    4  A    between atoms: N2_10  and  C8_11 
REMARK    5  A    between atoms: C9_13  and  O2_14 
REMARK    6  A    between atoms: C11_17  and  C12_18 
ROOT
HETATM    1  C7  UNL     1      24.417   2.578  51.072  1.00  0.00     0.110 C 
HETATM    2  N1  UNL     1      25.183   1.512  51.029  1.00  0.00    -0.165 NA
HETATM    3  N2  UNL     1      25.678   1.256  52.309  1.00  0.00    -0.236 N 
HETATM    4  C11 UNL     1      24.692   1.797  53.223  1.00  0.00     0.152 C 
HETATM    5  C18 UNL     1      24.388   3.086  52.491  1.00  0.00     0.103 C 
ENDROOT
BRANCH   1   6
HETATM    6  C6  UNL     1      23.756   3.101  49.910  1.00  0.00    -0.045 C 
HETATM    7  C5  UNL     1      23.220   3.543  48.923  1.00  0.00    -0.069 C 
BRANCH   7   8
HETATM    8  C4  UNL     1      22.596   4.089  47.730  1.00  0.00     0.096 C 
HETATM    9  C2  UNL     1      21.432   3.644  47.284  1.00  0.00     0.050 C 
HETATM   10  C3  UNL     1      20.750   2.546  48.037  1.00  0.00     0.077 C 
BRANCH   9  11
HETATM   11  O1  UNL     1      20.754   4.078  46.180  1.00  0.00    -0.360 OA
HETATM   12  C1  UNL     1      19.467   3.564  45.901  1.00  0.00     0.209 C 
ENDBRANCH   9  11
ENDBRANCH   7   8
ENDBRANCH   1   6
BRANCH   3  13
HETATM   13  C8  UNL     1      26.887   0.610  52.755  1.00  0.00     0.192 A 
HETATM   14  N3  UNL     1      27.317  -0.678  52.885  1.00  0.00    -0.198 NA
HETATM   15  C9  UNL     1      28.548  -0.750  53.355  1.00  0.00     0.171 A 
HETATM   16  C10 UNL     1      29.414   0.367  53.717  1.00  0.00     0.111 A 
HETATM   17  S1  UNL     1      28.258   1.720  53.311  1.00  0.00    -0.058 SA
BRANCH  15  18
HETATM   18  O2  UNL     1      28.820  -2.137  53.420  1.00  0.00    -0.344 OA
HETATM   19  H8  UNL     1      28.175  -2.816  53.752  1.00  0.00     0.219 HD
ENDBRANCH  15  18
ENDBRANCH   3  13
BRANCH   4  20
HETATM   20  C12 UNL     1      23.565   0.859  53.266  1.00  0.00    -0.033 A 
HETATM   21  C13 UNL     1      23.584  -0.516  53.387  1.00  0.00     0.009 A 
HETATM   22  C14 UNL     1      22.415  -1.252  53.411  1.00  0.00     0.001 A 
HETATM   23  C15 UNL     1      21.181  -0.643  53.317  1.00  0.00     0.000 A 
HETATM   24  C16 UNL     1      21.145   0.741  53.195  1.00  0.00     0.001 A 
HETATM   25  C17 UNL     1      22.317   1.477  53.171  1.00  0.00     0.009 A 
ENDBRANCH   4  20
TORSDOF 6
ENDMDL
MODEL 9
REMARK VINA RESULT:      -7.0      4.912      8.063
REMARK  6 active torsions:
REMARK  status: ('A' for Active; 'I' for Inactive)
REMARK    1  A    between atoms: O1_2  and  C2_3 
REMARK    2  A    between atoms: C4_5  and  C5_6 
REMARK    3  A    between atoms: C6_7  and  C7_8 
REMARK    4  A    between atoms: N2_10  and  C8_11 
REMARK    5  A    between atoms: C9_13  and  O2_14 
REMARK    6  A    between atoms: C11_17  and  C12_18 
ROOT
HETATM    1  C7  UNL     1      22.523   1.942  51.887  1.00  0.00     0.110 C 
HETATM    2  N1  UNL     1      21.494   2.652  52.288  1.00  0.00    -0.165 NA
HETATM    3  N2  UNL     1      20.410   2.398  51.447  1.00  0.00    -0.236 N 
HETATM    4  C11 UNL     1      20.618   1.056  50.940  1.00  0.00     0.152 C 
HETATM    5  C18 UNL     1      22.106   1.140  50.680  1.00  0.00     0.103 C 
ENDROOT
BRANCH   1   6
HETATM    6  C6  UNL     1      23.796   1.985  52.549  1.00  0.00    -0.045 C 
HETATM    7  C5  UNL     1      24.856   2.017  53.125  1.00  0.00    -0.069 C 
BRANCH   7   8
HETATM    8  C4  UNL     1      26.120   2.060  53.841  1.00  0.00     0.096 C 
HETATM    9  C2  UNL     1      26.682   0.967  54.333  1.00  0.00     0.050 C 
HETATM   10  C3  UNL     1      25.985  -0.344  54.142  1.00  0.00     0.077 C 
BRANCH   9  11
HETATM   11  O1  UNL     1      27.861   0.885  55.019  1.00  0.00    -0.360 OA
HETATM   12  C1  UNL     1      28.897   0.053  54.537  1.00  0.00     0.209 C 
ENDBRANCH   9  11
ENDBRANCH   7   8
ENDBRANCH   1   6
BRANCH   3  13
HETATM   13  C8  UNL     1      19.273   3.205  51.080  1.00  0.00     0.192 A 
HETATM   14  N3  UNL     1      18.140   3.640  51.703  1.00  0.00    -0.198 NA
HETATM   15  C9  UNL     1      17.387   4.381  50.911  1.00  0.00     0.171 A 
HETATM   16  C10 UNL     1      17.663   4.740  49.525  1.00  0.00     0.111 A 
HETATM   17  S1  UNL     1      19.255   3.865  49.352  1.00  0.00    -0.058 SA
BRANCH  15  18
HETATM   18  O2  UNL     1      16.277   4.736  51.713  1.00  0.00    -0.344 OA
HETATM   19  H8  UNL     1      16.208   4.544  52.685  1.00  0.00     0.219 HD
ENDBRANCH  15  18
ENDBRANCH   3  13
BRANCH   4  20
HETATM   20  C12 UNL     1      20.254   0.116  52.006  1.00  0.00    -0.033 A 
HETATM   21  C13 UNL     1      21.070  -0.513  52.924  1.00  0.00     0.009 A 
HETATM   22  C14 UNL     1      20.555  -1.377  53.871  1.00  0.00     0.001 A 
HETATM   23  C15 UNL     1      19.203  -1.646  53.938  1.00  0.00     0.000 A 
HETATM   24  C16 UNL     1      18.369  -1.020  53.020  1.00  0.00     0.001 A 
HETATM   25  C17 UNL     1      18.887  -0.154  52.073  1.00  0.00     0.009 A 
ENDBRANCH   4  20
TORSDOF 6
ENDMDL
