MODEL 1
REMARK VINA RESULT:      -7.8      0.000      0.000
REMARK  5 active torsions:
REMARK  status: ('A' for Active; 'I' for Inactive)
REMARK    1  A    between atoms: C3_3  and  S1_4 
REMARK    2  A    between atoms: S1_4  and  C4_5 
REMARK    3  A    between atoms: C4_5  and  C5_6 
REMARK    4  A    between atoms: C10_11  and  N1_12 
REMARK    5  A    between atoms: N1_12  and  C11_13 
ROOT
HETATM    1  C11 UNL     1      19.986   2.414  51.059  1.00  0.00     0.266 A 
HETATM    2  C12 UNL     1      19.583   3.760  51.487  1.00  0.00     0.083 A 
HETATM    3  N2  UNL     1      18.338   3.981  51.721  1.00  0.00    -0.244 NA
HETATM    4  C13 UNL     1      17.374   2.916  51.581  1.00  0.00     0.229 A 
HETATM    5  N3  UNL     1      17.664   1.717  51.252  1.00  0.00    -0.254 NA
HETATM    6  C14 UNL     1      19.000   1.320  51.007  1.00  0.00     0.257 A 
HETATM    7  N4  UNL     1      19.274   0.741  49.703  1.00  0.00    -0.364 N 
HETATM    8  C15 UNL     1      20.369   1.433  49.112  1.00  0.00     0.034 C 
HETATM    9  C16 UNL     1      20.025   2.636  49.532  1.00  0.00    -0.009 C 
HETATM   10  C17 UNL     1      19.780   3.736  48.549  1.00  0.00     0.049 C 
HETATM   11  C18 UNL     1      21.571   1.270  48.306  1.00  0.00     0.029 C 
HETATM   12  C19 UNL     1      22.535   2.122  48.494  1.00  0.00     0.002 C 
HETATM   13  C20 UNL     1      23.109   3.256  49.138  1.00  0.00     0.000 C 
HETATM   14  C21 UNL     1      22.789   4.145  50.063  1.00  0.00     0.000 C 
HETATM   15  C22 UNL     1      21.933   4.775  51.060  1.00  0.00     0.002 C 
HETATM   16  C23 UNL     1      20.752   4.628  51.580  1.00  0.00     0.030 C 
HETATM   17  H15 UNL     1      18.847  -0.066  49.130  1.00  0.00     0.162 HD
ENDROOT
BRANCH   1  18
HETATM   18  N1  UNL     1      21.248   1.966  51.474  1.00  0.00     0.116 N 
HETATM   19  H12 UNL     1      21.493   1.107  50.924  1.00  0.00     0.318 HD
BRANCH  18  20
HETATM   20  C10 UNL     1      21.498   1.826  52.871  1.00  0.00     0.249 C 
HETATM   21  C9  UNL     1      20.781   0.773  53.564  1.00  0.00     0.009 C 
HETATM   22  C8  UNL     1      20.980  -0.489  53.894  1.00  0.00    -0.002 C 
HETATM   23  C7  UNL     1      22.193  -1.284  53.592  1.00  0.00     0.000 C 
HETATM   24  C6  UNL     1      23.388  -0.827  53.233  1.00  0.00     0.007 C 
HETATM   25  C5  UNL     1      23.683   0.596  53.081  1.00  0.00    -0.049 C 
HETATM   26  C24 UNL     1      22.969   1.878  53.058  1.00  0.00     0.078 C 
BRANCH  25  27
HETATM   27  C4  UNL     1      24.984   0.770  52.923  1.00  0.00     0.156 C 
BRANCH  27  28
HETATM   28  S1  UNL     1      26.686   1.100  52.660  1.00  0.00    -0.193 SA
BRANCH  28  29
HETATM   29  C3  UNL     1      26.981   2.487  51.578  1.00  0.00     0.026 C 
HETATM   30  C2  UNL     1      26.416   2.775  50.389  1.00  0.00    -0.025 C 
HETATM   31  C1  UNL     1      26.757   3.992  49.565  1.00  0.00     0.036 C 
ENDBRANCH  28  29
ENDBRANCH  27  28
ENDBRANCH  25  27
ENDBRANCH  18  20
ENDBRANCH   1  18
TORSDOF 5
ENDMDL
MODEL 2
REMARK VINA RESULT:      -7.8      2.210      3.796
REMARK  5 active torsions:
REMARK  status: ('A' for Active; 'I' for Inactive)
REMARK    1  A    between atoms: C3_3  and  S1_4 
REMARK    2  A    between atoms: S1_4  and  C4_5 
REMARK    3  A    between atoms: C4_5  and  C5_6 
REMARK    4  A    between atoms: C10_11  and  N1_12 
REMARK    5  A    between atoms: N1_12  and  C11_13 
ROOT
HETATM    1  C11 UNL     1      22.094   5.087  50.187  1.00  0.00     0.266 A 
HETATM    2  C12 UNL     1      23.476   5.476  49.882  1.00  0.00     0.083 A 
HETATM    3  N2  UNL     1      23.813   6.708  50.029  1.00  0.00    -0.244 NA
HETATM    4  C13 UNL     1      22.848   7.672  50.502  1.00  0.00     0.229 A 
HETATM    5  N3  UNL     1      21.644   7.391  50.822  1.00  0.00    -0.254 NA
HETATM    6  C14 UNL     1      21.150   6.068  50.752  1.00  0.00     0.257 A 
HETATM    7  N4  UNL     1      19.978   5.859  49.919  1.00  0.00    -0.364 N 
HETATM    8  C15 UNL     1      20.244   4.800  49.005  1.00  0.00     0.034 C 
HETATM    9  C16 UNL     1      21.499   5.129  48.763  1.00  0.00    -0.009 C 
HETATM   10  C17 UNL     1      21.944   5.432  47.368  1.00  0.00     0.049 C 
HETATM   11  C18 UNL     1      19.665   3.641  48.340  1.00  0.00     0.029 C 
HETATM   12  C19 UNL     1      20.472   2.674  48.017  1.00  0.00     0.002 C 
HETATM   13  C20 UNL     1      21.763   2.075  47.958  1.00  0.00     0.000 C 
HETATM   14  C21 UNL     1      23.008   2.351  48.310  1.00  0.00     0.000 C 
HETATM   15  C22 UNL     1      24.078   3.158  48.881  1.00  0.00     0.002 C 
HETATM   16  C23 UNL     1      24.244   4.309  49.459  1.00  0.00     0.030 C 
HETATM   17  H15 UNL     1      19.001   6.310  49.864  1.00  0.00     0.162 HD
ENDROOT
BRANCH   1  18
HETATM   18  N1  UNL     1      21.895   3.802  50.711  1.00  0.00     0.116 N 
HETATM   19  H12 UNL     1      21.127   3.337  50.169  1.00  0.00     0.318 HD
BRANCH  18  20
HETATM   20  C10 UNL     1      21.750   3.655  52.123  1.00  0.00     0.249 C 
HETATM   21  C9  UNL     1      20.707   2.761  52.586  1.00  0.00     0.009 C 
HETATM   22  C8  UNL     1      20.592   1.492  52.931  1.00  0.00    -0.002 C 
HETATM   23  C7  UNL     1      21.684   0.491  52.933  1.00  0.00     0.000 C 
HETATM   24  C6  UNL     1      22.992   0.725  52.902  1.00  0.00     0.007 C 
HETATM   25  C5  UNL     1      23.560   2.071  52.861  1.00  0.00    -0.049 C 
HETATM   26  C24 UNL     1      23.109   3.457  52.683  1.00  0.00     0.078 C 
BRANCH  25  27
HETATM   27  C4  UNL     1      24.867   2.012  53.046  1.00  0.00     0.156 C 
BRANCH  27  28
HETATM   28  S1  UNL     1      26.608   1.867  53.197  1.00  0.00    -0.193 SA
BRANCH  28  29
HETATM   29  C3  UNL     1      27.203   0.199  52.983  1.00  0.00     0.026 C 
HETATM   30  C2  UNL     1      26.528  -0.903  52.603  1.00  0.00    -0.025 C 
HETATM   31  C1  UNL     1      27.155  -2.269  52.460  1.00  0.00     0.036 C 
ENDBRANCH  28  29
ENDBRANCH  27  28
ENDBRANCH  25  27
ENDBRANCH  18  20
ENDBRANCH   1  18
TORSDOF 5
ENDMDL
MODEL 3
REMARK VINA RESULT:      -7.5      2.040      3.959
REMARK  5 active torsions:
REMARK  status: ('A' for Active; 'I' for Inactive)
REMARK    1  A    between atoms: C3_3  and  S1_4 
REMARK    2  A    between atoms: S1_4  and  C4_5 
REMARK    3  A    between atoms: C4_5  and  C5_6 
REMARK    4  A    between atoms: C10_11  and  N1_12 
REMARK    5  A    between atoms: N1_12  and  C11_13 
ROOT
HETATM    1  C11 UNL     1      22.792   4.217  50.427  1.00  0.00     0.266 A 
HETATM    2  C12 UNL     1      23.877   4.028  49.456  1.00  0.00     0.083 A 
HETATM    3  N2  UNL     1      24.851   4.867  49.454  1.00  0.00    -0.244 NA
HETATM    4  C13 UNL     1      24.874   5.954  50.404  1.00  0.00     0.229 A 
HETATM    5  N3  UNL     1      23.984   6.151  51.298  1.00  0.00    -0.254 NA
HETATM    6  C14 UNL     1      22.878   5.281  51.444  1.00  0.00     0.257 A 
HETATM    7  N4  UNL     1      21.561   5.887  51.345  1.00  0.00    -0.364 N 
HETATM    8  C15 UNL     1      20.793   5.169  50.385  1.00  0.00     0.034 C 
HETATM    9  C16 UNL     1      21.780   4.965  49.532  1.00  0.00    -0.009 C 
HETATM   10  C17 UNL     1      21.676   5.462  48.126  1.00  0.00     0.049 C 
HETATM   11  C18 UNL     1      19.463   4.661  50.078  1.00  0.00     0.029 C 
HETATM   12  C19 UNL     1      19.388   3.595  49.338  1.00  0.00     0.002 C 
HETATM   13  C20 UNL     1      19.975   2.538  48.584  1.00  0.00     0.000 C 
HETATM   14  C21 UNL     1      21.177   2.108  48.239  1.00  0.00     0.000 C 
HETATM   15  C22 UNL     1      22.634   2.131  48.194  1.00  0.00     0.002 C 
HETATM   16  C23 UNL     1      23.623   2.842  48.645  1.00  0.00     0.030 C 
HETATM   17  H15 UNL     1      21.073   6.716  51.831  1.00  0.00     0.162 HD
ENDROOT
BRANCH   1  18
HETATM   18  N1  UNL     1      22.173   3.062  50.924  1.00  0.00     0.116 N 
HETATM   19  H12 UNL     1      21.228   2.974  50.480  1.00  0.00     0.318 HD
BRANCH  18  20
HETATM   20  C10 UNL     1      22.150   2.853  52.335  1.00  0.00     0.249 C 
HETATM   21  C9  UNL     1      20.906   2.376  52.907  1.00  0.00     0.009 C 
HETATM   22  C8  UNL     1      20.354   1.217  53.215  1.00  0.00    -0.002 C 
HETATM   23  C7  UNL     1      20.973  -0.116  53.023  1.00  0.00     0.000 C 
HETATM   24  C6  UNL     1      22.257  -0.386  52.814  1.00  0.00     0.007 C 
HETATM   25  C5  UNL     1      23.287   0.647  52.745  1.00  0.00    -0.049 C 
HETATM   26  C24 UNL     1      23.384   2.111  52.687  1.00  0.00     0.078 C 
BRANCH  25  27
HETATM   27  C4  UNL     1      24.485   0.087  52.740  1.00  0.00     0.156 C 
BRANCH  27  28
HETATM   28  S1  UNL     1      26.098  -0.595  52.827  1.00  0.00    -0.193 SA
BRANCH  28  29
HETATM   29  C3  UNL     1      27.308   0.530  53.501  1.00  0.00     0.026 C 
HETATM   30  C2  UNL     1      27.797   1.670  52.975  1.00  0.00    -0.025 C 
HETATM   31  C1  UNL     1      28.828   2.538  53.653  1.00  0.00     0.036 C 
ENDBRANCH  28  29
ENDBRANCH  27  28
ENDBRANCH  25  27
ENDBRANCH  18  20
ENDBRANCH   1  18
TORSDOF 5
ENDMDL
MODEL 4
REMARK VINA RESULT:      -7.4      2.166      4.686
REMARK  5 active torsions:
REMARK  status: ('A' for Active; 'I' for Inactive)
REMARK    1  A    between atoms: C3_3  and  S1_4 
REMARK    2  A    between atoms: S1_4  and  C4_5 
REMARK    3  A    between atoms: C4_5  and  C5_6 
REMARK    4  A    between atoms: C10_11  and  N1_12 
REMARK    5  A    between atoms: N1_12  and  C11_13 
ROOT
HETATM    1  C11 UNL     1      22.180   3.769  51.170  1.00  0.00     0.266 A 
HETATM    2  C12 UNL     1      23.070   2.603  51.223  1.00  0.00     0.083 A 
HETATM    3  N2  UNL     1      24.016   2.593  52.093  1.00  0.00    -0.244 NA
HETATM    4  C13 UNL     1      24.176   3.703  53.003  1.00  0.00     0.229 A 
HETATM    5  N3  UNL     1      23.414   4.726  53.035  1.00  0.00    -0.254 NA
HETATM    6  C14 UNL     1      22.306   4.851  52.164  1.00  0.00     0.257 A 
HETATM    7  N4  UNL     1      22.278   6.031  51.318  1.00  0.00    -0.364 N 
HETATM    8  C15 UNL     1      22.092   5.625  49.965  1.00  0.00     0.034 C 
HETATM    9  C16 UNL     1      22.861   4.554  50.028  1.00  0.00    -0.009 C 
HETATM   10  C17 UNL     1      24.036   4.416  49.113  1.00  0.00     0.049 C 
HETATM   11  C18 UNL     1      21.428   5.961  48.713  1.00  0.00     0.029 C 
HETATM   12  C19 UNL     1      21.132   4.979  47.914  1.00  0.00     0.002 C 
HETATM   13  C20 UNL     1      21.104   3.597  47.569  1.00  0.00     0.000 C 
HETATM   14  C21 UNL     1      21.484   2.436  48.075  1.00  0.00     0.000 C 
HETATM   15  C22 UNL     1      22.085   1.551  49.064  1.00  0.00     0.002 C 
HETATM   16  C23 UNL     1      22.667   1.619  50.223  1.00  0.00     0.030 C 
HETATM   17  H15 UNL     1      22.356   7.091  51.497  1.00  0.00     0.162 HD
ENDROOT
BRANCH   1  18
HETATM   18  N1  UNL     1      20.845   3.536  50.812  1.00  0.00     0.116 N 
HETATM   19  H12 UNL     1      20.579   4.218  50.060  1.00  0.00     0.318 HD
BRANCH  18  20
HETATM   20  C10 UNL     1      19.868   3.434  51.846  1.00  0.00     0.249 C 
HETATM   21  C9  UNL     1      18.477   3.441  51.438  1.00  0.00     0.009 C 
HETATM   22  C8  UNL     1      17.544   2.557  51.137  1.00  0.00    -0.002 C 
HETATM   23  C7  UNL     1      17.711   1.084  51.141  1.00  0.00     0.000 C 
HETATM   24  C6  UNL     1      18.677   0.384  51.726  1.00  0.00     0.007 C 
HETATM   25  C5  UNL     1      19.762   1.003  52.484  1.00  0.00    -0.049 C 
HETATM   26  C24 UNL     1      20.303   2.342  52.750  1.00  0.00     0.078 C 
BRANCH  25  27
HETATM   27  C4  UNL     1      20.451   0.072  53.121  1.00  0.00     0.156 C 
BRANCH  27  28
HETATM   28  S1  UNL     1      21.266  -1.218  53.985  1.00  0.00    -0.193 SA
BRANCH  28  29
HETATM   29  C3  UNL     1      22.977  -0.863  54.343  1.00  0.00     0.026 C 
HETATM   30  C2  UNL     1      23.989  -0.601  53.493  1.00  0.00    -0.025 C 
HETATM   31  C1  UNL     1      25.405  -0.314  53.929  1.00  0.00     0.036 C 
ENDBRANCH  28  29
ENDBRANCH  27  28
ENDBRANCH  25  27
ENDBRANCH  18  20
ENDBRANCH   1  18
TORSDOF 5
ENDMDL
MODEL 5
REMARK VINA RESULT:      -7.2      2.614      5.685
REMARK  5 active torsions:
REMARK  status: ('A' for Active; 'I' for Inactive)
REMARK    1  A    between atoms: C3_3  and  S1_4 
REMARK    2  A    between atoms: S1_4  and  C4_5 
REMARK    3  A    between atoms: C4_5  and  C5_6 
REMARK    4  A    between atoms: C10_11  and  N1_12 
REMARK    5  A    between atoms: N1_12  and  C11_13 
ROOT
HETATM    1  C11 UNL     1      22.206   3.824  50.821  1.00  0.00     0.266 A 
HETATM    2  C12 UNL     1      22.681   2.567  51.412  1.00  0.00     0.083 A 
HETATM    3  N2  UNL     1      23.365   2.622  52.500  1.00  0.00    -0.244 NA
HETATM    4  C13 UNL     1      23.634   3.896  53.124  1.00  0.00     0.229 A 
HETATM    5  N3  UNL     1      23.216   5.019  52.682  1.00  0.00    -0.254 NA
HETATM    6  C14 UNL     1      22.417   5.105  51.519  1.00  0.00     0.257 A 
HETATM    7  N4  UNL     1      22.923   5.942  50.446  1.00  0.00    -0.364 N 
HETATM    8  C15 UNL     1      22.934   5.190  49.237  1.00  0.00     0.034 C 
HETATM    9  C16 UNL     1      23.323   4.051  49.779  1.00  0.00    -0.009 C 
HETATM   10  C17 UNL     1      24.580   3.386  49.315  1.00  0.00     0.049 C 
HETATM   11  C18 UNL     1      22.693   5.257  47.802  1.00  0.00     0.029 C 
HETATM   12  C19 UNL     1      22.309   4.165  47.210  1.00  0.00     0.002 C 
HETATM   13  C20 UNL     1      21.957   2.785  47.213  1.00  0.00     0.000 C 
HETATM   14  C21 UNL     1      21.860   1.783  48.071  1.00  0.00     0.000 C 
HETATM   15  C22 UNL     1      21.940   1.139  49.376  1.00  0.00     0.002 C 
HETATM   16  C23 UNL     1      22.243   1.434  50.604  1.00  0.00     0.030 C 
HETATM   17  H15 UNL     1      23.265   6.963  50.381  1.00  0.00     0.162 HD
ENDROOT
BRANCH   1  18
HETATM   18  N1  UNL     1      20.976   3.786  50.149  1.00  0.00     0.116 N 
HETATM   19  H12 UNL     1      21.094   4.245  49.213  1.00  0.00     0.318 HD
BRANCH  18  20
HETATM   20  C10 UNL     1      19.806   4.219  50.841  1.00  0.00     0.249 C 
HETATM   21  C9  UNL     1      18.838   4.984  50.080  1.00  0.00     0.009 C 
HETATM   22  C8  UNL     1      17.746   4.751  49.376  1.00  0.00    -0.002 C 
HETATM   23  C7  UNL     1      17.127   3.424  49.149  1.00  0.00     0.000 C 
HETATM   24  C6  UNL     1      17.346   2.305  49.833  1.00  0.00     0.007 C 
HETATM   25  C5  UNL     1      18.273   2.228  50.959  1.00  0.00    -0.049 C 
HETATM   26  C24 UNL     1      19.297   3.056  51.608  1.00  0.00     0.078 C 
BRANCH  25  27
HETATM   27  C4  UNL     1      18.137   1.066  51.573  1.00  0.00     0.156 C 
BRANCH  27  28
HETATM   28  S1  UNL     1      18.067  -0.497  52.365  1.00  0.00    -0.193 SA
BRANCH  28  29
HETATM   29  C3  UNL     1      19.473  -0.824  53.415  1.00  0.00     0.026 C 
HETATM   30  C2  UNL     1      20.456   0.010  53.806  1.00  0.00    -0.025 C 
HETATM   31  C1  UNL     1      21.599  -0.395  54.703  1.00  0.00     0.036 C 
ENDBRANCH  28  29
ENDBRANCH  27  28
ENDBRANCH  25  27
ENDBRANCH  18  20
ENDBRANCH   1  18
TORSDOF 5
ENDMDL
MODEL 6
REMARK VINA RESULT:      -7.2      8.018     12.536
REMARK  5 active torsions:
REMARK  status: ('A' for Active; 'I' for Inactive)
REMARK    1  A    between atoms: C3_3  and  S1_4 
REMARK    2  A    between atoms: S1_4  and  C4_5 
REMARK    3  A    between atoms: C4_5  and  C5_6 
REMARK    4  A    between atoms: C10_11  and  N1_12 
REMARK    5  A    between atoms: N1_12  and  C11_13 
ROOT
HETATM    1  C11 UNL     1      31.323   8.055  47.898  1.00  0.00     0.266 A 
HETATM    2  C12 UNL     1      30.350   6.990  47.622  1.00  0.00     0.083 A 
HETATM    3  N2  UNL     1      30.488   5.863  48.225  1.00  0.00    -0.244 NA
HETATM    4  C13 UNL     1      31.569   5.669  49.163  1.00  0.00     0.229 A 
HETATM    5  N3  UNL     1      32.423   6.565  49.475  1.00  0.00    -0.254 NA
HETATM    6  C14 UNL     1      32.366   7.866  48.922  1.00  0.00     0.257 A 
HETATM    7  N4  UNL     1      33.552   8.323  48.219  1.00  0.00    -0.364 N 
HETATM    8  C15 UNL     1      33.174   8.781  46.925  1.00  0.00     0.034 C 
HETATM    9  C16 UNL     1      32.271   7.846  46.697  1.00  0.00    -0.009 C 
HETATM   10  C17 UNL     1      32.401   6.945  45.511  1.00  0.00     0.049 C 
HETATM   11  C18 UNL     1      33.426   9.798  45.913  1.00  0.00     0.029 C 
HETATM   12  C19 UNL     1      32.440  10.115  45.128  1.00  0.00     0.002 C 
HETATM   13  C20 UNL     1      31.094   9.987  44.678  1.00  0.00     0.000 C 
HETATM   14  C21 UNL     1      30.009   9.288  44.966  1.00  0.00     0.000 C 
HETATM   15  C22 UNL     1      29.217   8.303  45.691  1.00  0.00     0.002 C 
HETATM   16  C23 UNL     1      29.349   7.459  46.670  1.00  0.00     0.030 C 
HETATM   17  H15 UNL     1      34.599   8.390  48.468  1.00  0.00     0.162 HD
ENDROOT
BRANCH   1  18
HETATM   18  N1  UNL     1      30.850   9.374  47.864  1.00  0.00     0.116 N 
HETATM   19  H12 UNL     1      31.485   9.939  47.249  1.00  0.00     0.318 HD
BRANCH  18  20
HETATM   20  C10 UNL     1      30.544  10.022  49.097  1.00  0.00     0.249 C 
HETATM   21  C9  UNL     1      30.740  11.457  49.151  1.00  0.00     0.009 C 
HETATM   22  C8  UNL     1      30.021  12.548  48.958  1.00  0.00    -0.002 C 
HETATM   23  C7  UNL     1      28.590  12.588  48.576  1.00  0.00     0.000 C 
HETATM   24  C6  UNL     1      27.706  11.599  48.659  1.00  0.00     0.007 C 
HETATM   25  C5  UNL     1      28.041  10.271  49.166  1.00  0.00    -0.049 C 
HETATM   26  C24 UNL     1      29.231   9.501  49.550  1.00  0.00     0.078 C 
BRANCH  25  27
HETATM   27  C4  UNL     1      26.938   9.562  49.331  1.00  0.00     0.156 C 
BRANCH  27  28
HETATM   28  S1  UNL     1      25.533   8.555  49.625  1.00  0.00    -0.193 SA
BRANCH  28  29
HETATM   29  C3  UNL     1      25.895   6.808  49.610  1.00  0.00     0.026 C 
HETATM   30  C2  UNL     1      26.764   6.125  48.839  1.00  0.00    -0.025 C 
HETATM   31  C1  UNL     1      26.977   4.634  48.927  1.00  0.00     0.036 C 
ENDBRANCH  28  29
ENDBRANCH  27  28
ENDBRANCH  25  27
ENDBRANCH  18  20
ENDBRANCH   1  18
TORSDOF 5
ENDMDL
MODEL 7
REMARK VINA RESULT:      -7.2      2.221      3.932
REMARK  5 active torsions:
REMARK  status: ('A' for Active; 'I' for Inactive)
REMARK    1  A    between atoms: C3_3  and  S1_4 
REMARK    2  A    between atoms: S1_4  and  C4_5 
REMARK    3  A    between atoms: C4_5  and  C5_6 
REMARK    4  A    between atoms: C10_11  and  N1_12 
REMARK    5  A    between atoms: N1_12  and  C11_13 
ROOT
HETATM    1  C11 UNL     1      21.057   5.194  50.080  1.00  0.00     0.266 A 
HETATM    2  C12 UNL     1      21.849   6.111  50.910  1.00  0.00     0.083 A 
HETATM    3  N2  UNL     1      21.539   7.359  50.911  1.00  0.00    -0.244 NA
HETATM    4  C13 UNL     1      20.425   7.830  50.123  1.00  0.00     0.229 A 
HETATM    5  N3  UNL     1      19.674   7.081  49.413  1.00  0.00    -0.254 NA
HETATM    6  C14 UNL     1      19.871   5.681  49.352  1.00  0.00     0.257 A 
HETATM    7  N4  UNL     1      20.085   5.114  48.032  1.00  0.00    -0.364 N 
HETATM    8  C15 UNL     1      21.272   4.327  48.054  1.00  0.00     0.034 C 
HETATM    9  C16 UNL     1      21.967   5.134  48.833  1.00  0.00    -0.009 C 
HETATM   10  C17 UNL     1      23.262   5.711  48.358  1.00  0.00     0.049 C 
HETATM   11  C18 UNL     1      21.884   3.100  47.563  1.00  0.00     0.029 C 
HETATM   12  C19 UNL     1      22.799   2.552  48.306  1.00  0.00     0.002 C 
HETATM   13  C20 UNL     1      23.615   2.503  49.473  1.00  0.00     0.000 C 
HETATM   14  C21 UNL     1      23.821   3.204  50.575  1.00  0.00     0.000 C 
HETATM   15  C22 UNL     1      23.614   4.304  51.508  1.00  0.00     0.002 C 
HETATM   16  C23 UNL     1      22.885   5.373  51.625  1.00  0.00     0.030 C 
HETATM   17  H15 UNL     1      19.552   5.158  47.096  1.00  0.00     0.162 HD
ENDROOT
BRANCH   1  18
HETATM   18  N1  UNL     1      20.881   3.890  50.562  1.00  0.00     0.116 N 
HETATM   19  H12 UNL     1      20.917   3.228  49.749  1.00  0.00     0.318 HD
BRANCH  18  20
HETATM   20  C10 UNL     1      19.794   3.630  51.448  1.00  0.00     0.249 C 
HETATM   21  C9  UNL     1      18.522   3.288  50.842  1.00  0.00     0.009 C 
HETATM   22  C8  UNL     1      17.868   2.193  50.497  1.00  0.00    -0.002 C 
HETATM   23  C7  UNL     1      18.351   0.803  50.673  1.00  0.00     0.000 C 
HETATM   24  C6  UNL     1      19.337   0.386  51.460  1.00  0.00     0.007 C 
HETATM   25  C5  UNL     1      20.119   1.287  52.303  1.00  0.00    -0.049 C 
HETATM   26  C24 UNL     1      20.302   2.729  52.510  1.00  0.00     0.078 C 
BRANCH  25  27
HETATM   27  C4  UNL     1      20.881   0.584  53.124  1.00  0.00     0.156 C 
BRANCH  27  28
HETATM   28  S1  UNL     1      21.938  -0.398  54.119  1.00  0.00    -0.193 SA
BRANCH  28  29
HETATM   29  C3  UNL     1      23.637  -0.392  53.573  1.00  0.00     0.026 C 
HETATM   30  C2  UNL     1      24.306   0.555  52.885  1.00  0.00    -0.025 C 
HETATM   31  C1  UNL     1      25.755   0.437  52.480  1.00  0.00     0.036 C 
ENDBRANCH  28  29
ENDBRANCH  27  28
ENDBRANCH  25  27
ENDBRANCH  18  20
ENDBRANCH   1  18
TORSDOF 5
ENDMDL
MODEL 8
REMARK VINA RESULT:      -6.9      2.735      5.863
REMARK  5 active torsions:
REMARK  status: ('A' for Active; 'I' for Inactive)
REMARK    1  A    between atoms: C3_3  and  S1_4 
REMARK    2  A    between atoms: S1_4  and  C4_5 
REMARK    3  A    between atoms: C4_5  and  C5_6 
REMARK    4  A    between atoms: C10_11  and  N1_12 
REMARK    5  A    between atoms: N1_12  and  C11_13 
ROOT
HETATM    1  C11 UNL     1      24.146   2.770  51.412  1.00  0.00     0.266 A 
HETATM    2  C12 UNL     1      24.859   2.671  50.132  1.00  0.00     0.083 A 
HETATM    3  N2  UNL     1      26.142   2.592  50.151  1.00  0.00    -0.244 NA
HETATM    4  C13 UNL     1      26.851   2.582  51.409  1.00  0.00     0.229 A 
HETATM    5  N3  UNL     1      26.289   2.625  52.554  1.00  0.00    -0.254 NA
HETATM    6  C14 UNL     1      24.881   2.670  52.686  1.00  0.00     0.257 A 
HETATM    7  N4  UNL     1      24.337   3.794  53.427  1.00  0.00    -0.364 N 
HETATM    8  C15 UNL     1      23.336   4.427  52.636  1.00  0.00     0.034 C 
HETATM    9  C16 UNL     1      23.962   4.301  51.481  1.00  0.00    -0.009 C 
HETATM   10  C17 UNL     1      24.296   5.511  50.668  1.00  0.00     0.049 C 
HETATM   11  C18 UNL     1      22.034   5.079  52.680  1.00  0.00     0.029 C 
HETATM   12  C19 UNL     1      21.291   4.998  51.617  1.00  0.00     0.002 C 
HETATM   13  C20 UNL     1      21.038   4.564  50.283  1.00  0.00     0.000 C 
HETATM   14  C21 UNL     1      21.642   3.877  49.328  1.00  0.00     0.000 C 
HETATM   15  C22 UNL     1      22.723   3.110  48.724  1.00  0.00     0.002 C 
HETATM   16  C23 UNL     1      23.907   2.669  49.027  1.00  0.00     0.030 C 
HETATM   17  H15 UNL     1      24.520   4.217  54.402  1.00  0.00     0.162 HD
ENDROOT
BRANCH   1  18
HETATM   18  N1  UNL     1      22.882   2.168  51.485  1.00  0.00     0.116 N 
HETATM   19  H12 UNL     1      22.325   2.655  52.228  1.00  0.00     0.318 HD
BRANCH  18  20
HETATM   20  C10 UNL     1      22.807   0.746  51.571  1.00  0.00     0.249 C 
HETATM   21  C9  UNL     1      23.328   0.133  52.777  1.00  0.00     0.009 C 
HETATM   22  C8  UNL     1      22.867  -0.256  53.951  1.00  0.00    -0.002 C 
HETATM   23  C7  UNL     1      21.462  -0.148  54.411  1.00  0.00     0.000 C 
HETATM   24  C6  UNL     1      20.382   0.052  53.663  1.00  0.00     0.007 C 
HETATM   25  C5  UNL     1      20.435   0.200  52.210  1.00  0.00    -0.049 C 
HETATM   26  C24 UNL     1      21.439   0.356  51.150  1.00  0.00     0.078 C 
BRANCH  25  27
HETATM   27  C4  UNL     1      19.211   0.178  51.712  1.00  0.00     0.156 C 
BRANCH  27  28
HETATM   28  S1  UNL     1      17.561   0.237  51.123  1.00  0.00    -0.193 SA
BRANCH  28  29
HETATM   29  C3  UNL     1      16.961   1.896  50.858  1.00  0.00     0.026 C 
HETATM   30  C2  UNL     1      17.436   3.060  51.340  1.00  0.00    -0.025 C 
HETATM   31  C1  UNL     1      16.830   4.409  51.038  1.00  0.00     0.036 C 
ENDBRANCH  28  29
ENDBRANCH  27  28
ENDBRANCH  25  27
ENDBRANCH  18  20
ENDBRANCH   1  18
TORSDOF 5
ENDMDL
MODEL 9
REMARK VINA RESULT:      -6.7      2.309      4.583
REMARK  5 active torsions:
REMARK  status: ('A' for Active; 'I' for Inactive)
REMARK    1  A    between atoms: C3_3  and  S1_4 
REMARK    2  A    between atoms: S1_4  and  C4_5 
REMARK    3  A    between atoms: C4_5  and  C5_6 
REMARK    4  A    between atoms: C10_11  and  N1_12 
REMARK    5  A    between atoms: N1_12  and  C11_13 
ROOT
HETATM    1  C11 UNL     1      21.905   3.792  49.365  1.00  0.00     0.266 A 
HETATM    2  C12 UNL     1      20.778   3.775  50.305  1.00  0.00     0.083 A 
HETATM    3  N2  UNL     1      19.695   3.178  49.952  1.00  0.00    -0.244 NA
HETATM    4  C13 UNL     1      19.610   2.529  48.665  1.00  0.00     0.229 A 
HETATM    5  N3  UNL     1      20.566   2.474  47.820  1.00  0.00    -0.254 NA
HETATM    6  C14 UNL     1      21.829   3.049  48.093  1.00  0.00     0.257 A 
HETATM    7  N4  UNL     1      22.307   4.041  47.146  1.00  0.00    -0.364 N 
HETATM    8  C15 UNL     1      22.672   5.220  47.856  1.00  0.00     0.034 C 
HETATM    9  C16 UNL     1      21.679   5.179  48.726  1.00  0.00    -0.009 C 
HETATM   10  C17 UNL     1      20.722   6.323  48.831  1.00  0.00     0.049 C 
HETATM   11  C18 UNL     1      23.642   6.305  47.924  1.00  0.00     0.029 C 
HETATM   12  C19 UNL     1      23.862   6.834  49.091  1.00  0.00     0.002 C 
HETATM   13  C20 UNL     1      23.640   6.933  50.495  1.00  0.00     0.000 C 
HETATM   14  C21 UNL     1      22.902   6.358  51.430  1.00  0.00     0.000 C 
HETATM   15  C22 UNL     1      21.920   5.420  51.956  1.00  0.00     0.002 C 
HETATM   16  C23 UNL     1      21.140   4.469  51.536  1.00  0.00     0.030 C 
HETATM   17  H15 UNL     1      22.442   4.061  46.077  1.00  0.00     0.162 HD
ENDROOT
BRANCH   1  18
HETATM   18  N1  UNL     1      23.194   3.763  49.915  1.00  0.00     0.116 N 
HETATM   19  H12 UNL     1      23.756   4.538  49.486  1.00  0.00     0.318 HD
BRANCH  18  20
HETATM   20  C10 UNL     1      23.893   2.520  49.953  1.00  0.00     0.249 C 
HETATM   21  C9  UNL     1      25.331   2.581  50.127  1.00  0.00     0.009 C 
HETATM   22  C8  UNL     1      26.196   2.542  51.124  1.00  0.00    -0.002 C 
HETATM   23  C7  UNL     1      25.858   2.402  52.560  1.00  0.00     0.000 C 
HETATM   24  C6  UNL     1      24.709   1.987  53.081  1.00  0.00     0.007 C 
HETATM   25  C5  UNL     1      23.562   1.590  52.267  1.00  0.00    -0.049 C 
HETATM   26  C24 UNL     1      23.139   1.623  50.862  1.00  0.00     0.078 C 
BRANCH  25  27
HETATM   27  C4  UNL     1      22.641   1.030  53.032  1.00  0.00     0.156 C 
BRANCH  27  28
HETATM   28  S1  UNL     1      21.443   0.187  53.995  1.00  0.00    -0.193 SA
BRANCH  28  29
HETATM   29  C3  UNL     1      19.991  -0.281  53.070  1.00  0.00     0.026 C 
HETATM   30  C2  UNL     1      19.398   0.351  52.038  1.00  0.00    -0.025 C 
HETATM   31  C1  UNL     1      18.161  -0.155  51.337  1.00  0.00     0.036 C 
ENDBRANCH  28  29
ENDBRANCH  27  28
ENDBRANCH  25  27
ENDBRANCH  18  20
ENDBRANCH   1  18
TORSDOF 5
ENDMDL
