MODEL 1
REMARK VINA RESULT:      -9.3      0.000      0.000
REMARK  2 active torsions:
REMARK  status: ('A' for Active; 'I' for Inactive)
REMARK    1  A    between atoms: C4_7  and  C5_8 
REMARK    2  A    between atoms: C10_14  and  C11_15 
ROOT
HETATM    1  O1  UNL     1      23.773   5.429  48.237  1.00  0.00    -0.253 OA
HETATM    2  S1  UNL     1      24.448   5.901  49.522  1.00  0.00     0.043 S 
HETATM    3  C1  UNL     1      24.040   4.725  50.775  1.00  0.00     0.089 C 
HETATM    4  C2  UNL     1      24.668   3.737  51.374  1.00  0.00    -0.006 C 
HETATM    5  C3  UNL     1      23.639   3.263  52.280  1.00  0.00     0.127 C 
HETATM    6  N1  UNL     1      23.647   2.189  52.994  1.00  0.00    -0.257 NA
HETATM    7  C4  UNL     1      24.658   1.176  53.091  1.00  0.00     0.094 C 
HETATM    8  C10 UNL     1      25.833   1.052  52.503  1.00  0.00     0.069 C 
HETATM    9  N3  UNL     1      26.368   1.983  51.564  1.00  0.00    -0.375 N 
HETATM   10  C17 UNL     1      26.042   3.308  51.121  1.00  0.00     0.140 C 
HETATM   11  C18 UNL     1      26.432   3.406  49.670  1.00  0.00    -0.000 C 
HETATM   12  C19 UNL     1      26.537   4.419  48.815  1.00  0.00    -0.016 C 
HETATM   13  C20 UNL     1      26.231   5.815  49.265  1.00  0.00     0.140 C 
HETATM   14  H11 UNL     1      27.227   1.612  51.062  1.00  0.00     0.160 HD
ENDROOT
BRANCH   8  15
HETATM   15  C11 UNL     1      26.743  -0.075  52.747  1.00  0.00    -0.007 A 
HETATM   16  C12 UNL     1      27.923   0.120  53.440  1.00  0.00     0.017 A 
HETATM   17  C13 UNL     1      28.852  -0.874  53.727  1.00  0.00     0.043 A 
HETATM   18  C14 UNL     1      28.574  -2.156  53.290  1.00  0.00     0.116 A 
HETATM   19  F1  UNL     1      29.464  -3.149  53.557  1.00  0.00    -0.206 F 
HETATM   20  C15 UNL     1      27.420  -2.389  52.603  1.00  0.00     0.043 A 
HETATM   21  C16 UNL     1      26.485  -1.386  52.313  1.00  0.00     0.017 A 
ENDBRANCH   8  15
BRANCH   7  22
HETATM   22  C5  UNL     1      24.218   0.089  53.954  1.00  0.00    -0.002 A 
HETATM   23  C6  UNL     1      24.799  -0.521  55.048  1.00  0.00     0.033 A 
HETATM   24  C7  UNL     1      24.083  -1.533  55.695  1.00  0.00     0.117 A 
HETATM   25  N2  UNL     1      22.875  -1.904  55.272  1.00  0.00    -0.273 NA
HETATM   26  C8  UNL     1      22.254  -1.364  54.230  1.00  0.00     0.117 A 
HETATM   27  C9  UNL     1      22.943  -0.344  53.557  1.00  0.00     0.033 A 
ENDBRANCH   7  22
TORSDOF 2
ENDMDL
MODEL 2
REMARK VINA RESULT:      -9.0      2.241      4.232
REMARK  2 active torsions:
REMARK  status: ('A' for Active; 'I' for Inactive)
REMARK    1  A    between atoms: C4_7  and  C5_8 
REMARK    2  A    between atoms: C10_14  and  C11_15 
ROOT
HETATM    1  O1  UNL     1      25.383   7.674  50.553  1.00  0.00    -0.253 OA
HETATM    2  S1  UNL     1      24.956   6.681  49.476  1.00  0.00     0.043 S 
HETATM    3  C1  UNL     1      25.718   5.138  49.874  1.00  0.00     0.089 C 
HETATM    4  C2  UNL     1      25.316   4.003  50.403  1.00  0.00    -0.006 C 
HETATM    5  C3  UNL     1      26.549   3.240  50.391  1.00  0.00     0.127 C 
HETATM    6  N1  UNL     1      26.784   2.105  50.958  1.00  0.00    -0.257 NA
HETATM    7  C4  UNL     1      25.905   1.292  51.750  1.00  0.00     0.094 C 
HETATM    8  C10 UNL     1      24.648   1.460  52.113  1.00  0.00     0.069 C 
HETATM    9  N3  UNL     1      23.850   2.589  51.764  1.00  0.00    -0.375 N 
HETATM   10  C17 UNL     1      23.961   3.693  50.855  1.00  0.00     0.140 C 
HETATM   11  C18 UNL     1      23.267   4.869  51.488  1.00  0.00    -0.000 C 
HETATM   12  C19 UNL     1      22.898   6.066  51.041  1.00  0.00    -0.016 C 
HETATM   13  C20 UNL     1      23.173   6.453  49.620  1.00  0.00     0.140 C 
HETATM   14  H11 UNL     1      22.939   2.632  52.309  1.00  0.00     0.160 HD
ENDROOT
BRANCH   8  15
HETATM   15  C11 UNL     1      23.909   0.490  52.932  1.00  0.00    -0.007 A 
HETATM   16  C12 UNL     1      22.707  -0.026  52.486  1.00  0.00     0.017 A 
HETATM   17  C13 UNL     1      21.929  -0.949  53.178  1.00  0.00     0.043 A 
HETATM   18  C14 UNL     1      22.394  -1.386  54.405  1.00  0.00     0.116 A 
HETATM   19  F1  UNL     1      21.656  -2.288  55.104  1.00  0.00    -0.206 F 
HETATM   20  C15 UNL     1      23.576  -0.901  54.879  1.00  0.00     0.043 A 
HETATM   21  C16 UNL     1      24.358   0.030  54.181  1.00  0.00     0.017 A 
ENDBRANCH   8  15
BRANCH   7  22
HETATM   22  C5  UNL     1      26.608   0.127  52.267  1.00  0.00    -0.002 A 
HETATM   23  C6  UNL     1      26.455  -1.226  52.041  1.00  0.00     0.033 A 
HETATM   24  C7  UNL     1      27.336  -2.105  52.678  1.00  0.00     0.117 A 
HETATM   25  N2  UNL     1      28.298  -1.655  53.483  1.00  0.00    -0.273 NA
HETATM   26  C8  UNL     1      28.506  -0.371  53.748  1.00  0.00     0.117 A 
HETATM   27  C9  UNL     1      27.640   0.540  53.125  1.00  0.00     0.033 A 
ENDBRANCH   7  22
TORSDOF 2
ENDMDL
MODEL 3
REMARK VINA RESULT:      -8.8      4.189      7.408
REMARK  2 active torsions:
REMARK  status: ('A' for Active; 'I' for Inactive)
REMARK    1  A    between atoms: C4_7  and  C5_8 
REMARK    2  A    between atoms: C10_14  and  C11_15 
ROOT
HETATM    1  O1  UNL     1      26.338  -0.176  55.233  1.00  0.00    -0.253 OA
HETATM    2  S1  UNL     1      26.625  -0.615  53.800  1.00  0.00     0.043 S 
HETATM    3  C1  UNL     1      25.502   0.268  52.761  1.00  0.00     0.089 C 
HETATM    4  C2  UNL     1      25.587   1.302  51.953  1.00  0.00    -0.006 C 
HETATM    5  C3  UNL     1      24.220   1.397  51.479  1.00  0.00     0.127 C 
HETATM    6  N1  UNL     1      23.685   2.349  50.790  1.00  0.00    -0.257 NA
HETATM    7  C4  UNL     1      24.283   3.561  50.308  1.00  0.00     0.094 C 
HETATM    8  C10 UNL     1      25.507   4.038  50.422  1.00  0.00     0.069 C 
HETATM    9  N3  UNL     1      26.568   3.386  51.117  1.00  0.00    -0.375 N 
HETATM   10  C17 UNL     1      26.791   2.083  51.676  1.00  0.00     0.140 C 
HETATM   11  C18 UNL     1      27.673   2.257  52.883  1.00  0.00    -0.000 C 
HETATM   12  C19 UNL     1      28.341   1.409  53.660  1.00  0.00    -0.016 C 
HETATM   13  C20 UNL     1      28.290  -0.062  53.383  1.00  0.00     0.140 C 
HETATM   14  H11 UNL     1      27.412   4.014  51.262  1.00  0.00     0.160 HD
ENDROOT
BRANCH   8  15
HETATM   15  C11 UNL     1      25.931   5.318  49.838  1.00  0.00    -0.007 A 
HETATM   16  C12 UNL     1      26.813   5.340  48.774  1.00  0.00     0.017 A 
HETATM   17  C13 UNL     1      27.277   6.491  48.147  1.00  0.00     0.043 A 
HETATM   18  C14 UNL     1      26.819   7.708  48.620  1.00  0.00     0.116 A 
HETATM   19  F1  UNL     1      27.254   8.850  48.026  1.00  0.00    -0.206 F 
HETATM   20  C15 UNL     1      25.948   7.728  49.668  1.00  0.00     0.043 A 
HETATM   21  C16 UNL     1      25.483   6.567  50.300  1.00  0.00     0.017 A 
ENDBRANCH   8  15
BRANCH   7  22
HETATM   22  C5  UNL     1      23.291   4.395  49.645  1.00  0.00    -0.002 A 
HETATM   23  C6  UNL     1      23.077   4.704  48.317  1.00  0.00     0.033 A 
HETATM   24  C7  UNL     1      21.990   5.524  47.998  1.00  0.00     0.117 A 
HETATM   25  N2  UNL     1      21.180   5.998  48.945  1.00  0.00    -0.273 NA
HETATM   26  C8  UNL     1      21.324   5.744  50.241  1.00  0.00     0.117 A 
HETATM   27  C9  UNL     1      22.404   4.923  50.597  1.00  0.00     0.033 A 
ENDBRANCH   7  22
TORSDOF 2
ENDMDL
MODEL 4
REMARK VINA RESULT:      -8.4      4.253      6.895
REMARK  2 active torsions:
REMARK  status: ('A' for Active; 'I' for Inactive)
REMARK    1  A    between atoms: C4_7  and  C5_8 
REMARK    2  A    between atoms: C10_14  and  C11_15 
ROOT
HETATM    1  O1  UNL     1      28.057  -0.134  55.637  1.00  0.00    -0.253 OA
HETATM    2  S1  UNL     1      28.183  -0.497  54.160  1.00  0.00     0.043 S 
HETATM    3  C1  UNL     1      26.626  -0.129  53.409  1.00  0.00     0.089 C 
HETATM    4  C2  UNL     1      26.160   0.831  52.641  1.00  0.00    -0.006 C 
HETATM    5  C3  UNL     1      24.786   0.402  52.464  1.00  0.00     0.127 C 
HETATM    6  N1  UNL     1      23.812   1.063  51.937  1.00  0.00    -0.257 NA
HETATM    7  C4  UNL     1      23.812   2.389  51.388  1.00  0.00     0.094 C 
HETATM    8  C10 UNL     1      24.773   3.284  51.263  1.00  0.00     0.069 C 
HETATM    9  N3  UNL     1      26.118   3.093  51.699  1.00  0.00    -0.375 N 
HETATM   10  C17 UNL     1      26.911   1.985  52.150  1.00  0.00     0.140 C 
HETATM   11  C18 UNL     1      27.897   2.518  53.155  1.00  0.00    -0.000 C 
HETATM   12  C19 UNL     1      28.973   2.005  53.745  1.00  0.00    -0.016 C 
HETATM   13  C20 UNL     1      29.406   0.606  53.429  1.00  0.00     0.140 C 
HETATM   14  H11 UNL     1      26.685   3.990  51.690  1.00  0.00     0.160 HD
ENDROOT
BRANCH   8  15
HETATM   15  C11 UNL     1      24.571   4.605  50.653  1.00  0.00    -0.007 A 
HETATM   16  C12 UNL     1      24.082   5.654  51.408  1.00  0.00     0.017 A 
HETATM   17  C13 UNL     1      23.856   6.941  50.933  1.00  0.00     0.043 A 
HETATM   18  C14 UNL     1      24.143   7.193  49.603  1.00  0.00     0.116 A 
HETATM   19  F1  UNL     1      23.934   8.442  49.111  1.00  0.00    -0.206 F 
HETATM   20  C15 UNL     1      24.628   6.184  48.826  1.00  0.00     0.043 A 
HETATM   21  C16 UNL     1      24.855   4.887  49.306  1.00  0.00     0.017 A 
ENDBRANCH   8  15
BRANCH   7  22
HETATM   22  C5  UNL     1      22.471   2.776  50.976  1.00  0.00    -0.002 A 
HETATM   23  C6  UNL     1      21.866   2.854  49.737  1.00  0.00     0.033 A 
HETATM   24  C7  UNL     1      20.522   3.233  49.683  1.00  0.00     0.117 A 
HETATM   25  N2  UNL     1      19.837   3.513  50.792  1.00  0.00    -0.273 NA
HETATM   26  C8  UNL     1      20.351   3.461  52.015  1.00  0.00     0.117 A 
HETATM   27  C9  UNL     1      21.699   3.083  52.108  1.00  0.00     0.033 A 
ENDBRANCH   7  22
TORSDOF 2
ENDMDL
MODEL 5
REMARK VINA RESULT:      -8.4      2.223      2.962
REMARK  2 active torsions:
REMARK  status: ('A' for Active; 'I' for Inactive)
REMARK    1  A    between atoms: C4_7  and  C5_8 
REMARK    2  A    between atoms: C10_14  and  C11_15 
ROOT
HETATM    1  O1  UNL     1      24.648   7.560  46.478  1.00  0.00    -0.253 OA
HETATM    2  S1  UNL     1      24.583   8.048  47.922  1.00  0.00     0.043 S 
HETATM    3  C1  UNL     1      23.759   6.791  48.850  1.00  0.00     0.089 C 
HETATM    4  C2  UNL     1      24.131   5.850  49.689  1.00  0.00    -0.006 C 
HETATM    5  C3  UNL     1      22.854   5.241  50.007  1.00  0.00     0.127 C 
HETATM    6  N1  UNL     1      22.638   4.147  50.655  1.00  0.00    -0.257 NA
HETATM    7  C4  UNL     1      23.585   3.237  51.234  1.00  0.00     0.094 C 
HETATM    8  C10 UNL     1      24.903   3.254  51.273  1.00  0.00     0.069 C 
HETATM    9  N3  UNL     1      25.716   4.269  50.685  1.00  0.00    -0.375 N 
HETATM   10  C17 UNL     1      25.499   5.570  50.122  1.00  0.00     0.140 C 
HETATM   11  C18 UNL     1      26.515   5.761  49.027  1.00  0.00    -0.000 C 
HETATM   12  C19 UNL     1      26.902   6.811  48.309  1.00  0.00    -0.016 C 
HETATM   13  C20 UNL     1      26.274   8.151  48.540  1.00  0.00     0.140 C 
HETATM   14  H11 UNL     1      26.744   4.005  50.654  1.00  0.00     0.160 HD
ENDROOT
BRANCH   8  15
HETATM   15  C11 UNL     1      25.704   2.216  51.934  1.00  0.00    -0.007 A 
HETATM   16  C12 UNL     1      26.139   2.394  53.234  1.00  0.00     0.017 A 
HETATM   17  C13 UNL     1      26.898   1.478  53.953  1.00  0.00     0.043 A 
HETATM   18  C14 UNL     1      27.243   0.296  53.323  1.00  0.00     0.116 A 
HETATM   19  F1  UNL     1      27.984  -0.620  54.001  1.00  0.00    -0.206 F 
HETATM   20  C15 UNL     1      26.833   0.082  52.041  1.00  0.00     0.043 A 
HETATM   21  C16 UNL     1      26.068   1.007  51.317  1.00  0.00     0.017 A 
ENDBRANCH   8  15
BRANCH   7  22
HETATM   22  C5  UNL     1      22.907   2.081  51.802  1.00  0.00    -0.002 A 
HETATM   23  C6  UNL     1      22.784   1.621  53.098  1.00  0.00     0.033 A 
HETATM   24  C7  UNL     1      22.017   0.473  53.319  1.00  0.00     0.117 A 
HETATM   25  N2  UNL     1      21.420  -0.164  52.313  1.00  0.00    -0.273 NA
HETATM   26  C8  UNL     1      21.494   0.217  51.043  1.00  0.00     0.117 A 
HETATM   27  C9  UNL     1      22.255   1.367  50.784  1.00  0.00     0.033 A 
ENDBRANCH   7  22
TORSDOF 2
ENDMDL
MODEL 6
REMARK VINA RESULT:      -8.2      4.576      7.455
REMARK  2 active torsions:
REMARK  status: ('A' for Active; 'I' for Inactive)
REMARK    1  A    between atoms: C4_7  and  C5_8 
REMARK    2  A    between atoms: C10_14  and  C11_15 
ROOT
HETATM    1  O1  UNL     1      28.594  -0.623  53.076  1.00  0.00    -0.253 OA
HETATM    2  S1  UNL     1      28.145   0.710  53.668  1.00  0.00     0.043 S 
HETATM    3  C1  UNL     1      27.303   1.582  52.382  1.00  0.00     0.089 C 
HETATM    4  C2  UNL     1      26.047   1.836  52.088  1.00  0.00    -0.006 C 
HETATM    5  C3  UNL     1      26.198   2.610  50.871  1.00  0.00     0.127 C 
HETATM    6  N1  UNL     1      25.276   2.977  50.047  1.00  0.00    -0.257 NA
HETATM    7  C4  UNL     1      23.865   2.726  50.099  1.00  0.00     0.094 C 
HETATM    8  C10 UNL     1      23.125   2.072  50.974  1.00  0.00     0.069 C 
HETATM    9  N3  UNL     1      23.633   1.423  52.138  1.00  0.00    -0.375 N 
HETATM   10  C17 UNL     1      24.878   1.403  52.850  1.00  0.00     0.140 C 
HETATM   11  C18 UNL     1      25.035   0.027  53.442  1.00  0.00    -0.000 C 
HETATM   12  C19 UNL     1      25.873  -0.497  54.332  1.00  0.00    -0.016 C 
HETATM   13  C20 UNL     1      26.935   0.355  54.957  1.00  0.00     0.140 C 
HETATM   14  H11 UNL     1      22.915   0.793  52.604  1.00  0.00     0.160 HD
ENDROOT
BRANCH   8  15
HETATM   15  C11 UNL     1      21.667   1.932  50.853  1.00  0.00    -0.007 A 
HETATM   16  C12 UNL     1      20.830   2.924  51.327  1.00  0.00     0.017 A 
HETATM   17  C13 UNL     1      19.442   2.895  51.261  1.00  0.00     0.043 A 
HETATM   18  C14 UNL     1      18.851   1.790  50.675  1.00  0.00     0.116 A 
HETATM   19  F1  UNL     1      17.495   1.733  50.595  1.00  0.00    -0.206 F 
HETATM   20  C15 UNL     1      19.643   0.790  50.194  1.00  0.00     0.043 A 
HETATM   21  C16 UNL     1      21.042   0.821  50.262  1.00  0.00     0.017 A 
ENDBRANCH   8  15
BRANCH   7  22
HETATM   22  C5  UNL     1      23.204   3.253  48.914  1.00  0.00    -0.002 A 
HETATM   23  C6  UNL     1      22.576   2.636  47.850  1.00  0.00     0.033 A 
HETATM   24  C7  UNL     1      21.995   3.445  46.870  1.00  0.00     0.117 A 
HETATM   25  N2  UNL     1      22.042   4.775  46.953  1.00  0.00    -0.273 NA
HETATM   26  C8  UNL     1      22.626   5.437  47.945  1.00  0.00     0.117 A 
HETATM   27  C9  UNL     1      23.220   4.656  48.948  1.00  0.00     0.033 A 
ENDBRANCH   7  22
TORSDOF 2
ENDMDL
MODEL 7
REMARK VINA RESULT:      -8.0      4.516      7.263
REMARK  2 active torsions:
REMARK  status: ('A' for Active; 'I' for Inactive)
REMARK    1  A    between atoms: C4_7  and  C5_8 
REMARK    2  A    between atoms: C10_14  and  C11_15 
ROOT
HETATM    1  O1  UNL     1      18.016  -3.321  52.876  1.00  0.00    -0.253 OA
HETATM    2  S1  UNL     1      17.954  -2.124  53.820  1.00  0.00     0.043 S 
HETATM    3  C1  UNL     1      19.612  -1.548  54.022  1.00  0.00     0.089 C 
HETATM    4  C2  UNL     1      20.317  -0.539  53.560  1.00  0.00    -0.006 C 
HETATM    5  C3  UNL     1      21.596  -0.776  54.202  1.00  0.00     0.127 C 
HETATM    6  N1  UNL     1      22.720  -0.188  53.969  1.00  0.00    -0.257 NA
HETATM    7  C4  UNL     1      23.018   0.849  53.024  1.00  0.00     0.094 C 
HETATM    8  C10 UNL     1      22.258   1.482  52.150  1.00  0.00     0.069 C 
HETATM    9  N3  UNL     1      20.868   1.227  51.954  1.00  0.00    -0.375 N 
HETATM   10  C17 UNL     1      19.844   0.495  52.642  1.00  0.00     0.140 C 
HETATM   11  C18 UNL     1      18.891  -0.030  51.601  1.00  0.00    -0.000 C 
HETATM   12  C19 UNL     1      17.690  -0.598  51.661  1.00  0.00    -0.016 C 
HETATM   13  C20 UNL     1      17.030  -0.819  52.988  1.00  0.00     0.140 C 
HETATM   14  H11 UNL     1      20.484   1.695  51.081  1.00  0.00     0.160 HD
ENDROOT
BRANCH   8  15
HETATM   15  C11 UNL     1      22.759   2.539  51.262  1.00  0.00    -0.007 A 
HETATM   16  C12 UNL     1      23.323   2.216  50.043  1.00  0.00     0.017 A 
HETATM   17  C13 UNL     1      23.825   3.134  49.127  1.00  0.00     0.043 A 
HETATM   18  C14 UNL     1      23.753   4.475  49.460  1.00  0.00     0.116 A 
HETATM   19  F1  UNL     1      24.235   5.397  48.585  1.00  0.00    -0.206 F 
HETATM   20  C15 UNL     1      23.203   4.835  50.654  1.00  0.00     0.043 A 
HETATM   21  C16 UNL     1      22.699   3.908  51.576  1.00  0.00     0.017 A 
ENDBRANCH   8  15
BRANCH   7  22
HETATM   22  C5  UNL     1      24.439   1.162  53.034  1.00  0.00    -0.002 A 
HETATM   23  C6  UNL     1      25.147   2.248  53.511  1.00  0.00     0.033 A 
HETATM   24  C7  UNL     1      26.540   2.227  53.400  1.00  0.00     0.117 A 
HETATM   25  N2  UNL     1      27.174   1.192  52.850  1.00  0.00    -0.273 NA
HETATM   26  C8  UNL     1      26.562   0.115  52.370  1.00  0.00     0.117 A 
HETATM   27  C9  UNL     1      25.162   0.102  52.466  1.00  0.00     0.033 A 
ENDBRANCH   7  22
TORSDOF 2
ENDMDL
MODEL 8
REMARK VINA RESULT:      -7.8      4.519      6.751
REMARK  2 active torsions:
REMARK  status: ('A' for Active; 'I' for Inactive)
REMARK    1  A    between atoms: C4_7  and  C5_8 
REMARK    2  A    between atoms: C10_14  and  C11_15 
ROOT
HETATM    1  O1  UNL     1      27.607   0.616  55.727  1.00  0.00    -0.253 OA
HETATM    2  S1  UNL     1      27.571  -0.273  54.487  1.00  0.00     0.043 S 
HETATM    3  C1  UNL     1      25.909  -0.248  53.889  1.00  0.00     0.089 C 
HETATM    4  C2  UNL     1      25.279   0.342  52.898  1.00  0.00    -0.006 C 
HETATM    5  C3  UNL     1      23.929  -0.152  53.094  1.00  0.00     0.127 C 
HETATM    6  N1  UNL     1      22.849   0.242  52.509  1.00  0.00    -0.257 NA
HETATM    7  C4  UNL     1      22.680   1.263  51.515  1.00  0.00     0.094 C 
HETATM    8  C10 UNL     1      23.548   2.067  50.931  1.00  0.00     0.069 C 
HETATM    9  N3  UNL     1      24.948   2.083  51.206  1.00  0.00    -0.375 N 
HETATM   10  C17 UNL     1      25.872   1.244  51.912  1.00  0.00     0.140 C 
HETATM   11  C18 UNL     1      26.935   2.137  52.494  1.00  0.00    -0.000 C 
HETATM   12  C19 UNL     1      28.113   1.906  53.068  1.00  0.00    -0.016 C 
HETATM   13  C20 UNL     1      28.606   0.501  53.230  1.00  0.00     0.140 C 
HETATM   14  H11 UNL     1      25.440   2.923  50.783  1.00  0.00     0.160 HD
ENDROOT
BRANCH   8  15
HETATM   15  C11 UNL     1      23.171   3.057  49.913  1.00  0.00    -0.007 A 
HETATM   16  C12 UNL     1      22.925   2.659  48.612  1.00  0.00     0.017 A 
HETATM   17  C13 UNL     1      22.561   3.510  47.574  1.00  0.00     0.043 A 
HETATM   18  C14 UNL     1      22.433   4.857  47.864  1.00  0.00     0.116 A 
HETATM   19  F1  UNL     1      22.077   5.712  46.869  1.00  0.00    -0.206 F 
HETATM   20  C15 UNL     1      22.667   5.288  49.135  1.00  0.00     0.043 A 
HETATM   21  C16 UNL     1      23.034   4.430  50.180  1.00  0.00     0.017 A 
ENDBRANCH   8  15
BRANCH   7  22
HETATM   22  C5  UNL     1      21.272   1.438  51.191  1.00  0.00    -0.002 A 
HETATM   23  C6  UNL     1      20.460   0.855  50.238  1.00  0.00     0.033 A 
HETATM   24  C7  UNL     1      19.111   1.220  50.210  1.00  0.00     0.117 A 
HETATM   25  N2  UNL     1      18.617   2.107  51.074  1.00  0.00    -0.273 NA
HETATM   26  C8  UNL     1      19.335   2.708  52.014  1.00  0.00     0.117 A 
HETATM   27  C9  UNL     1      20.694   2.364  52.073  1.00  0.00     0.033 A 
ENDBRANCH   7  22
TORSDOF 2
ENDMDL
MODEL 9
REMARK VINA RESULT:      -7.8      3.873      6.042
REMARK  2 active torsions:
REMARK  status: ('A' for Active; 'I' for Inactive)
REMARK    1  A    between atoms: C4_7  and  C5_8 
REMARK    2  A    between atoms: C10_14  and  C11_15 
ROOT
HETATM    1  O1  UNL     1      18.157  -0.624  51.404  1.00  0.00    -0.253 OA
HETATM    2  S1  UNL     1      18.328   0.605  52.293  1.00  0.00     0.043 S 
HETATM    3  C1  UNL     1      20.016   0.625  52.816  1.00  0.00     0.089 C 
HETATM    4  C2  UNL     1      21.091   1.305  52.487  1.00  0.00    -0.006 C 
HETATM    5  C3  UNL     1      22.074   0.721  53.379  1.00  0.00     0.127 C 
HETATM    6  N1  UNL     1      23.353   0.889  53.368  1.00  0.00    -0.257 NA
HETATM    7  C4  UNL     1      24.151   1.687  52.482  1.00  0.00     0.094 C 
HETATM    8  C10 UNL     1      23.823   2.455  51.461  1.00  0.00     0.069 C 
HETATM    9  N3  UNL     1      22.490   2.651  50.992  1.00  0.00    -0.375 N 
HETATM   10  C17 UNL     1      21.171   2.354  51.472  1.00  0.00     0.140 C 
HETATM   11  C18 UNL     1      20.307   2.080  50.270  1.00  0.00    -0.000 C 
HETATM   12  C19 UNL     1      18.995   1.942  50.097  1.00  0.00    -0.016 C 
HETATM   13  C20 UNL     1      18.067   2.063  51.266  1.00  0.00     0.140 C 
HETATM   14  H11 UNL     1      22.454   3.141  50.051  1.00  0.00     0.160 HD
ENDROOT
BRANCH   8  15
HETATM   15  C11 UNL     1      24.805   3.211  50.672  1.00  0.00    -0.007 A 
HETATM   16  C12 UNL     1      24.734   4.590  50.608  1.00  0.00     0.017 A 
HETATM   17  C13 UNL     1      25.610   5.401  49.895  1.00  0.00     0.043 A 
HETATM   18  C14 UNL     1      26.634   4.783  49.199  1.00  0.00     0.116 A 
HETATM   19  F1  UNL     1      27.507   5.550  48.495  1.00  0.00    -0.206 F 
HETATM   20  C15 UNL     1      26.738   3.425  49.239  1.00  0.00     0.043 A 
HETATM   21  C16 UNL     1      25.854   2.608  49.957  1.00  0.00     0.017 A 
ENDBRANCH   8  15
BRANCH   7  22
HETATM   22  C5  UNL     1      25.567   1.520  52.775  1.00  0.00    -0.002 A 
HETATM   23  C6  UNL     1      26.504   2.364  53.337  1.00  0.00     0.033 A 
HETATM   24  C7  UNL     1      27.802   1.878  53.521  1.00  0.00     0.117 A 
HETATM   25  N2  UNL     1      28.133   0.637  53.164  1.00  0.00    -0.273 NA
HETATM   26  C8  UNL     1      27.287  -0.229  52.618  1.00  0.00     0.117 A 
HETATM   27  C9  UNL     1      25.975   0.225  52.420  1.00  0.00     0.033 A 
ENDBRANCH   7  22
TORSDOF 2
ENDMDL
