MODEL 1
REMARK VINA RESULT:      -7.4      0.000      0.000
REMARK  5 active torsions:
REMARK  status: ('A' for Active; 'I' for Inactive)
REMARK    1  A    between atoms: C2_2  and  C3_3 
REMARK    2  A    between atoms: C4_4  and  C5_5 
REMARK    3  A    between atoms: C6_6  and  N1_7 
REMARK       I    between atoms: N1_7  and  C7_8 
REMARK    4  A    between atoms: C7_8  and  C8_10 
REMARK    5  A    between atoms: C14_17  and  C15_18 
ROOT
HETATM    1  C8  UNL     1      22.211   1.797  51.652  1.00  0.00     0.185 A 
HETATM    2  C9  UNL     1      21.094   2.442  52.339  1.00  0.00     0.089 C 
HETATM    3  N2  UNL     1      20.210   2.946  52.861  1.00  0.00    -0.195 NA
HETATM    4  C10 UNL     1      21.902   1.442  50.220  1.00  0.00    -0.012 A 
HETATM    5  C11 UNL     1      21.508   0.994  48.954  1.00  0.00     0.010 A 
HETATM    6  C12 UNL     1      22.104   1.645  47.908  1.00  0.00     0.001 A 
HETATM    7  C13 UNL     1      23.007   2.647  48.125  1.00  0.00     0.009 A 
HETATM    8  C14 UNL     1      23.360   3.050  49.418  1.00  0.00    -0.036 A 
HETATM    9  C17 UNL     1      22.818   2.460  50.534  1.00  0.00    -0.005 A 
ENDROOT
BRANCH   1  10
HETATM   10  C7  UNL     1      22.883   0.651  52.361  1.00  0.00     0.254 C 
HETATM   11  N1  UNL     1      24.271   0.723  52.675  1.00  0.00    -0.335 N 
HETATM   12  H8  UNL     1      24.774   1.598  52.385  1.00  0.00     0.168 HD
HETATM   13  O1  UNL     1      22.276  -0.411  52.713  1.00  0.00    -0.270 OA
BRANCH  11  14
HETATM   14  C6  UNL     1      24.664  -0.488  53.348  1.00  0.00     0.091 C 
HETATM   15  C5  UNL     1      25.769  -0.485  54.091  1.00  0.00     0.017 C 
BRANCH  15  16
HETATM   16  C4  UNL     1      26.534   0.751  54.190  1.00  0.00     0.001 C 
HETATM   17  C3  UNL     1      27.842   0.701  54.011  1.00  0.00    -0.004 C 
BRANCH  17  18
HETATM   18  C2  UNL     1      28.541  -0.541  53.720  1.00  0.00    -0.026 C 
HETATM   19  C1  UNL     1      29.852  -0.681  53.584  1.00  0.00     0.031 C 
ENDBRANCH  17  18
ENDBRANCH  15  16
ENDBRANCH  11  14
ENDBRANCH   1  10
BRANCH   8  20
HETATM   20  C15 UNL     1      24.364   4.165  49.555  1.00  0.00     0.163 C 
HETATM   21  C16 UNL     1      25.711   3.616  49.746  1.00  0.00     0.063 C 
HETATM   22  N3  UNL     1      26.777   3.172  49.878  1.00  0.00    -0.197 NA
ENDBRANCH   8  20
TORSDOF 5
ENDMDL
MODEL 2
REMARK VINA RESULT:      -7.2      2.231      3.086
REMARK  5 active torsions:
REMARK  status: ('A' for Active; 'I' for Inactive)
REMARK    1  A    between atoms: C2_2  and  C3_3 
REMARK    2  A    between atoms: C4_4  and  C5_5 
REMARK    3  A    between atoms: C6_6  and  N1_7 
REMARK       I    between atoms: N1_7  and  C7_8 
REMARK    4  A    between atoms: C7_8  and  C8_10 
REMARK    5  A    between atoms: C14_17  and  C15_18 
ROOT
HETATM    1  C8  UNL     1      24.012   2.950  51.763  1.00  0.00     0.185 A 
HETATM    2  C9  UNL     1      23.597   4.233  52.327  1.00  0.00     0.089 C 
HETATM    3  N2  UNL     1      23.257   5.229  52.773  1.00  0.00    -0.195 NA
HETATM    4  C10 UNL     1      23.021   1.843  52.014  1.00  0.00    -0.012 A 
HETATM    5  C11 UNL     1      22.147   0.826  52.413  1.00  0.00     0.010 A 
HETATM    6  C12 UNL     1      21.408   0.280  51.399  1.00  0.00     0.001 A 
HETATM    7  C13 UNL     1      21.541   0.722  50.113  1.00  0.00     0.009 A 
HETATM    8  C14 UNL     1      22.435   1.746  49.778  1.00  0.00    -0.036 A 
HETATM    9  C17 UNL     1      23.223   2.358  50.722  1.00  0.00    -0.005 A 
ENDROOT
BRANCH   1  10
HETATM   10  C7  UNL     1      25.418   2.495  52.054  1.00  0.00     0.254 C 
HETATM   11  N1  UNL     1      25.959   2.644  53.363  1.00  0.00    -0.335 N 
HETATM   12  H8  UNL     1      25.332   3.080  54.085  1.00  0.00     0.168 HD
HETATM   13  O1  UNL     1      26.181   1.968  51.182  1.00  0.00    -0.270 OA
BRANCH  11  14
HETATM   14  C6  UNL     1      27.306   2.135  53.377  1.00  0.00     0.091 C 
HETATM   15  C5  UNL     1      27.557   0.984  53.999  1.00  0.00     0.017 C 
BRANCH  15  16
HETATM   16  C4  UNL     1      26.449   0.290  54.642  1.00  0.00     0.001 C 
HETATM   17  C3  UNL     1      25.889  -0.727  54.011  1.00  0.00    -0.004 C 
BRANCH  17  18
HETATM   18  C2  UNL     1      26.339  -1.174  52.701  1.00  0.00    -0.026 C 
HETATM   19  C1  UNL     1      27.010  -2.288  52.450  1.00  0.00     0.031 C 
ENDBRANCH  17  18
ENDBRANCH  15  16
ENDBRANCH  11  14
ENDBRANCH   1  10
BRANCH   8  20
HETATM   20  C15 UNL     1      22.511   2.165  48.333  1.00  0.00     0.163 C 
HETATM   21  C16 UNL     1      22.594   3.625  48.231  1.00  0.00     0.063 C 
HETATM   22  N3  UNL     1      22.679   4.782  48.160  1.00  0.00    -0.197 NA
ENDBRANCH   8  20
TORSDOF 5
ENDMDL
MODEL 3
REMARK VINA RESULT:      -7.1      2.115      3.408
REMARK  5 active torsions:
REMARK  status: ('A' for Active; 'I' for Inactive)
REMARK    1  A    between atoms: C2_2  and  C3_3 
REMARK    2  A    between atoms: C4_4  and  C5_5 
REMARK    3  A    between atoms: C6_6  and  N1_7 
REMARK       I    between atoms: N1_7  and  C7_8 
REMARK    4  A    between atoms: C7_8  and  C8_10 
REMARK    5  A    between atoms: C14_17  and  C15_18 
ROOT
HETATM    1  C8  UNL     1      24.165   2.890  50.919  1.00  0.00     0.185 A 
HETATM    2  C9  UNL     1      23.128   2.224  50.133  1.00  0.00     0.089 C 
HETATM    3  N2  UNL     1      22.326   1.704  49.504  1.00  0.00    -0.195 NA
HETATM    4  C10 UNL     1      25.407   3.197  50.122  1.00  0.00    -0.012 A 
HETATM    5  C11 UNL     1      26.588   3.312  49.381  1.00  0.00     0.010 A 
HETATM    6  C12 UNL     1      26.936   4.595  49.060  1.00  0.00     0.001 A 
HETATM    7  C13 UNL     1      26.166   5.654  49.452  1.00  0.00     0.009 A 
HETATM    8  C14 UNL     1      24.993   5.472  50.194  1.00  0.00    -0.036 A 
HETATM    9  C17 UNL     1      24.557   4.224  50.566  1.00  0.00    -0.005 A 
ENDROOT
BRANCH   1  10
HETATM   10  C7  UNL     1      24.511   2.282  52.252  1.00  0.00     0.254 C 
HETATM   11  N1  UNL     1      24.701   0.876  52.367  1.00  0.00    -0.335 N 
HETATM   12  H8  UNL     1      24.585   0.312  51.489  1.00  0.00     0.168 HD
HETATM   13  O1  UNL     1      24.652   2.963  53.319  1.00  0.00    -0.270 OA
BRANCH  11  14
HETATM   14  C6  UNL     1      25.023   0.555  53.734  1.00  0.00     0.091 C 
HETATM   15  C5  UNL     1      25.886  -0.430  53.981  1.00  0.00     0.017 C 
BRANCH  15  16
HETATM   16  C4  UNL     1      26.468  -1.140  52.851  1.00  0.00     0.001 C 
HETATM   17  C3  UNL     1      27.783  -1.262  52.791  1.00  0.00    -0.004 C 
BRANCH  17  18
HETATM   18  C2  UNL     1      28.663  -0.714  53.811  1.00  0.00    -0.026 C 
HETATM   19  C1  UNL     1      29.608   0.194  53.615  1.00  0.00     0.031 C 
ENDBRANCH  17  18
ENDBRANCH  15  16
ENDBRANCH  11  14
ENDBRANCH   1  10
BRANCH   8  20
HETATM   20  C15 UNL     1      24.210   6.701  50.579  1.00  0.00     0.163 C 
HETATM   21  C16 UNL     1      22.829   6.339  50.913  1.00  0.00     0.063 C 
HETATM   22  N3  UNL     1      21.741   6.041  51.193  1.00  0.00    -0.197 NA
ENDBRANCH   8  20
TORSDOF 5
ENDMDL
MODEL 4
REMARK VINA RESULT:      -7.1      3.010      7.152
REMARK  5 active torsions:
REMARK  status: ('A' for Active; 'I' for Inactive)
REMARK    1  A    between atoms: C2_2  and  C3_3 
REMARK    2  A    between atoms: C4_4  and  C5_5 
REMARK    3  A    between atoms: C6_6  and  N1_7 
REMARK       I    between atoms: N1_7  and  C7_8 
REMARK    4  A    between atoms: C7_8  and  C8_10 
REMARK    5  A    between atoms: C14_17  and  C15_18 
ROOT
HETATM    1  C8  UNL     1      23.669  -0.242  53.251  1.00  0.00     0.185 A 
HETATM    2  C9  UNL     1      22.975  -0.808  54.407  1.00  0.00     0.089 C 
HETATM    3  N2  UNL     1      22.445  -1.242  55.322  1.00  0.00    -0.195 NA
HETATM    4  C10 UNL     1      24.806   0.671  53.630  1.00  0.00    -0.012 A 
HETATM    5  C11 UNL     1      25.741   1.629  54.038  1.00  0.00     0.010 A 
HETATM    6  C12 UNL     1      27.046   1.281  53.816  1.00  0.00     0.001 A 
HETATM    7  C13 UNL     1      27.368   0.085  53.240  1.00  0.00     0.009 A 
HETATM    8  C14 UNL     1      26.385  -0.832  52.853  1.00  0.00    -0.036 A 
HETATM    9  C17 UNL     1      25.046  -0.578  53.033  1.00  0.00    -0.005 A 
ENDROOT
BRANCH   1  10
HETATM   10  C7  UNL     1      22.816   0.371  52.172  1.00  0.00     0.254 C 
HETATM   11  N1  UNL     1      21.451  -0.013  52.038  1.00  0.00    -0.335 N 
HETATM   12  H8  UNL     1      21.095  -0.729  52.718  1.00  0.00     0.168 HD
HETATM   13  O1  UNL     1      23.246   1.239  51.346  1.00  0.00    -0.270 OA
BRANCH  11  14
HETATM   14  C6  UNL     1      20.864   0.714  50.942  1.00  0.00     0.091 C 
HETATM   15  C5  UNL     1      19.541   0.698  50.790  1.00  0.00     0.017 C 
BRANCH  15  16
HETATM   16  C4  UNL     1      18.744  -0.060  51.745  1.00  0.00     0.001 C 
HETATM   17  C3  UNL     1      17.500  -0.373  51.423  1.00  0.00    -0.004 C 
BRANCH  17  18
HETATM   18  C2  UNL     1      16.904   0.012  50.153  1.00  0.00    -0.026 C 
HETATM   19  C1  UNL     1      16.204  -0.778  49.353  1.00  0.00     0.031 C 
ENDBRANCH  17  18
ENDBRANCH  15  16
ENDBRANCH  11  14
ENDBRANCH   1  10
BRANCH   8  20
HETATM   20  C15 UNL     1      26.839  -2.125  52.226  1.00  0.00     0.163 C 
HETATM   21  C16 UNL     1      28.024  -2.638  52.921  1.00  0.00     0.063 C 
HETATM   22  N3  UNL     1      28.952  -3.047  53.489  1.00  0.00    -0.197 NA
ENDBRANCH   8  20
TORSDOF 5
ENDMDL
MODEL 5
REMARK VINA RESULT:      -7.0      2.826      4.153
REMARK  5 active torsions:
REMARK  status: ('A' for Active; 'I' for Inactive)
REMARK    1  A    between atoms: C2_2  and  C3_3 
REMARK    2  A    between atoms: C4_4  and  C5_5 
REMARK    3  A    between atoms: C6_6  and  N1_7 
REMARK       I    between atoms: N1_7  and  C7_8 
REMARK    4  A    between atoms: C7_8  and  C8_10 
REMARK    5  A    between atoms: C14_17  and  C15_18 
ROOT
HETATM    1  C8  UNL     1      24.513   3.884  50.031  1.00  0.00     0.185 A 
HETATM    2  C9  UNL     1      23.618   3.179  49.116  1.00  0.00     0.089 C 
HETATM    3  N2  UNL     1      22.930   2.627  48.388  1.00  0.00    -0.195 NA
HETATM    4  C10 UNL     1      25.886   4.117  49.454  1.00  0.00    -0.012 A 
HETATM    5  C11 UNL     1      27.184   4.164  48.934  1.00  0.00     0.010 A 
HETATM    6  C12 UNL     1      27.618   5.417  48.597  1.00  0.00     0.001 A 
HETATM    7  C13 UNL     1      26.817   6.511  48.771  1.00  0.00     0.009 A 
HETATM    8  C14 UNL     1      25.526   6.398  49.298  1.00  0.00    -0.036 A 
HETATM    9  C17 UNL     1      24.997   5.185  49.668  1.00  0.00    -0.005 A 
ENDROOT
BRANCH   1  10
HETATM   10  C7  UNL     1      24.598   3.367  51.443  1.00  0.00     0.254 C 
HETATM   11  N1  UNL     1      25.166   2.087  51.700  1.00  0.00    -0.335 N 
HETATM   12  H8  UNL     1      25.507   1.547  50.866  1.00  0.00     0.168 HD
HETATM   13  O1  UNL     1      24.184   4.018  52.455  1.00  0.00    -0.270 OA
BRANCH  11  14
HETATM   14  C6  UNL     1      25.130   1.832  53.117  1.00  0.00     0.091 C 
HETATM   15  C5  UNL     1      25.537   0.648  53.573  1.00  0.00     0.017 C 
BRANCH  15  16
HETATM   16  C4  UNL     1      26.003  -0.341  52.610  1.00  0.00     0.001 C 
HETATM   17  C3  UNL     1      27.235  -0.804  52.726  1.00  0.00    -0.004 C 
BRANCH  17  18
HETATM   18  C2  UNL     1      28.137  -0.362  53.779  1.00  0.00    -0.026 C 
HETATM   19  C1  UNL     1      29.455  -0.265  53.682  1.00  0.00     0.031 C 
ENDBRANCH  17  18
ENDBRANCH  15  16
ENDBRANCH  11  14
ENDBRANCH   1  10
BRANCH   8  20
HETATM   20  C15 UNL     1      24.719   7.661  49.453  1.00  0.00     0.163 C 
HETATM   21  C16 UNL     1      25.585   8.771  49.864  1.00  0.00     0.063 C 
HETATM   22  N3  UNL     1      26.281   9.649  50.172  1.00  0.00    -0.197 NA
ENDBRANCH   8  20
TORSDOF 5
ENDMDL
MODEL 6
REMARK VINA RESULT:      -7.0      2.641      5.817
REMARK  5 active torsions:
REMARK  status: ('A' for Active; 'I' for Inactive)
REMARK    1  A    between atoms: C2_2  and  C3_3 
REMARK    2  A    between atoms: C4_4  and  C5_5 
REMARK    3  A    between atoms: C6_6  and  N1_7 
REMARK       I    between atoms: N1_7  and  C7_8 
REMARK    4  A    between atoms: C7_8  and  C8_10 
REMARK    5  A    between atoms: C14_17  and  C15_18 
ROOT
HETATM    1  C8  UNL     1      22.329   1.502  51.846  1.00  0.00     0.185 A 
HETATM    2  C9  UNL     1      21.816   1.036  50.560  1.00  0.00     0.089 C 
HETATM    3  N2  UNL     1      21.405   0.659  49.561  1.00  0.00    -0.195 NA
HETATM    4  C10 UNL     1      21.712   0.791  53.023  1.00  0.00    -0.012 A 
HETATM    5  C11 UNL     1      20.994   0.215  54.077  1.00  0.00     0.010 A 
HETATM    6  C12 UNL     1      21.716  -0.651  54.852  1.00  0.00     0.001 A 
HETATM    7  C13 UNL     1      23.031  -0.905  54.586  1.00  0.00     0.009 A 
HETATM    8  C14 UNL     1      23.695  -0.296  53.515  1.00  0.00    -0.036 A 
HETATM    9  C17 UNL     1      23.059   0.589  52.678  1.00  0.00    -0.005 A 
ENDROOT
BRANCH   1  10
HETATM   10  C7  UNL     1      22.368   2.991  52.071  1.00  0.00     0.254 C 
HETATM   11  N1  UNL     1      23.619   3.667  52.153  1.00  0.00    -0.335 N 
HETATM   12  H8  UNL     1      24.481   3.075  52.051  1.00  0.00     0.168 HD
HETATM   13  O1  UNL     1      21.325   3.710  52.195  1.00  0.00    -0.270 OA
BRANCH  11  14
HETATM   14  C6  UNL     1      23.382   5.071  52.367  1.00  0.00     0.091 C 
HETATM   15  C5  UNL     1      23.905   5.953  51.517  1.00  0.00     0.017 C 
BRANCH  15  16
HETATM   16  C4  UNL     1      24.699   5.453  50.403  1.00  0.00     0.001 C 
HETATM   17  C3  UNL     1      25.570   6.266  49.832  1.00  0.00    -0.004 C 
BRANCH  17  18
HETATM   18  C2  UNL     1      25.763   7.637  50.278  1.00  0.00    -0.026 C 
HETATM   19  C1  UNL     1      26.790   8.416  49.972  1.00  0.00     0.031 C 
ENDBRANCH  17  18
ENDBRANCH  15  16
ENDBRANCH  11  14
ENDBRANCH   1  10
BRANCH   8  20
HETATM   20  C15 UNL     1      25.146  -0.640  53.301  1.00  0.00     0.163 C 
HETATM   21  C16 UNL     1      25.985   0.069  54.273  1.00  0.00     0.063 C 
HETATM   22  N3  UNL     1      26.640   0.620  55.059  1.00  0.00    -0.197 NA
ENDBRANCH   8  20
TORSDOF 5
ENDMDL
MODEL 7
REMARK VINA RESULT:      -7.0      2.249      6.778
REMARK  5 active torsions:
REMARK  status: ('A' for Active; 'I' for Inactive)
REMARK    1  A    between atoms: C2_2  and  C3_3 
REMARK    2  A    between atoms: C4_4  and  C5_5 
REMARK    3  A    between atoms: C6_6  and  N1_7 
REMARK       I    between atoms: N1_7  and  C7_8 
REMARK    4  A    between atoms: C7_8  and  C8_10 
REMARK    5  A    between atoms: C14_17  and  C15_18 
ROOT
HETATM    1  C8  UNL     1      23.846   1.392  52.636  1.00  0.00     0.185 A 
HETATM    2  C9  UNL     1      23.930   2.806  52.997  1.00  0.00     0.089 C 
HETATM    3  N2  UNL     1      24.013   3.912  53.277  1.00  0.00    -0.195 NA
HETATM    4  C10 UNL     1      25.176   0.799  52.250  1.00  0.00    -0.012 A 
HETATM    5  C11 UNL     1      26.401   0.345  51.750  1.00  0.00     0.010 A 
HETATM    6  C12 UNL     1      27.034  -0.576  52.540  1.00  0.00     0.001 A 
HETATM    7  C13 UNL     1      26.479  -0.994  53.717  1.00  0.00     0.009 A 
HETATM    8  C14 UNL     1      25.248  -0.501  54.163  1.00  0.00    -0.036 A 
HETATM    9  C17 UNL     1      24.534   0.426  53.443  1.00  0.00    -0.005 A 
ENDROOT
BRANCH   1  10
HETATM   10  C7  UNL     1      22.770   0.996  51.660  1.00  0.00     0.254 C 
HETATM   11  N1  UNL     1      22.665   1.663  50.406  1.00  0.00    -0.335 N 
HETATM   12  H8  UNL     1      23.363   2.424  50.218  1.00  0.00     0.168 HD
HETATM   13  O1  UNL     1      21.922   0.074  51.885  1.00  0.00    -0.270 OA
BRANCH  11  14
HETATM   14  C6  UNL     1      21.567   1.100  49.664  1.00  0.00     0.091 C 
HETATM   15  C5  UNL     1      21.470   1.352  48.360  1.00  0.00     0.017 C 
BRANCH  15  16
HETATM   16  C4  UNL     1      22.486   2.191  47.740  1.00  0.00     0.001 C 
HETATM   17  C3  UNL     1      22.099   3.261  47.068  1.00  0.00    -0.004 C 
BRANCH  17  18
HETATM   18  C2  UNL     1      20.698   3.628  46.929  1.00  0.00    -0.026 C 
HETATM   19  C1  UNL     1      20.207   4.857  46.993  1.00  0.00     0.031 C 
ENDBRANCH  17  18
ENDBRANCH  15  16
ENDBRANCH  11  14
ENDBRANCH   1  10
BRANCH   8  20
HETATM   20  C15 UNL     1      24.718  -1.022  55.474  1.00  0.00     0.163 C 
HETATM   21  C16 UNL     1      23.296  -1.361  55.349  1.00  0.00     0.063 C 
HETATM   22  N3  UNL     1      22.175  -1.644  55.236  1.00  0.00    -0.197 NA
ENDBRANCH   8  20
TORSDOF 5
ENDMDL
MODEL 8
REMARK VINA RESULT:      -6.8      2.831      6.922
REMARK  5 active torsions:
REMARK  status: ('A' for Active; 'I' for Inactive)
REMARK    1  A    between atoms: C2_2  and  C3_3 
REMARK    2  A    between atoms: C4_4  and  C5_5 
REMARK    3  A    between atoms: C6_6  and  N1_7 
REMARK       I    between atoms: N1_7  and  C7_8 
REMARK    4  A    between atoms: C7_8  and  C8_10 
REMARK    5  A    between atoms: C14_17  and  C15_18 
ROOT
HETATM    1  C8  UNL     1      23.843   1.921  52.325  1.00  0.00     0.185 A 
HETATM    2  C9  UNL     1      23.989   3.240  52.939  1.00  0.00     0.089 C 
HETATM    3  N2  UNL     1      24.121   4.269  53.420  1.00  0.00    -0.195 NA
HETATM    4  C10 UNL     1      25.162   1.240  52.063  1.00  0.00    -0.012 A 
HETATM    5  C11 UNL     1      26.411   0.727  51.698  1.00  0.00     0.010 A 
HETATM    6  C12 UNL     1      26.802  -0.378  52.405  1.00  0.00     0.001 A 
HETATM    7  C13 UNL     1      26.007  -0.907  53.382  1.00  0.00     0.009 A 
HETATM    8  C14 UNL     1      24.765  -0.346  53.701  1.00  0.00    -0.036 A 
HETATM    9  C17 UNL     1      24.282   0.763  53.050  1.00  0.00    -0.005 A 
ENDROOT
BRANCH   1  10
HETATM   10  C7  UNL     1      22.932   1.818  51.131  1.00  0.00     0.254 C 
HETATM   11  N1  UNL     1      21.989   0.754  51.044  1.00  0.00    -0.335 N 
HETATM   12  H8  UNL     1      21.976   0.070  51.841  1.00  0.00     0.168 HD
HETATM   13  O1  UNL     1      22.946   2.644  50.163  1.00  0.00    -0.270 OA
BRANCH  11  14
HETATM   14  C6  UNL     1      21.246   0.883  49.817  1.00  0.00     0.091 C 
HETATM   15  C5  UNL     1      19.917   0.797  49.854  1.00  0.00     0.017 C 
BRANCH  15  16
HETATM   16  C4  UNL     1      19.273   0.574  51.141  1.00  0.00     0.001 C 
HETATM   17  C3  UNL     1      17.996   0.235  51.159  1.00  0.00    -0.004 C 
BRANCH  17  18
HETATM   18  C2  UNL     1      17.215   0.078  49.941  1.00  0.00    -0.026 C 
HETATM   19  C1  UNL     1      16.165  -0.715  49.790  1.00  0.00     0.031 C 
ENDBRANCH  17  18
ENDBRANCH  15  16
ENDBRANCH  11  14
ENDBRANCH   1  10
BRANCH   8  20
HETATM   20  C15 UNL     1      23.960  -1.000  54.794  1.00  0.00     0.163 C 
HETATM   21  C16 UNL     1      22.544  -1.063  54.414  1.00  0.00     0.063 C 
HETATM   22  N3  UNL     1      21.428  -1.127  54.097  1.00  0.00    -0.197 NA
ENDBRANCH   8  20
TORSDOF 5
ENDMDL
MODEL 9
REMARK VINA RESULT:      -6.8      3.226      4.746
REMARK  5 active torsions:
REMARK  status: ('A' for Active; 'I' for Inactive)
REMARK    1  A    between atoms: C2_2  and  C3_3 
REMARK    2  A    between atoms: C4_4  and  C5_5 
REMARK    3  A    between atoms: C6_6  and  N1_7 
REMARK       I    between atoms: N1_7  and  C7_8 
REMARK    4  A    between atoms: C7_8  and  C8_10 
REMARK    5  A    between atoms: C14_17  and  C15_18 
ROOT
HETATM    1  C8  UNL     1      23.462   3.482  49.426  1.00  0.00     0.185 A 
HETATM    2  C9  UNL     1      22.891   2.686  48.342  1.00  0.00     0.089 C 
HETATM    3  N2  UNL     1      22.460   2.060  47.487  1.00  0.00    -0.195 NA
HETATM    4  C10 UNL     1      24.969   3.441  49.461  1.00  0.00    -0.012 A 
HETATM    5  C11 UNL     1      26.350   3.240  49.543  1.00  0.00     0.010 A 
HETATM    6  C12 UNL     1      27.106   4.337  49.230  1.00  0.00     0.001 A 
HETATM    7  C13 UNL     1      26.519   5.517  48.870  1.00  0.00     0.009 A 
HETATM    8  C14 UNL     1      25.128   5.655  48.807  1.00  0.00    -0.036 A 
HETATM    9  C17 UNL     1      24.282   4.614  49.103  1.00  0.00    -0.005 A 
ENDROOT
BRANCH   1  10
HETATM   10  C7  UNL     1      22.882   3.284  50.802  1.00  0.00     0.254 C 
HETATM   11  N1  UNL     1      21.974   2.215  51.045  1.00  0.00    -0.335 N 
HETATM   12  H8  UNL     1      21.744   1.597  50.227  1.00  0.00     0.168 HD
HETATM   13  O1  UNL     1      23.158   4.031  51.794  1.00  0.00    -0.270 OA
BRANCH  11  14
HETATM   14  C6  UNL     1      21.571   2.245  52.427  1.00  0.00     0.091 C 
HETATM   15  C5  UNL     1      21.590   1.115  53.132  1.00  0.00     0.017 C 
BRANCH  15  16
HETATM   16  C4  UNL     1      22.021  -0.108  52.468  1.00  0.00     0.001 C 
HETATM   17  C3  UNL     1      22.302  -1.165  53.209  1.00  0.00    -0.004 C 
BRANCH  17  18
HETATM   18  C2  UNL     1      22.196  -1.149  54.660  1.00  0.00    -0.026 C 
HETATM   19  C1  UNL     1      23.180  -1.390  55.514  1.00  0.00     0.031 C 
ENDBRANCH  17  18
ENDBRANCH  15  16
ENDBRANCH  11  14
ENDBRANCH   1  10
BRANCH   8  20
HETATM   20  C15 UNL     1      24.574   6.996  48.399  1.00  0.00     0.163 C 
HETATM   21  C16 UNL     1      25.046   8.040  49.315  1.00  0.00     0.063 C 
HETATM   22  N3  UNL     1      25.439   8.864  50.034  1.00  0.00    -0.197 NA
ENDBRANCH   8  20
TORSDOF 5
ENDMDL
