MODEL 1
REMARK VINA RESULT:      -7.4      0.000      0.000
REMARK  8 active torsions:
REMARK  status: ('A' for Active; 'I' for Inactive)
REMARK    1  A    between atoms: N1_1  and  C1_2 
REMARK    2  A    between atoms: C1_2  and  C2_3 
REMARK    3  A    between atoms: C4_5  and  C5_6 
REMARK    4  A    between atoms: C5_6  and  C6_7 
REMARK    5  A    between atoms: C5_6  and  C7_9 
REMARK    6  A    between atoms: C8_10  and  C9_11 
REMARK    7  A    between atoms: N3_16  and  C12_17 
REMARK    8  A    between atoms: C13_18  and  C14_19 
ROOT
HETATM    1  C2  UNL     1      24.387   2.087  51.505  1.00  0.00     0.108 A 
HETATM    2  C3  UNL     1      24.835   1.048  52.438  1.00  0.00    -0.003 A 
HETATM    3  C4  UNL     1      26.078   0.737  52.687  1.00  0.00    -0.029 A 
HETATM    4  C10 UNL     1      27.138   1.445  52.016  1.00  0.00     0.126 A 
HETATM    5  N2  UNL     1      26.865   2.380  51.174  1.00  0.00    -0.244 NA
HETATM    6  C11 UNL     1      25.543   2.774  50.852  1.00  0.00     0.134 A 
HETATM    7  N3  UNL     1      25.314   3.717  50.002  1.00  0.00    -0.245 NA
ENDROOT
BRANCH   1   8
HETATM    8  C1  UNL     1      23.461   3.087  52.153  1.00  0.00     0.283 C 
BRANCH   8   9
HETATM    9  N1  UNL     1      24.170   4.094  52.916  1.00  0.00     0.079 N 
HETATM   10  H1  UNL     1      23.780   5.051  52.754  1.00  0.00     0.312 HD
HETATM   11  H2  UNL     1      24.106   3.885  53.931  1.00  0.00     0.312 HD
ENDBRANCH   8   9
ENDBRANCH   1   8
BRANCH   7  12
HETATM   12  C12 UNL     1      26.378   4.401  49.353  1.00  0.00     0.121 C 
HETATM   13  C13 UNL     1      26.537   5.623  48.940  1.00  0.00     0.051 C 
BRANCH  13  14
HETATM   14  C14 UNL     1      25.492   6.604  49.110  1.00  0.00     0.057 A 
HETATM   15  C15 UNL     1      24.669   6.959  48.057  1.00  0.00     0.031 A 
HETATM   16  C16 UNL     1      23.657   7.900  48.197  1.00  0.00     0.004 A 
HETATM   17  C17 UNL     1      23.507   8.477  49.462  1.00  0.00     0.019 A 
HETATM   18  C18 UNL     1      24.334   8.113  50.500  1.00  0.00     0.117 A 
HETATM   19  N4  UNL     1      25.299   7.192  50.301  1.00  0.00    -0.261 NA
ENDBRANCH  13  14
ENDBRANCH   7  12
BRANCH   3  20
HETATM   20  C5  UNL     1      26.508  -0.335  53.652  1.00  0.00     0.103 C 
BRANCH  20  21
HETATM   21  C6  UNL     1      25.264  -0.691  54.425  1.00  0.00     0.244 C 
HETATM   22  O1  UNL     1      25.377  -1.083  55.574  1.00  0.00    -0.306 OA
ENDBRANCH  20  21
BRANCH  20  23
HETATM   23  C7  UNL     1      27.586   0.122  54.530  1.00  0.00    -0.012 C 
HETATM   24  C8  UNL     1      28.886  -0.031  54.602  1.00  0.00     0.001 C 
BRANCH  24  25
HETATM   25  C9  UNL     1      29.777  -0.809  53.707  1.00  0.00     0.249 C 
HETATM   26  F1  UNL     1      29.382  -2.107  53.528  1.00  0.00    -0.251 F 
ENDBRANCH  24  25
ENDBRANCH  20  23
ENDBRANCH   3  20
TORSDOF 8
ENDMDL
MODEL 2
REMARK VINA RESULT:      -7.3      3.172      4.514
REMARK  8 active torsions:
REMARK  status: ('A' for Active; 'I' for Inactive)
REMARK    1  A    between atoms: N1_1  and  C1_2 
REMARK    2  A    between atoms: C1_2  and  C2_3 
REMARK    3  A    between atoms: C4_5  and  C5_6 
REMARK    4  A    between atoms: C5_6  and  C6_7 
REMARK    5  A    between atoms: C5_6  and  C7_9 
REMARK    6  A    between atoms: C8_10  and  C9_11 
REMARK    7  A    between atoms: N3_16  and  C12_17 
REMARK    8  A    between atoms: C13_18  and  C14_19 
ROOT
HETATM    1  C2  UNL     1      23.753   3.105  53.022  1.00  0.00     0.108 A 
HETATM    2  C3  UNL     1      25.099   2.669  53.410  1.00  0.00    -0.003 A 
HETATM    3  C4  UNL     1      25.551   1.447  53.337  1.00  0.00    -0.029 A 
HETATM    4  C10 UNL     1      24.697   0.399  52.838  1.00  0.00     0.126 A 
HETATM    5  N2  UNL     1      23.493   0.663  52.466  1.00  0.00    -0.244 NA
HETATM    6  C11 UNL     1      22.931   1.962  52.516  1.00  0.00     0.134 A 
HETATM    7  N3  UNL     1      21.720   2.183  52.132  1.00  0.00    -0.245 NA
ENDROOT
BRANCH   1   8
HETATM    8  C1  UNL     1      23.776   4.237  52.025  1.00  0.00     0.283 C 
BRANCH   8   9
HETATM    9  N1  UNL     1      23.851   5.538  52.658  1.00  0.00     0.079 N 
HETATM   10  H1  UNL     1      24.021   6.300  51.963  1.00  0.00     0.312 HD
HETATM   11  H2  UNL     1      22.963   5.745  53.156  1.00  0.00     0.312 HD
ENDBRANCH   8   9
ENDBRANCH   1   8
BRANCH   7  12
HETATM   12  C12 UNL     1      20.897   1.132  51.643  1.00  0.00     0.121 C 
HETATM   13  C13 UNL     1      20.457   0.815  50.462  1.00  0.00     0.051 C 
BRANCH  13  14
HETATM   14  C14 UNL     1      20.797   1.611  49.307  1.00  0.00     0.057 A 
HETATM   15  C15 UNL     1      22.042   1.512  48.714  1.00  0.00     0.031 A 
HETATM   16  C16 UNL     1      22.391   2.268  47.601  1.00  0.00     0.004 A 
HETATM   17  C17 UNL     1      21.417   3.141  47.106  1.00  0.00     0.019 A 
HETATM   18  C18 UNL     1      20.183   3.228  47.707  1.00  0.00     0.117 A 
HETATM   19  N4  UNL     1      19.905   2.467  48.785  1.00  0.00    -0.261 NA
ENDBRANCH  13  14
ENDBRANCH   7  12
BRANCH   3  20
HETATM   20  C5  UNL     1      26.939   1.030  53.742  1.00  0.00     0.103 C 
BRANCH  20  21
HETATM   21  C6  UNL     1      27.831   2.169  53.321  1.00  0.00     0.244 C 
HETATM   22  O1  UNL     1      28.617   2.631  54.131  1.00  0.00    -0.306 OA
ENDBRANCH  20  21
BRANCH  20  23
HETATM   23  C7  UNL     1      27.334  -0.233  53.116  1.00  0.00    -0.012 C 
HETATM   24  C8  UNL     1      28.374  -1.030  53.151  1.00  0.00     0.001 C 
BRANCH  24  25
HETATM   25  C9  UNL     1      29.628  -0.881  53.931  1.00  0.00     0.249 C 
HETATM   26  F1  UNL     1      30.521  -0.005  53.378  1.00  0.00    -0.251 F 
ENDBRANCH  24  25
ENDBRANCH  20  23
ENDBRANCH   3  20
TORSDOF 8
ENDMDL
MODEL 3
REMARK VINA RESULT:      -7.1      3.351      4.530
REMARK  8 active torsions:
REMARK  status: ('A' for Active; 'I' for Inactive)
REMARK    1  A    between atoms: N1_1  and  C1_2 
REMARK    2  A    between atoms: C1_2  and  C2_3 
REMARK    3  A    between atoms: C4_5  and  C5_6 
REMARK    4  A    between atoms: C5_6  and  C6_7 
REMARK    5  A    between atoms: C5_6  and  C7_9 
REMARK    6  A    between atoms: C8_10  and  C9_11 
REMARK    7  A    between atoms: N3_16  and  C12_17 
REMARK    8  A    between atoms: C13_18  and  C14_19 
ROOT
HETATM    1  C2  UNL     1      22.710  -0.236  52.975  1.00  0.00     0.108 A 
HETATM    2  C3  UNL     1      24.138  -0.319  53.303  1.00  0.00    -0.003 A 
HETATM    3  C4  UNL     1      24.944   0.698  53.443  1.00  0.00    -0.029 A 
HETATM    4  C10 UNL     1      24.439   2.037  53.273  1.00  0.00     0.126 A 
HETATM    5  N2  UNL     1      23.200   2.233  52.984  1.00  0.00    -0.244 NA
HETATM    6  C11 UNL     1      22.265   1.182  52.816  1.00  0.00     0.134 A 
HETATM    7  N3  UNL     1      21.031   1.424  52.527  1.00  0.00    -0.245 NA
ENDROOT
BRANCH   1   8
HETATM    8  C1  UNL     1      21.844  -0.966  53.972  1.00  0.00     0.283 C 
BRANCH   8   9
HETATM    9  N1  UNL     1      21.303  -0.089  54.990  1.00  0.00     0.079 N 
HETATM   10  H1  UNL     1      20.257  -0.092  54.990  1.00  0.00     0.312 HD
HETATM   11  H2  UNL     1      21.627  -0.388  55.930  1.00  0.00     0.312 HD
ENDBRANCH   8   9
ENDBRANCH   1   8
BRANCH   7  12
HETATM   12  C12 UNL     1      20.558   2.754  52.365  1.00  0.00     0.121 C 
HETATM   13  C13 UNL     1      20.552   3.587  51.366  1.00  0.00     0.051 C 
BRANCH  13  14
HETATM   14  C14 UNL     1      21.112   3.216  50.089  1.00  0.00     0.057 A 
HETATM   15  C15 UNL     1      22.445   3.447  49.802  1.00  0.00     0.031 A 
HETATM   16  C16 UNL     1      23.007   3.099  48.580  1.00  0.00     0.004 A 
HETATM   17  C17 UNL     1      22.155   2.499  47.646  1.00  0.00     0.019 A 
HETATM   18  C18 UNL     1      20.831   2.276  47.947  1.00  0.00     0.117 A 
HETATM   19  N4  UNL     1      20.346   2.637  49.153  1.00  0.00    -0.261 NA
ENDBRANCH  13  14
ENDBRANCH   7  12
BRANCH   3  20
HETATM   20  C5  UNL     1      26.406   0.583  53.781  1.00  0.00     0.103 C 
BRANCH  20  21
HETATM   21  C6  UNL     1      27.004   1.911  53.396  1.00  0.00     0.244 C 
HETATM   22  O1  UNL     1      27.847   2.409  54.123  1.00  0.00    -0.306 OA
ENDBRANCH  20  21
BRANCH  20  23
HETATM   23  C7  UNL     1      27.043  -0.530  53.074  1.00  0.00    -0.012 C 
HETATM   24  C8  UNL     1      28.215  -1.118  53.083  1.00  0.00     0.001 C 
BRANCH  24  25
HETATM   25  C9  UNL     1      29.403  -0.801  53.912  1.00  0.00     0.249 C 
HETATM   26  F1  UNL     1      30.336  -0.034  53.269  1.00  0.00    -0.251 F 
ENDBRANCH  24  25
ENDBRANCH  20  23
ENDBRANCH   3  20
TORSDOF 8
ENDMDL
MODEL 4
REMARK VINA RESULT:      -6.9      2.249      3.077
REMARK  8 active torsions:
REMARK  status: ('A' for Active; 'I' for Inactive)
REMARK    1  A    between atoms: N1_1  and  C1_2 
REMARK    2  A    between atoms: C1_2  and  C2_3 
REMARK    3  A    between atoms: C4_5  and  C5_6 
REMARK    4  A    between atoms: C5_6  and  C6_7 
REMARK    5  A    between atoms: C5_6  and  C7_9 
REMARK    6  A    between atoms: C8_10  and  C9_11 
REMARK    7  A    between atoms: N3_16  and  C12_17 
REMARK    8  A    between atoms: C13_18  and  C14_19 
ROOT
HETATM    1  C2  UNL     1      23.848   3.821  51.261  1.00  0.00     0.108 A 
HETATM    2  C3  UNL     1      23.733   2.679  52.175  1.00  0.00    -0.003 A 
HETATM    3  C4  UNL     1      24.664   1.793  52.401  1.00  0.00    -0.029 A 
HETATM    4  C10 UNL     1      25.930   1.898  51.722  1.00  0.00     0.126 A 
HETATM    5  N2  UNL     1      26.147   2.861  50.895  1.00  0.00    -0.244 NA
HETATM    6  C11 UNL     1      25.188   3.860  50.598  1.00  0.00     0.134 A 
HETATM    7  N3  UNL     1      25.447   4.809  49.763  1.00  0.00    -0.245 NA
ENDROOT
BRANCH   1   8
HETATM    8  C1  UNL     1      23.539   5.135  51.934  1.00  0.00     0.283 C 
BRANCH   8   9
HETATM    9  N1  UNL     1      23.928   5.154  53.330  1.00  0.00     0.079 N 
HETATM   10  H1  UNL     1      23.557   5.996  53.826  1.00  0.00     0.312 HD
HETATM   11  H2  UNL     1      23.568   4.308  53.813  1.00  0.00     0.312 HD
ENDBRANCH   8   9
ENDBRANCH   1   8
BRANCH   7  12
HETATM   12  C12 UNL     1      26.705   4.892  49.106  1.00  0.00     0.121 C 
HETATM   13  C13 UNL     1      27.367   5.868  48.559  1.00  0.00     0.051 C 
BRANCH  13  14
HETATM   14  C14 UNL     1      26.831   7.208  48.541  1.00  0.00     0.057 A 
HETATM   15  C15 UNL     1      26.183   7.701  47.423  1.00  0.00     0.031 A 
HETATM   16  C16 UNL     1      25.659   8.988  47.383  1.00  0.00     0.004 A 
HETATM   17  C17 UNL     1      25.819   9.766  48.534  1.00  0.00     0.019 A 
HETATM   18  C18 UNL     1      26.465   9.260  49.638  1.00  0.00     0.117 A 
HETATM   19  N4  UNL     1      26.952   8.002  49.615  1.00  0.00    -0.261 NA
ENDBRANCH  13  14
ENDBRANCH   7  12
BRANCH   3  20
HETATM   20  C5  UNL     1      24.518   0.631  53.347  1.00  0.00     0.103 C 
BRANCH  20  21
HETATM   21  C6  UNL     1      25.840  -0.089  53.293  1.00  0.00     0.244 C 
HETATM   22  O1  UNL     1      26.103  -0.904  54.161  1.00  0.00    -0.306 OA
ENDBRANCH  20  21
BRANCH  20  23
HETATM   23  C7  UNL     1      23.404  -0.242  52.971  1.00  0.00    -0.012 C 
HETATM   24  C8  UNL     1      22.485  -0.937  53.597  1.00  0.00     0.001 C 
BRANCH  24  25
HETATM   25  C9  UNL     1      22.262  -1.073  55.057  1.00  0.00     0.249 C 
HETATM   26  F1  UNL     1      23.101  -1.968  55.663  1.00  0.00    -0.251 F 
ENDBRANCH  24  25
ENDBRANCH  20  23
ENDBRANCH   3  20
TORSDOF 8
ENDMDL
MODEL 5
REMARK VINA RESULT:      -6.9      4.990      6.923
REMARK  8 active torsions:
REMARK  status: ('A' for Active; 'I' for Inactive)
REMARK    1  A    between atoms: N1_1  and  C1_2 
REMARK    2  A    between atoms: C1_2  and  C2_3 
REMARK    3  A    between atoms: C4_5  and  C5_6 
REMARK    4  A    between atoms: C5_6  and  C6_7 
REMARK    5  A    between atoms: C5_6  and  C7_9 
REMARK    6  A    between atoms: C8_10  and  C9_11 
REMARK    7  A    between atoms: N3_16  and  C12_17 
REMARK    8  A    between atoms: C13_18  and  C14_19 
ROOT
HETATM    1  C2  UNL     1      22.377  -0.551  53.013  1.00  0.00     0.108 A 
HETATM    2  C3  UNL     1      23.812  -0.315  53.204  1.00  0.00    -0.003 A 
HETATM    3  C4  UNL     1      24.532   0.550  52.544  1.00  0.00    -0.029 A 
HETATM    4  C10 UNL     1      23.914   1.368  51.531  1.00  0.00     0.126 A 
HETATM    5  N2  UNL     1      22.658   1.249  51.276  1.00  0.00    -0.244 NA
HETATM    6  C11 UNL     1      21.811   0.334  51.949  1.00  0.00     0.134 A 
HETATM    7  N3  UNL     1      20.557   0.248  51.662  1.00  0.00    -0.245 NA
ENDROOT
BRANCH   1   8
HETATM    8  C1  UNL     1      21.593  -0.423  54.295  1.00  0.00     0.283 C 
BRANCH   8   9
HETATM    9  N1  UNL     1      20.440  -1.299  54.336  1.00  0.00     0.079 N 
HETATM   10  H1  UNL     1      19.819  -1.165  53.505  1.00  0.00     0.312 HD
HETATM   11  H2  UNL     1      20.745  -2.292  54.356  1.00  0.00     0.312 HD
ENDBRANCH   8   9
ENDBRANCH   1   8
BRANCH   7  12
HETATM   12  C12 UNL     1      19.971   1.068  50.659  1.00  0.00     0.121 C 
HETATM   13  C13 UNL     1      18.767   1.173  50.180  1.00  0.00     0.051 C 
BRANCH  13  14
HETATM   14  C14 UNL     1      17.696   0.344  50.678  1.00  0.00     0.057 A 
HETATM   15  C15 UNL     1      16.822  -0.289  49.812  1.00  0.00     0.031 A 
HETATM   16  C16 UNL     1      15.784  -1.092  50.268  1.00  0.00     0.004 A 
HETATM   17  C17 UNL     1      15.663  -1.232  51.655  1.00  0.00     0.019 A 
HETATM   18  C18 UNL     1      16.540  -0.597  52.503  1.00  0.00     0.117 A 
HETATM   19  N4  UNL     1      17.528   0.170  51.998  1.00  0.00    -0.261 NA
ENDBRANCH  13  14
ENDBRANCH   7  12
BRANCH   3  20
HETATM   20  C5  UNL     1      26.005   0.771  52.762  1.00  0.00     0.103 C 
BRANCH  20  21
HETATM   21  C6  UNL     1      26.412   1.774  51.713  1.00  0.00     0.244 C 
HETATM   22  O1  UNL     1      27.447   2.399  51.867  1.00  0.00    -0.306 OA
ENDBRANCH  20  21
BRANCH  20  23
HETATM   23  C7  UNL     1      26.766  -0.474  52.652  1.00  0.00    -0.012 C 
HETATM   24  C8  UNL     1      27.911  -0.933  53.096  1.00  0.00     0.001 C 
BRANCH  24  25
HETATM   25  C9  UNL     1      28.913  -0.251  53.951  1.00  0.00     0.249 C 
HETATM   26  F1  UNL     1      30.144  -0.127  53.367  1.00  0.00    -0.251 F 
ENDBRANCH  24  25
ENDBRANCH  20  23
ENDBRANCH   3  20
TORSDOF 8
ENDMDL
MODEL 6
REMARK VINA RESULT:      -6.9      3.750      5.291
REMARK  8 active torsions:
REMARK  status: ('A' for Active; 'I' for Inactive)
REMARK    1  A    between atoms: N1_1  and  C1_2 
REMARK    2  A    between atoms: C1_2  and  C2_3 
REMARK    3  A    between atoms: C4_5  and  C5_6 
REMARK    4  A    between atoms: C5_6  and  C6_7 
REMARK    5  A    between atoms: C5_6  and  C7_9 
REMARK    6  A    between atoms: C8_10  and  C9_11 
REMARK    7  A    between atoms: N3_16  and  C12_17 
REMARK    8  A    between atoms: C13_18  and  C14_19 
ROOT
HETATM    1  C2  UNL     1      22.630  -0.039  53.223  1.00  0.00     0.108 A 
HETATM    2  C3  UNL     1      24.023  -0.496  53.246  1.00  0.00    -0.003 A 
HETATM    3  C4  UNL     1      25.062   0.221  52.910  1.00  0.00    -0.029 A 
HETATM    4  C10 UNL     1      24.878   1.582  52.474  1.00  0.00     0.126 A 
HETATM    5  N2  UNL     1      23.697   2.092  52.415  1.00  0.00    -0.244 NA
HETATM    6  C11 UNL     1      22.524   1.379  52.762  1.00  0.00     0.134 A 
HETATM    7  N3  UNL     1      21.360   1.930  52.689  1.00  0.00    -0.245 NA
ENDROOT
BRANCH   1   8
HETATM    8  C1  UNL     1      21.937  -0.230  54.550  1.00  0.00     0.283 C 
BRANCH   8   9
HETATM    9  N1  UNL     1      20.519  -0.493  54.408  1.00  0.00     0.079 N 
HETATM   10  H1  UNL     1      20.334  -1.482  54.124  1.00  0.00     0.312 HD
HETATM   11  H2  UNL     1      20.031  -0.317  55.307  1.00  0.00     0.312 HD
ENDBRANCH   8   9
ENDBRANCH   1   8
BRANCH   7  12
HETATM   12  C12 UNL     1      21.205   3.275  52.257  1.00  0.00     0.121 C 
HETATM   13  C13 UNL     1      20.265   3.909  51.621  1.00  0.00     0.051 C 
BRANCH  13  14
HETATM   14  C14 UNL     1      19.063   3.227  51.203  1.00  0.00     0.057 A 
HETATM   15  C15 UNL     1      19.063   2.399  50.096  1.00  0.00     0.031 A 
HETATM   16  C16 UNL     1      17.919   1.732  49.674  1.00  0.00     0.004 A 
HETATM   17  C17 UNL     1      16.759   1.939  50.429  1.00  0.00     0.019 A 
HETATM   18  C18 UNL     1      16.776   2.765  51.529  1.00  0.00     0.117 A 
HETATM   19  N4  UNL     1      17.920   3.385  51.887  1.00  0.00    -0.261 NA
ENDBRANCH  13  14
ENDBRANCH   7  12
BRANCH   3  20
HETATM   20  C5  UNL     1      26.482  -0.275  52.943  1.00  0.00     0.103 C 
BRANCH  20  21
HETATM   21  C6  UNL     1      26.378  -1.774  52.830  1.00  0.00     0.244 C 
HETATM   22  O1  UNL     1      27.403  -2.436  52.813  1.00  0.00    -0.306 OA
ENDBRANCH  20  21
BRANCH  20  23
HETATM   23  C7  UNL     1      27.174   0.134  54.167  1.00  0.00    -0.012 C 
HETATM   24  C8  UNL     1      28.414   0.354  54.532  1.00  0.00     0.001 C 
BRANCH  24  25
HETATM   25  C9  UNL     1      29.651   0.242  53.721  1.00  0.00     0.249 C 
HETATM   26  F1  UNL     1      30.209  -1.007  53.735  1.00  0.00    -0.251 F 
ENDBRANCH  24  25
ENDBRANCH  20  23
ENDBRANCH   3  20
TORSDOF 8
ENDMDL
MODEL 7
REMARK VINA RESULT:      -6.7      3.402      5.522
REMARK  8 active torsions:
REMARK  status: ('A' for Active; 'I' for Inactive)
REMARK    1  A    between atoms: N1_1  and  C1_2 
REMARK    2  A    between atoms: C1_2  and  C2_3 
REMARK    3  A    between atoms: C4_5  and  C5_6 
REMARK    4  A    between atoms: C5_6  and  C6_7 
REMARK    5  A    between atoms: C5_6  and  C7_9 
REMARK    6  A    between atoms: C8_10  and  C9_11 
REMARK    7  A    between atoms: N3_16  and  C12_17 
REMARK    8  A    between atoms: C13_18  and  C14_19 
ROOT
HETATM    1  C2  UNL     1      23.611   3.355  52.812  1.00  0.00     0.108 A 
HETATM    2  C3  UNL     1      24.822   2.826  53.447  1.00  0.00    -0.003 A 
HETATM    3  C4  UNL     1      25.481   1.768  53.061  1.00  0.00    -0.029 A 
HETATM    4  C10 UNL     1      25.021   1.020  51.917  1.00  0.00     0.126 A 
HETATM    5  N2  UNL     1      23.967   1.391  51.278  1.00  0.00    -0.244 NA
HETATM    6  C11 UNL     1      23.201   2.527  51.636  1.00  0.00     0.134 A 
HETATM    7  N3  UNL     1      22.151   2.864  50.967  1.00  0.00    -0.245 NA
ENDROOT
BRANCH   1   8
HETATM    8  C1  UNL     1      23.746   4.808  52.428  1.00  0.00     0.283 C 
BRANCH   8   9
HETATM    9  N1  UNL     1      22.475   5.504  52.414  1.00  0.00     0.079 N 
HETATM   10  H1  UNL     1      22.469   6.289  51.723  1.00  0.00     0.312 HD
HETATM   11  H2  UNL     1      21.710   4.847  52.166  1.00  0.00     0.312 HD
ENDBRANCH   8   9
ENDBRANCH   1   8
BRANCH   7  12
HETATM   12  C12 UNL     1      21.719   2.110  49.842  1.00  0.00     0.121 C 
HETATM   13  C13 UNL     1      20.887   1.122  49.693  1.00  0.00     0.051 C 
BRANCH  13  14
HETATM   14  C14 UNL     1      20.179   0.572  50.824  1.00  0.00     0.057 A 
HETATM   15  C15 UNL     1      18.798   0.529  50.848  1.00  0.00     0.031 A 
HETATM   16  C16 UNL     1      18.095   0.003  51.926  1.00  0.00     0.004 A 
HETATM   17  C17 UNL     1      18.857  -0.484  52.993  1.00  0.00     0.019 A 
HETATM   18  C18 UNL     1      20.231  -0.434  52.953  1.00  0.00     0.117 A 
HETATM   19  N4  UNL     1      20.855   0.089  51.878  1.00  0.00    -0.261 NA
ENDBRANCH  13  14
ENDBRANCH   7  12
BRANCH   3  20
HETATM   20  C5  UNL     1      26.723   1.248  53.733  1.00  0.00     0.103 C 
BRANCH  20  21
HETATM   21  C6  UNL     1      27.776   2.295  53.477  1.00  0.00     0.244 C 
HETATM   22  O1  UNL     1      28.112   2.525  52.328  1.00  0.00    -0.306 OA
ENDBRANCH  20  21
BRANCH  20  23
HETATM   23  C7  UNL     1      27.117  -0.062  53.212  1.00  0.00    -0.012 C 
HETATM   24  C8  UNL     1      28.168  -0.842  53.292  1.00  0.00     0.001 C 
BRANCH  24  25
HETATM   25  C9  UNL     1      29.438  -0.612  54.024  1.00  0.00     0.249 C 
HETATM   26  F1  UNL     1      30.353   0.125  53.323  1.00  0.00    -0.251 F 
ENDBRANCH  24  25
ENDBRANCH  20  23
ENDBRANCH   3  20
TORSDOF 8
ENDMDL
MODEL 8
REMARK VINA RESULT:      -6.6      3.609      7.858
REMARK  8 active torsions:
REMARK  status: ('A' for Active; 'I' for Inactive)
REMARK    1  A    between atoms: N1_1  and  C1_2 
REMARK    2  A    between atoms: C1_2  and  C2_3 
REMARK    3  A    between atoms: C4_5  and  C5_6 
REMARK    4  A    between atoms: C5_6  and  C6_7 
REMARK    5  A    between atoms: C5_6  and  C7_9 
REMARK    6  A    between atoms: C8_10  and  C9_11 
REMARK    7  A    between atoms: N3_16  and  C12_17 
REMARK    8  A    between atoms: C13_18  and  C14_19 
ROOT
HETATM    1  C2  UNL     1      24.746   2.841  50.087  1.00  0.00     0.108 A 
HETATM    2  C3  UNL     1      24.032   4.083  49.775  1.00  0.00    -0.003 A 
HETATM    3  C4  UNL     1      23.111   4.636  50.517  1.00  0.00    -0.029 A 
HETATM    4  C10 UNL     1      22.728   4.014  51.759  1.00  0.00     0.126 A 
HETATM    5  N2  UNL     1      23.288   2.919  52.138  1.00  0.00    -0.244 NA
HETATM    6  C11 UNL     1      24.293   2.260  51.389  1.00  0.00     0.134 A 
HETATM    7  N3  UNL     1      24.829   1.163  51.806  1.00  0.00    -0.245 NA
ENDROOT
BRANCH   1   8
HETATM    8  C1  UNL     1      26.245   3.014  50.065  1.00  0.00     0.283 C 
BRANCH   8   9
HETATM    9  N1  UNL     1      26.801   3.248  51.382  1.00  0.00     0.079 N 
HETATM   10  H1  UNL     1      26.512   4.177  51.767  1.00  0.00     0.312 HD
HETATM   11  H2  UNL     1      26.483   2.511  52.041  1.00  0.00     0.312 HD
ENDBRANCH   8   9
ENDBRANCH   1   8
BRANCH   7  12
HETATM   12  C12 UNL     1      24.434   0.570  53.036  1.00  0.00     0.121 C 
HETATM   13  C13 UNL     1      25.086   0.000  54.005  1.00  0.00     0.051 C 
BRANCH  13  14
HETATM   14  C14 UNL     1      26.523  -0.127  53.957  1.00  0.00     0.057 A 
HETATM   15  C15 UNL     1      27.127  -1.097  53.178  1.00  0.00     0.031 A 
HETATM   16  C16 UNL     1      28.508  -1.238  53.116  1.00  0.00     0.004 A 
HETATM   17  C17 UNL     1      29.265  -0.347  53.884  1.00  0.00     0.019 A 
HETATM   18  C18 UNL     1      28.649   0.612  54.654  1.00  0.00     0.117 A 
HETATM   19  N4  UNL     1      27.303   0.699  54.672  1.00  0.00    -0.261 NA
ENDBRANCH  13  14
ENDBRANCH   7  12
BRANCH   3  20
HETATM   20  C5  UNL     1      22.395   5.914  50.170  1.00  0.00     0.103 C 
BRANCH  20  21
HETATM   21  C6  UNL     1      22.523   6.043  48.674  1.00  0.00     0.244 C 
HETATM   22  O1  UNL     1      21.612   6.557  48.048  1.00  0.00    -0.306 OA
ENDBRANCH  20  21
BRANCH  20  23
HETATM   23  C7  UNL     1      22.966   7.066  50.870  1.00  0.00    -0.012 C 
HETATM   24  C8  UNL     1      24.108   7.711  50.868  1.00  0.00     0.001 C 
BRANCH  24  25
HETATM   25  C9  UNL     1      25.323   7.441  50.061  1.00  0.00     0.249 C 
HETATM   26  F1  UNL     1      26.474   7.929  50.616  1.00  0.00    -0.251 F 
ENDBRANCH  24  25
ENDBRANCH  20  23
ENDBRANCH   3  20
TORSDOF 8
ENDMDL
MODEL 9
REMARK VINA RESULT:      -6.6      4.415      8.022
REMARK  8 active torsions:
REMARK  status: ('A' for Active; 'I' for Inactive)
REMARK    1  A    between atoms: N1_1  and  C1_2 
REMARK    2  A    between atoms: C1_2  and  C2_3 
REMARK    3  A    between atoms: C4_5  and  C5_6 
REMARK    4  A    between atoms: C5_6  and  C6_7 
REMARK    5  A    between atoms: C5_6  and  C7_9 
REMARK    6  A    between atoms: C8_10  and  C9_11 
REMARK    7  A    between atoms: N3_16  and  C12_17 
REMARK    8  A    between atoms: C13_18  and  C14_19 
ROOT
HETATM    1  C2  UNL     1      25.937   5.047  49.005  1.00  0.00     0.108 A 
HETATM    2  C3  UNL     1      26.734   6.270  48.862  1.00  0.00    -0.003 A 
HETATM    3  C4  UNL     1      26.542   7.382  49.519  1.00  0.00    -0.029 A 
HETATM    4  C10 UNL     1      25.471   7.466  50.480  1.00  0.00     0.126 A 
HETATM    5  N2  UNL     1      24.705   6.454  50.691  1.00  0.00    -0.244 NA
HETATM    6  C11 UNL     1      24.850   5.216  50.018  1.00  0.00     0.134 A 
HETATM    7  N3  UNL     1      24.060   4.225  50.261  1.00  0.00    -0.245 NA
ENDROOT
BRANCH   1   8
HETATM    8  C1  UNL     1      26.784   3.838  49.317  1.00  0.00     0.283 C 
BRANCH   8   9
HETATM    9  N1  UNL     1      26.839   3.545  50.735  1.00  0.00     0.079 N 
HETATM   10  H1  UNL     1      27.060   2.539  50.916  1.00  0.00     0.312 HD
HETATM   11  H2  UNL     1      27.570   4.125  51.192  1.00  0.00     0.312 HD
ENDBRANCH   8   9
ENDBRANCH   1   8
BRANCH   7  12
HETATM   12  C12 UNL     1      23.011   4.334  51.214  1.00  0.00     0.121 C 
HETATM   13  C13 UNL     1      22.700   3.664  52.284  1.00  0.00     0.051 C 
BRANCH  13  14
HETATM   14  C14 UNL     1      23.502   2.545  52.716  1.00  0.00     0.057 A 
HETATM   15  C15 UNL     1      23.006   1.255  52.673  1.00  0.00     0.031 A 
HETATM   16  C16 UNL     1      23.760   0.162  53.084  1.00  0.00     0.004 A 
HETATM   17  C17 UNL     1      25.053   0.429  53.545  1.00  0.00     0.019 A 
HETATM   18  C18 UNL     1      25.532   1.719  53.581  1.00  0.00     0.117 A 
HETATM   19  N4  UNL     1      24.750   2.738  53.168  1.00  0.00    -0.261 NA
ENDBRANCH  13  14
ENDBRANCH   7  12
BRANCH   3  20
HETATM   20  C5  UNL     1      27.378   8.622  49.352  1.00  0.00     0.103 C 
BRANCH  20  21
HETATM   21  C6  UNL     1      26.409   9.693  48.921  1.00  0.00     0.244 C 
HETATM   22  O1  UNL     1      26.610  10.844  49.270  1.00  0.00    -0.306 OA
ENDBRANCH  20  21
BRANCH  20  23
HETATM   23  C7  UNL     1      28.451   8.429  48.375  1.00  0.00    -0.012 C 
HETATM   24  C8  UNL     1      29.743   8.646  48.324  1.00  0.00     0.001 C 
BRANCH  24  25
HETATM   25  C9  UNL     1      30.627   9.223  49.366  1.00  0.00     0.249 C 
HETATM   26  F1  UNL     1      30.421  10.557  49.587  1.00  0.00    -0.251 F 
ENDBRANCH  24  25
ENDBRANCH  20  23
ENDBRANCH   3  20
TORSDOF 8
ENDMDL
