MODEL 1
REMARK VINA RESULT:      -7.8      0.000      0.000
REMARK  6 active torsions:
REMARK  status: ('A' for Active; 'I' for Inactive)
REMARK    1  A    between atoms: C2_2  and  O1_3 
REMARK    2  A    between atoms: O1_3  and  N1_4 
REMARK    3  A    between atoms: N1_4  and  C3_5 
REMARK    4  A    between atoms: N1_4  and  C9_11 
REMARK    5  A    between atoms: C13_17  and  O2_18 
REMARK    6  A    between atoms: C15_20  and  O3_21 
ROOT
HETATM    1  C9  UNL     1      24.153  -0.421  53.850  1.00  0.00     0.169 A 
HETATM    2  N2  UNL     1      24.402  -1.027  55.049  1.00  0.00    -0.221 NA
HETATM    3  C10 UNL     1      23.389  -1.550  55.766  1.00  0.00     0.236 A 
HETATM    4  N3  UNL     1      22.126  -1.508  55.359  1.00  0.00    -0.241 NA
HETATM    5  C11 UNL     1      21.844  -0.921  54.188  1.00  0.00     0.075 A 
HETATM    6  C12 UNL     1      20.563  -0.788  53.640  1.00  0.00     0.072 A 
HETATM    7  C13 UNL     1      20.338  -0.151  52.415  1.00  0.00     0.103 A 
HETATM    8  C15 UNL     1      21.394   0.375  51.698  1.00  0.00     0.102 A 
HETATM    9  C17 UNL     1      22.667   0.261  52.210  1.00  0.00     0.057 A 
HETATM   10  C18 UNL     1      22.850  -0.362  53.402  1.00  0.00     0.044 A 
ENDROOT
BRANCH   1  11
HETATM   11  N1  UNL     1      25.328   0.081  53.229  1.00  0.00    -0.203 N 
BRANCH  11  12
HETATM   12  O1  UNL     1      25.236   1.251  52.605  1.00  0.00    -0.272 OA
BRANCH  12  13
HETATM   13  C2  UNL     1      25.284   2.379  53.380  1.00  0.00     0.197 C 
HETATM   14  C1  UNL     1      24.215   3.388  53.016  1.00  0.00     0.036 C 
ENDBRANCH  12  13
ENDBRANCH  11  12
BRANCH  11  15
HETATM   15  C3  UNL     1      26.617  -0.548  53.224  1.00  0.00     0.065 A 
HETATM   16  C4  UNL     1      27.713   0.008  53.843  1.00  0.00     0.032 A 
HETATM   17  C5  UNL     1      28.956  -0.580  53.865  1.00  0.00     0.002 A 
HETATM   18  C6  UNL     1      29.171  -1.823  53.231  1.00  0.00     0.000 A 
HETATM   19  C7  UNL     1      28.012  -2.232  52.677  1.00  0.00     0.002 A 
HETATM   20  C8  UNL     1      26.718  -1.811  52.546  1.00  0.00     0.032 A 
ENDBRANCH  11  15
ENDBRANCH   1  11
BRANCH   8  21
HETATM   21  O3  UNL     1      20.962   0.952  50.532  1.00  0.00    -0.353 OA
HETATM   22  C16 UNL     1      21.853   1.212  49.479  1.00  0.00     0.210 C 
ENDBRANCH   8  21
BRANCH   7  23
HETATM   23  O2  UNL     1      18.999  -0.132  52.055  1.00  0.00    -0.353 OA
HETATM   24  C14 UNL     1      18.022  -0.879  52.753  1.00  0.00     0.210 C 
ENDBRANCH   7  23
TORSDOF 6
ENDMDL
MODEL 2
REMARK VINA RESULT:      -7.6      2.473      6.847
REMARK  6 active torsions:
REMARK  status: ('A' for Active; 'I' for Inactive)
REMARK    1  A    between atoms: C2_2  and  O1_3 
REMARK    2  A    between atoms: O1_3  and  N1_4 
REMARK    3  A    between atoms: N1_4  and  C3_5 
REMARK    4  A    between atoms: N1_4  and  C9_11 
REMARK    5  A    between atoms: C13_17  and  O2_18 
REMARK    6  A    between atoms: C15_20  and  O3_21 
ROOT
HETATM    1  C9  UNL     1      22.025   2.063  51.718  1.00  0.00     0.169 A 
HETATM    2  N2  UNL     1      21.402   3.273  51.587  1.00  0.00    -0.221 NA
HETATM    3  C10 UNL     1      21.988   4.390  52.058  1.00  0.00     0.236 A 
HETATM    4  N3  UNL     1      23.172   4.379  52.660  1.00  0.00    -0.241 NA
HETATM    5  C11 UNL     1      23.812   3.212  52.808  1.00  0.00     0.075 A 
HETATM    6  C12 UNL     1      25.053   3.044  53.432  1.00  0.00     0.072 A 
HETATM    7  C13 UNL     1      25.659   1.790  53.563  1.00  0.00     0.103 A 
HETATM    8  C15 UNL     1      25.039   0.661  53.070  1.00  0.00     0.102 A 
HETATM    9  C17 UNL     1      23.817   0.790  52.449  1.00  0.00     0.057 A 
HETATM   10  C18 UNL     1      23.255   2.023  52.340  1.00  0.00     0.044 A 
ENDROOT
BRANCH   1  11
HETATM   11  N1  UNL     1      21.269   0.990  51.175  1.00  0.00    -0.203 N 
BRANCH  11  12
HETATM   12  O1  UNL     1      21.605   0.560  49.962  1.00  0.00    -0.272 OA
BRANCH  12  13
HETATM   13  C2  UNL     1      21.159   1.291  48.894  1.00  0.00     0.197 C 
HETATM   14  C1  UNL     1      22.286   1.840  48.045  1.00  0.00     0.036 C 
ENDBRANCH  12  13
ENDBRANCH  11  12
BRANCH  11  15
HETATM   15  C3  UNL     1      20.183   0.308  51.818  1.00  0.00     0.065 A 
HETATM   16  C4  UNL     1      18.926   0.236  51.264  1.00  0.00     0.032 A 
HETATM   17  C5  UNL     1      17.871  -0.422  51.854  1.00  0.00     0.002 A 
HETATM   18  C6  UNL     1      18.038  -1.075  53.095  1.00  0.00     0.000 A 
HETATM   19  C7  UNL     1      19.313  -0.914  53.500  1.00  0.00     0.002 A 
HETATM   20  C8  UNL     1      20.469  -0.318  53.079  1.00  0.00     0.032 A 
ENDBRANCH  11  15
ENDBRANCH   1  11
BRANCH   8  21
HETATM   21  O3  UNL     1      25.796  -0.459  53.297  1.00  0.00    -0.353 OA
HETATM   22  C16 UNL     1      26.648  -0.972  52.307  1.00  0.00     0.210 C 
ENDBRANCH   8  21
BRANCH   7  23
HETATM   23  O2  UNL     1      26.885   1.850  54.210  1.00  0.00    -0.353 OA
HETATM   24  C14 UNL     1      28.062   2.278  53.553  1.00  0.00     0.210 C 
ENDBRANCH   7  23
TORSDOF 6
ENDMDL
MODEL 3
REMARK VINA RESULT:      -7.5      2.703      6.646
REMARK  6 active torsions:
REMARK  status: ('A' for Active; 'I' for Inactive)
REMARK    1  A    between atoms: C2_2  and  O1_3 
REMARK    2  A    between atoms: O1_3  and  N1_4 
REMARK    3  A    between atoms: N1_4  and  C3_5 
REMARK    4  A    between atoms: N1_4  and  C9_11 
REMARK    5  A    between atoms: C13_17  and  O2_18 
REMARK    6  A    between atoms: C15_20  and  O3_21 
ROOT
HETATM    1  C9  UNL     1      24.550   2.614  51.889  1.00  0.00     0.169 A 
HETATM    2  N2  UNL     1      25.000   3.423  50.883  1.00  0.00    -0.221 NA
HETATM    3  C10 UNL     1      26.283   3.352  50.482  1.00  0.00     0.236 A 
HETATM    4  N3  UNL     1      27.159   2.515  51.026  1.00  0.00    -0.241 NA
HETATM    5  C11 UNL     1      26.754   1.708  52.015  1.00  0.00     0.075 A 
HETATM    6  C12 UNL     1      27.565   0.790  52.692  1.00  0.00     0.072 A 
HETATM    7  C13 UNL     1      27.078  -0.015  53.727  1.00  0.00     0.103 A 
HETATM    8  C15 UNL     1      25.758   0.075  54.118  1.00  0.00     0.102 A 
HETATM    9  C17 UNL     1      24.932   0.969  53.473  1.00  0.00     0.057 A 
HETATM   10  C18 UNL     1      25.438   1.736  52.473  1.00  0.00     0.044 A 
ENDROOT
BRANCH   1  11
HETATM   11  N1  UNL     1      23.177   2.821  52.192  1.00  0.00    -0.203 N 
BRANCH  11  12
HETATM   12  O1  UNL     1      22.842   3.984  52.743  1.00  0.00    -0.272 OA
BRANCH  12  13
HETATM   13  C2  UNL     1      21.897   4.734  52.096  1.00  0.00     0.197 C 
HETATM   14  C1  UNL     1      22.497   5.852  51.270  1.00  0.00     0.036 C 
ENDBRANCH  12  13
ENDBRANCH  11  12
BRANCH  11  15
HETATM   15  C3  UNL     1      22.107   1.898  51.945  1.00  0.00     0.065 A 
HETATM   16  C4  UNL     1      21.297   1.420  52.949  1.00  0.00     0.032 A 
HETATM   17  C5  UNL     1      20.257   0.545  52.737  1.00  0.00     0.002 A 
HETATM   18  C6  UNL     1      19.963   0.084  51.434  1.00  0.00     0.000 A 
HETATM   19  C7  UNL     1      20.837   0.639  50.572  1.00  0.00     0.002 A 
HETATM   20  C8  UNL     1      21.902   1.497  50.580  1.00  0.00     0.032 A 
ENDBRANCH  11  15
ENDBRANCH   1  11
BRANCH   8  21
HETATM   21  O3  UNL     1      25.484  -0.795  55.142  1.00  0.00    -0.353 OA
HETATM   22  C16 UNL     1      24.171  -1.220  55.400  1.00  0.00     0.210 C 
ENDBRANCH   8  21
BRANCH   7  23
HETATM   23  O2  UNL     1      28.046  -0.855  54.257  1.00  0.00    -0.353 OA
HETATM   24  C14 UNL     1      29.371  -0.882  53.764  1.00  0.00     0.210 C 
ENDBRANCH   7  23
TORSDOF 6
ENDMDL
MODEL 4
REMARK VINA RESULT:      -7.4      1.330      3.620
REMARK  6 active torsions:
REMARK  status: ('A' for Active; 'I' for Inactive)
REMARK    1  A    between atoms: C2_2  and  O1_3 
REMARK    2  A    between atoms: O1_3  and  N1_4 
REMARK    3  A    between atoms: N1_4  and  C3_5 
REMARK    4  A    between atoms: N1_4  and  C9_11 
REMARK    5  A    between atoms: C13_17  and  O2_18 
REMARK    6  A    between atoms: C15_20  and  O3_21 
ROOT
HETATM    1  C9  UNL     1      23.791  -0.091  53.475  1.00  0.00     0.169 A 
HETATM    2  N2  UNL     1      24.520  -0.629  54.499  1.00  0.00    -0.221 NA
HETATM    3  C10 UNL     1      23.914  -1.375  55.442  1.00  0.00     0.236 A 
HETATM    4  N3  UNL     1      22.609  -1.623  55.430  1.00  0.00    -0.241 NA
HETATM    5  C11 UNL     1      21.863  -1.112  54.443  1.00  0.00     0.075 A 
HETATM    6  C12 UNL     1      20.479  -1.275  54.309  1.00  0.00     0.072 A 
HETATM    7  C13 UNL     1      19.758  -0.701  53.257  1.00  0.00     0.103 A 
HETATM    8  C15 UNL     1      20.403   0.057  52.302  1.00  0.00     0.102 A 
HETATM    9  C17 UNL     1      21.765   0.238  52.404  1.00  0.00     0.057 A 
HETATM   10  C18 UNL     1      22.434  -0.332  53.439  1.00  0.00     0.044 A 
ENDROOT
BRANCH   1  11
HETATM   11  N1  UNL     1      24.582   0.672  52.574  1.00  0.00    -0.203 N 
BRANCH  11  12
HETATM   12  O1  UNL     1      25.666   0.090  52.072  1.00  0.00    -0.272 OA
BRANCH  12  13
HETATM   13  C2  UNL     1      26.879   0.624  52.416  1.00  0.00     0.197 C 
HETATM   14  C1  UNL     1      27.804  -0.385  53.062  1.00  0.00     0.036 C 
ENDBRANCH  12  13
ENDBRANCH  11  12
BRANCH  11  15
HETATM   15  C3  UNL     1      24.312   2.010  52.136  1.00  0.00     0.065 A 
HETATM   16  C4  UNL     1      24.190   2.343  50.806  1.00  0.00     0.032 A 
HETATM   17  C5  UNL     1      23.919   3.616  50.361  1.00  0.00     0.002 A 
HETATM   18  C6  UNL     1      23.747   4.674  51.280  1.00  0.00     0.000 A 
HETATM   19  C7  UNL     1      23.895   4.191  52.529  1.00  0.00     0.002 A 
HETATM   20  C8  UNL     1      24.158   3.007  53.160  1.00  0.00     0.032 A 
ENDBRANCH  11  15
ENDBRANCH   1  11
BRANCH   8  21
HETATM   21  O3  UNL     1      19.521   0.525  51.362  1.00  0.00    -0.353 OA
HETATM   22  C16 UNL     1      19.974   1.055  50.144  1.00  0.00     0.210 C 
ENDBRANCH   8  21
BRANCH   7  23
HETATM   23  O2  UNL     1      18.403  -0.991  53.312  1.00  0.00    -0.353 OA
HETATM   24  C14 UNL     1      17.922  -2.290  53.595  1.00  0.00     0.210 C 
ENDBRANCH   7  23
TORSDOF 6
ENDMDL
MODEL 5
REMARK VINA RESULT:      -7.4      2.156      6.033
REMARK  6 active torsions:
REMARK  status: ('A' for Active; 'I' for Inactive)
REMARK    1  A    between atoms: C2_2  and  O1_3 
REMARK    2  A    between atoms: O1_3  and  N1_4 
REMARK    3  A    between atoms: N1_4  and  C3_5 
REMARK    4  A    between atoms: N1_4  and  C9_11 
REMARK    5  A    between atoms: C13_17  and  O2_18 
REMARK    6  A    between atoms: C15_20  and  O3_21 
ROOT
HETATM    1  C9  UNL     1      22.596   0.967  52.704  1.00  0.00     0.169 A 
HETATM    2  N2  UNL     1      21.767   0.160  53.432  1.00  0.00    -0.221 NA
HETATM    3  C10 UNL     1      22.283  -0.763  54.265  1.00  0.00     0.236 A 
HETATM    4  N3  UNL     1      23.590  -0.937  54.422  1.00  0.00    -0.241 NA
HETATM    5  C11 UNL     1      24.433  -0.165  53.724  1.00  0.00     0.075 A 
HETATM    6  C12 UNL     1      25.829  -0.244  53.774  1.00  0.00     0.072 A 
HETATM    7  C13 UNL     1      26.651   0.587  53.006  1.00  0.00     0.103 A 
HETATM    8  C15 UNL     1      26.098   1.527  52.161  1.00  0.00     0.102 A 
HETATM    9  C17 UNL     1      24.727   1.631  52.088  1.00  0.00     0.057 A 
HETATM   10  C18 UNL     1      23.958   0.808  52.847  1.00  0.00     0.044 A 
ENDROOT
BRANCH   1  11
HETATM   11  N1  UNL     1      21.891   1.878  51.873  1.00  0.00    -0.203 N 
BRANCH  11  12
HETATM   12  O1  UNL     1      21.038   2.708  52.464  1.00  0.00    -0.272 OA
BRANCH  12  13
HETATM   13  C2  UNL     1      19.710   2.558  52.168  1.00  0.00     0.197 C 
HETATM   14  C1  UNL     1      19.122   3.764  51.467  1.00  0.00     0.036 C 
ENDBRANCH  12  13
ENDBRANCH  11  12
BRANCH  11  15
HETATM   15  C3  UNL     1      22.023   2.003  50.450  1.00  0.00     0.065 A 
HETATM   16  C4  UNL     1      22.602   3.100  49.855  1.00  0.00     0.032 A 
HETATM   17  C5  UNL     1      22.752   3.238  48.495  1.00  0.00     0.002 A 
HETATM   18  C6  UNL     1      22.306   2.225  47.618  1.00  0.00     0.000 A 
HETATM   19  C7  UNL     1      21.769   1.227  48.348  1.00  0.00     0.002 A 
HETATM   20  C8  UNL     1      21.532   0.910  49.657  1.00  0.00     0.032 A 
ENDBRANCH  11  15
ENDBRANCH   1  11
BRANCH   8  21
HETATM   21  O3  UNL     1      27.071   2.236  51.505  1.00  0.00    -0.353 OA
HETATM   22  C16 UNL     1      26.739   3.183  50.523  1.00  0.00     0.210 C 
ENDBRANCH   8  21
BRANCH   7  23
HETATM   23  O2  UNL     1      28.002   0.345  53.210  1.00  0.00    -0.353 OA
HETATM   24  C14 UNL     1      28.557   0.218  54.504  1.00  0.00     0.210 C 
ENDBRANCH   7  23
TORSDOF 6
ENDMDL
MODEL 6
REMARK VINA RESULT:      -7.2      1.962      3.631
REMARK  6 active torsions:
REMARK  status: ('A' for Active; 'I' for Inactive)
REMARK    1  A    between atoms: C2_2  and  O1_3 
REMARK    2  A    between atoms: O1_3  and  N1_4 
REMARK    3  A    between atoms: N1_4  and  C3_5 
REMARK    4  A    between atoms: N1_4  and  C9_11 
REMARK    5  A    between atoms: C13_17  and  O2_18 
REMARK    6  A    between atoms: C15_20  and  O3_21 
ROOT
HETATM    1  C9  UNL     1      25.941   1.459  52.463  1.00  0.00     0.169 A 
HETATM    2  N2  UNL     1      26.818   2.280  51.811  1.00  0.00    -0.221 NA
HETATM    3  C10 UNL     1      26.398   3.035  50.779  1.00  0.00     0.236 A 
HETATM    4  N3  UNL     1      25.142   3.025  50.347  1.00  0.00    -0.241 NA
HETATM    5  C11 UNL     1      24.254   2.232  50.961  1.00  0.00     0.075 A 
HETATM    6  C12 UNL     1      22.906   2.105  50.609  1.00  0.00     0.072 A 
HETATM    7  C13 UNL     1      22.035   1.246  51.287  1.00  0.00     0.103 A 
HETATM    8  C15 UNL     1      22.489   0.484  52.343  1.00  0.00     0.102 A 
HETATM    9  C17 UNL     1      23.811   0.585  52.716  1.00  0.00     0.057 A 
HETATM   10  C18 UNL     1      24.630   1.428  52.036  1.00  0.00     0.044 A 
ENDROOT
BRANCH   1  11
HETATM   11  N1  UNL     1      26.547   0.729  53.521  1.00  0.00    -0.203 N 
BRANCH  11  12
HETATM   12  O1  UNL     1      26.162   1.019  54.760  1.00  0.00    -0.272 OA
BRANCH  12  13
HETATM   13  C2  UNL     1      26.196   0.005  55.679  1.00  0.00     0.197 C 
HETATM   14  C1  UNL     1      24.913  -0.798  55.717  1.00  0.00     0.036 C 
ENDBRANCH  12  13
ENDBRANCH  11  12
BRANCH  11  15
HETATM   15  C3  UNL     1      27.527  -0.308  53.381  1.00  0.00     0.065 A 
HETATM   16  C4  UNL     1      28.841  -0.138  53.750  1.00  0.00     0.032 A 
HETATM   17  C5  UNL     1      29.798  -1.120  53.638  1.00  0.00     0.002 A 
HETATM   18  C6  UNL     1      29.462  -2.391  53.122  1.00  0.00     0.000 A 
HETATM   19  C7  UNL     1      28.150  -2.399  52.810  1.00  0.00     0.002 A 
HETATM   20  C8  UNL     1      27.071  -1.560  52.842  1.00  0.00     0.032 A 
ENDBRANCH  11  15
ENDBRANCH   1  11
BRANCH   8  21
HETATM   21  O3  UNL     1      21.483  -0.285  52.868  1.00  0.00    -0.353 OA
HETATM   22  C16 UNL     1      21.228  -0.301  54.249  1.00  0.00     0.210 C 
ENDBRANCH   8  21
BRANCH   7  23
HETATM   23  O2  UNL     1      20.744   1.276  50.779  1.00  0.00    -0.353 OA
HETATM   24  C14 UNL     1      19.826   2.297  51.118  1.00  0.00     0.210 C 
ENDBRANCH   7  23
TORSDOF 6
ENDMDL
MODEL 7
REMARK VINA RESULT:      -6.9      2.885      5.490
REMARK  6 active torsions:
REMARK  status: ('A' for Active; 'I' for Inactive)
REMARK    1  A    between atoms: C2_2  and  O1_3 
REMARK    2  A    between atoms: O1_3  and  N1_4 
REMARK    3  A    between atoms: N1_4  and  C3_5 
REMARK    4  A    between atoms: N1_4  and  C9_11 
REMARK    5  A    between atoms: C13_17  and  O2_18 
REMARK    6  A    between atoms: C15_20  and  O3_21 
ROOT
HETATM    1  C9  UNL     1      24.973   2.306  51.063  1.00  0.00     0.169 A 
HETATM    2  N2  UNL     1      26.305   2.004  51.121  1.00  0.00    -0.221 NA
HETATM    3  C10 UNL     1      26.754   1.095  52.006  1.00  0.00     0.236 A 
HETATM    4  N3  UNL     1      25.950   0.459  52.851  1.00  0.00    -0.241 NA
HETATM    5  C11 UNL     1      24.639   0.730  52.823  1.00  0.00     0.075 A 
HETATM    6  C12 UNL     1      23.677   0.151  53.659  1.00  0.00     0.072 A 
HETATM    7  C13 UNL     1      22.323   0.491  53.585  1.00  0.00     0.103 A 
HETATM    8  C15 UNL     1      21.887   1.424  52.666  1.00  0.00     0.102 A 
HETATM    9  C17 UNL     1      22.807   2.012  51.828  1.00  0.00     0.057 A 
HETATM   10  C18 UNL     1      24.115   1.661  51.928  1.00  0.00     0.044 A 
ENDROOT
BRANCH   1  11
HETATM   11  N1  UNL     1      24.670   3.287  50.080  1.00  0.00    -0.203 N 
BRANCH  11  12
HETATM   12  O1  UNL     1      24.199   2.856  48.914  1.00  0.00    -0.272 OA
BRANCH  12  13
HETATM   13  C2  UNL     1      22.914   3.202  48.591  1.00  0.00     0.197 C 
HETATM   14  C1  UNL     1      22.099   2.032  48.084  1.00  0.00     0.036 C 
ENDBRANCH  12  13
ENDBRANCH  11  12
BRANCH  11  15
HETATM   15  C3  UNL     1      24.808   4.706  50.230  1.00  0.00     0.065 A 
HETATM   16  C4  UNL     1      24.023   5.438  51.091  1.00  0.00     0.032 A 
HETATM   17  C5  UNL     1      24.143   6.797  51.264  1.00  0.00     0.002 A 
HETATM   18  C6  UNL     1      25.112   7.528  50.541  1.00  0.00     0.000 A 
HETATM   19  C7  UNL     1      25.794   6.676  49.749  1.00  0.00     0.002 A 
HETATM   20  C8  UNL     1      25.826   5.344  49.442  1.00  0.00     0.032 A 
ENDBRANCH  11  15
ENDBRANCH   1  11
BRANCH   8  21
HETATM   21  O3  UNL     1      20.532   1.611  52.755  1.00  0.00    -0.353 OA
HETATM   22  C16 UNL     1      19.656   1.019  51.831  1.00  0.00     0.210 C 
ENDBRANCH   8  21
BRANCH   7  23
HETATM   23  O2  UNL     1      21.543  -0.201  54.500  1.00  0.00    -0.353 OA
HETATM   24  C14 UNL     1      21.235  -1.572  54.341  1.00  0.00     0.210 C 
ENDBRANCH   7  23
TORSDOF 6
ENDMDL
MODEL 8
REMARK VINA RESULT:      -6.9      2.427      7.010
REMARK  6 active torsions:
REMARK  status: ('A' for Active; 'I' for Inactive)
REMARK    1  A    between atoms: C2_2  and  O1_3 
REMARK    2  A    between atoms: O1_3  and  N1_4 
REMARK    3  A    between atoms: N1_4  and  C3_5 
REMARK    4  A    between atoms: N1_4  and  C9_11 
REMARK    5  A    between atoms: C13_17  and  O2_18 
REMARK    6  A    between atoms: C15_20  and  O3_21 
ROOT
HETATM    1  C9  UNL     1      24.401   2.157  51.638  1.00  0.00     0.169 A 
HETATM    2  N2  UNL     1      24.808   3.078  50.714  1.00  0.00    -0.221 NA
HETATM    3  C10 UNL     1      26.120   3.297  50.511  1.00  0.00     0.236 A 
HETATM    4  N3  UNL     1      27.068   2.649  51.179  1.00  0.00    -0.241 NA
HETATM    5  C11 UNL     1      26.706   1.739  52.093  1.00  0.00     0.075 A 
HETATM    6  C12 UNL     1      27.588   0.992  52.882  1.00  0.00     0.072 A 
HETATM    7  C13 UNL     1      27.140   0.066  53.830  1.00  0.00     0.103 A 
HETATM    8  C15 UNL     1      25.789  -0.143  54.017  1.00  0.00     0.102 A 
HETATM    9  C17 UNL     1      24.894   0.576  53.257  1.00  0.00     0.057 A 
HETATM   10  C18 UNL     1      25.362   1.469  52.347  1.00  0.00     0.044 A 
ENDROOT
BRANCH   1  11
HETATM   11  N1  UNL     1      22.986   2.054  51.731  1.00  0.00    -0.203 N 
BRANCH  11  12
HETATM   12  O1  UNL     1      22.469   1.836  52.936  1.00  0.00    -0.272 OA
BRANCH  12  13
HETATM   13  C2  UNL     1      21.276   1.167  52.993  1.00  0.00     0.197 C 
HETATM   14  C1  UNL     1      21.445  -0.322  53.210  1.00  0.00     0.036 C 
ENDBRANCH  12  13
ENDBRANCH  11  12
BRANCH  11  15
HETATM   15  C3  UNL     1      22.055   2.182  50.648  1.00  0.00     0.065 A 
HETATM   16  C4  UNL     1      21.881   1.195  49.704  1.00  0.00     0.032 A 
HETATM   17  C5  UNL     1      20.986   1.287  48.663  1.00  0.00     0.002 A 
HETATM   18  C6  UNL     1      20.179   2.436  48.512  1.00  0.00     0.000 A 
HETATM   19  C7  UNL     1      20.466   3.300  49.505  1.00  0.00     0.002 A 
HETATM   20  C8  UNL     1      21.288   3.396  50.593  1.00  0.00     0.032 A 
ENDBRANCH  11  15
ENDBRANCH   1  11
BRANCH   8  21
HETATM   21  O3  UNL     1      25.564  -1.087  54.985  1.00  0.00    -0.353 OA
HETATM   22  C16 UNL     1      24.269  -1.334  55.468  1.00  0.00     0.210 C 
ENDBRANCH   8  21
BRANCH   7  23
HETATM   23  O2  UNL     1      28.179  -0.567  54.498  1.00  0.00    -0.353 OA
HETATM   24  C14 UNL     1      29.470  -0.692  53.935  1.00  0.00     0.210 C 
ENDBRANCH   7  23
TORSDOF 6
ENDMDL
MODEL 9
REMARK VINA RESULT:      -6.9      2.386      6.072
REMARK  6 active torsions:
REMARK  status: ('A' for Active; 'I' for Inactive)
REMARK    1  A    between atoms: C2_2  and  O1_3 
REMARK    2  A    between atoms: O1_3  and  N1_4 
REMARK    3  A    between atoms: N1_4  and  C3_5 
REMARK    4  A    between atoms: N1_4  and  C9_11 
REMARK    5  A    between atoms: C13_17  and  O2_18 
REMARK    6  A    between atoms: C15_20  and  O3_21 
ROOT
HETATM    1  C9  UNL     1      22.003   1.947  52.365  1.00  0.00     0.169 A 
HETATM    2  N2  UNL     1      20.796   1.579  52.891  1.00  0.00    -0.221 NA
HETATM    3  C10 UNL     1      20.711   0.506  53.700  1.00  0.00     0.236 A 
HETATM    4  N3  UNL     1      21.765  -0.233  54.025  1.00  0.00    -0.241 NA
HETATM    5  C11 UNL     1      22.964   0.097  53.527  1.00  0.00     0.075 A 
HETATM    6  C12 UNL     1      24.156  -0.594  53.767  1.00  0.00     0.072 A 
HETATM    7  C13 UNL     1      25.374  -0.200  53.203  1.00  0.00     0.103 A 
HETATM    8  C15 UNL     1      25.436   0.904  52.379  1.00  0.00     0.102 A 
HETATM    9  C17 UNL     1      24.280   1.608  52.122  1.00  0.00     0.057 A 
HETATM   10  C18 UNL     1      23.114   1.197  52.684  1.00  0.00     0.044 A 
ENDROOT
BRANCH   1  11
HETATM   11  N1  UNL     1      21.915   3.093  51.529  1.00  0.00    -0.203 N 
BRANCH  11  12
HETATM   12  O1  UNL     1      21.924   4.283  52.122  1.00  0.00    -0.272 OA
BRANCH  12  13
HETATM   13  C2  UNL     1      23.130   4.748  52.575  1.00  0.00     0.197 C 
HETATM   14  C1  UNL     1      23.800   5.691  51.599  1.00  0.00     0.036 C 
ENDBRANCH  12  13
ENDBRANCH  11  12
BRANCH  11  15
HETATM   15  C3  UNL     1      21.835   3.092  50.097  1.00  0.00     0.065 A 
HETATM   16  C4  UNL     1      22.397   2.101  49.327  1.00  0.00     0.032 A 
HETATM   17  C5  UNL     1      22.324   2.069  47.953  1.00  0.00     0.002 A 
HETATM   18  C6  UNL     1      21.643   3.087  47.249  1.00  0.00     0.000 A 
HETATM   19  C7  UNL     1      21.153   3.974  48.138  1.00  0.00     0.002 A 
HETATM   20  C8  UNL     1      21.119   4.179  49.489  1.00  0.00     0.032 A 
ENDBRANCH  11  15
ENDBRANCH   1  11
BRANCH   8  21
HETATM   21  O3  UNL     1      26.715   1.119  51.934  1.00  0.00    -0.353 OA
HETATM   22  C16 UNL     1      27.517   2.125  52.496  1.00  0.00     0.210 C 
ENDBRANCH   8  21
BRANCH   7  23
HETATM   23  O2  UNL     1      26.430  -1.021  53.574  1.00  0.00    -0.353 OA
HETATM   24  C14 UNL     1      26.919  -2.044  52.730  1.00  0.00     0.210 C 
ENDBRANCH   7  23
TORSDOF 6
ENDMDL
