MODEL 1
REMARK VINA RESULT:      -7.8      0.000      0.000
REMARK  6 active torsions:
REMARK  status: ('A' for Active; 'I' for Inactive)
REMARK    1  A    between atoms: C1_2  and  C2_3 
REMARK    2  A    between atoms: C2_3  and  N1_4 
REMARK    3  A    between atoms: N1_4  and  C3_5 
REMARK    4  A    between atoms: C7_9  and  N2_10 
REMARK    5  A    between atoms: N2_10  and  C8_11 
REMARK    6  A    between atoms: C11_15  and  C12_16 
ROOT
HETATM    1  N2  UNL     1      24.055   3.153  52.578  1.00  0.00    -0.188 N 
HETATM    2  H8  UNL     1      23.697   3.945  53.130  1.00  0.00     0.184 HD
ENDROOT
BRANCH   1   3
HETATM    3  C7  UNL     1      24.379   1.861  53.044  1.00  0.00     0.051 A 
HETATM    4  C6  UNL     1      23.540   0.781  52.799  1.00  0.00     0.030 A 
HETATM    5  C5  UNL     1      24.027  -0.373  53.341  1.00  0.00     0.004 A 
HETATM    6  C4  UNL     1      25.168  -0.581  54.053  1.00  0.00     0.029 A 
HETATM    7  C3  UNL     1      25.968   0.556  54.259  1.00  0.00     0.030 A 
HETATM    8  C17 UNL     1      25.553   1.764  53.747  1.00  0.00     0.059 A 
BRANCH   7   9
HETATM    9  N1  UNL     1      27.175   0.476  54.987  1.00  0.00    -0.387 N 
HETATM   10  H4  UNL     1      27.154   0.629  56.025  1.00  0.00     0.159 HD
BRANCH   9  11
HETATM   11  C2  UNL     1      28.459   0.192  54.392  1.00  0.00     0.156 C 
BRANCH  11  12
HETATM   12  C1  UNL     1      29.293   1.415  54.284  1.00  0.00     0.410 C 
HETATM   13  O1  UNL     1      29.617   2.359  55.004  1.00  0.00    -0.428 OA
ENDBRANCH  11  12
ENDBRANCH   9  11
ENDBRANCH   7   9
ENDBRANCH   1   3
BRANCH   1  14
HETATM   14  C8  UNL     1      24.101   3.806  51.326  1.00  0.00     0.727 A 
HETATM   15  N3  UNL     1      22.914   3.948  50.721  1.00  0.00    -0.075 NA
HETATM   16  C9  UNL     1      22.803   4.564  49.505  1.00  0.00     0.139 A 
HETATM   17  C10 UNL     1      23.946   5.049  48.894  1.00  0.00     0.053 A 
HETATM   18  C11 UNL     1      25.153   4.888  49.539  1.00  0.00     0.089 A 
HETATM   19  N5  UNL     1      25.239   4.277  50.736  1.00  0.00    -0.062 NA
BRANCH  18  20
HETATM   20  C12 UNL     1      26.404   5.365  48.974  1.00  0.00     0.011 A 
HETATM   21  C13 UNL     1      26.559   6.640  48.471  1.00  0.00     0.017 A 
HETATM   22  C14 UNL     1      27.761   7.094  47.925  1.00  0.00     0.020 A 
HETATM   23  C15 UNL     1      28.870   6.243  47.873  1.00  0.00     0.116 A 
HETATM   24  N4  UNL     1      28.697   5.008  48.368  1.00  0.00    -0.272 NA
HETATM   25  C16 UNL     1      27.534   4.579  48.892  1.00  0.00     0.130 A 
ENDBRANCH  18  20
ENDBRANCH   1  14
TORSDOF 6
ENDMDL
MODEL 2
REMARK VINA RESULT:      -7.7      2.095      6.917
REMARK  6 active torsions:
REMARK  status: ('A' for Active; 'I' for Inactive)
REMARK    1  A    between atoms: C1_2  and  C2_3 
REMARK    2  A    between atoms: C2_3  and  N1_4 
REMARK    3  A    between atoms: N1_4  and  C3_5 
REMARK    4  A    between atoms: C7_9  and  N2_10 
REMARK    5  A    between atoms: N2_10  and  C8_11 
REMARK    6  A    between atoms: C11_15  and  C12_16 
ROOT
HETATM    1  N2  UNL     1      25.761   3.780  49.553  1.00  0.00    -0.188 N 
HETATM    2  H8  UNL     1      25.091   3.172  49.061  1.00  0.00     0.184 HD
ENDROOT
BRANCH   1   3
HETATM    3  C7  UNL     1      26.467   4.881  49.026  1.00  0.00     0.051 A 
HETATM    4  C6  UNL     1      25.833   6.097  48.801  1.00  0.00     0.030 A 
HETATM    5  C5  UNL     1      26.686   7.026  48.278  1.00  0.00     0.004 A 
HETATM    6  C4  UNL     1      28.006   6.910  47.967  1.00  0.00     0.029 A 
HETATM    7  C3  UNL     1      28.580   5.653  48.222  1.00  0.00     0.030 A 
HETATM    8  C17 UNL     1      27.793   4.656  48.750  1.00  0.00     0.059 A 
BRANCH   7   9
HETATM    9  N1  UNL     1      29.940   5.402  47.938  1.00  0.00    -0.387 N 
HETATM   10  H4  UNL     1      30.207   4.487  47.500  1.00  0.00     0.159 HD
BRANCH   9  11
HETATM   11  C2  UNL     1      31.008   6.334  48.213  1.00  0.00     0.156 C 
BRANCH  11  12
HETATM   12  C1  UNL     1      31.825   5.901  49.375  1.00  0.00     0.410 C 
HETATM   13  O1  UNL     1      31.631   5.523  50.530  1.00  0.00    -0.428 OA
ENDBRANCH  11  12
ENDBRANCH   9  11
ENDBRANCH   7   9
ENDBRANCH   1   3
BRANCH   1  14
HETATM   14  C8  UNL     1      25.706   3.135  50.810  1.00  0.00     0.727 A 
HETATM   15  N3  UNL     1      24.665   3.485  51.577  1.00  0.00    -0.075 NA
HETATM   16  C9  UNL     1      24.480   2.940  52.818  1.00  0.00     0.139 A 
HETATM   17  C10 UNL     1      25.392   2.008  53.282  1.00  0.00     0.053 A 
HETATM   18  C11 UNL     1      26.452   1.668  52.471  1.00  0.00     0.089 A 
HETATM   19  N5  UNL     1      26.616   2.218  51.253  1.00  0.00    -0.062 NA
BRANCH  18  20
HETATM   20  C12 UNL     1      27.458   0.699  52.875  1.00  0.00     0.011 A 
HETATM   21  C13 UNL     1      28.720   1.064  53.294  1.00  0.00     0.017 A 
HETATM   22  C14 UNL     1      29.686   0.131  53.676  1.00  0.00     0.020 A 
HETATM   23  C15 UNL     1      29.389  -1.236  53.644  1.00  0.00     0.116 A 
HETATM   24  N4  UNL     1      28.155  -1.567  53.234  1.00  0.00    -0.272 NA
HETATM   25  C16 UNL     1      27.230  -0.660  52.866  1.00  0.00     0.130 A 
ENDBRANCH  18  20
ENDBRANCH   1  14
TORSDOF 6
ENDMDL
MODEL 3
REMARK VINA RESULT:      -7.4      2.598      7.151
REMARK  6 active torsions:
REMARK  status: ('A' for Active; 'I' for Inactive)
REMARK    1  A    between atoms: C1_2  and  C2_3 
REMARK    2  A    between atoms: C2_3  and  N1_4 
REMARK    3  A    between atoms: N1_4  and  C3_5 
REMARK    4  A    between atoms: C7_9  and  N2_10 
REMARK    5  A    between atoms: N2_10  and  C8_11 
REMARK    6  A    between atoms: C11_15  and  C12_16 
ROOT
HETATM    1  N2  UNL     1      24.717   3.607  51.334  1.00  0.00    -0.188 N 
HETATM    2  H8  UNL     1      23.874   3.996  51.779  1.00  0.00     0.184 HD
ENDROOT
BRANCH   1   3
HETATM    3  C7  UNL     1      25.555   4.234  50.387  1.00  0.00     0.051 A 
HETATM    4  C6  UNL     1      26.598   3.542  49.785  1.00  0.00     0.030 A 
HETATM    5  C5  UNL     1      27.292   4.328  48.911  1.00  0.00     0.004 A 
HETATM    6  C4  UNL     1      27.097   5.634  48.581  1.00  0.00     0.029 A 
HETATM    7  C3  UNL     1      26.024   6.269  49.228  1.00  0.00     0.030 A 
HETATM    8  C17 UNL     1      25.269   5.550  50.126  1.00  0.00     0.059 A 
BRANCH   7   9
HETATM    9  N1  UNL     1      25.720   7.625  48.977  1.00  0.00    -0.387 N 
HETATM   10  H4  UNL     1      24.737   7.961  49.122  1.00  0.00     0.159 HD
BRANCH   9  11
HETATM   11  C2  UNL     1      26.686   8.598  48.526  1.00  0.00     0.156 C 
BRANCH  11  12
HETATM   12  C1  UNL     1      27.490   9.134  49.654  1.00  0.00     0.410 C 
HETATM   13  O1  UNL     1      27.282   9.668  50.743  1.00  0.00    -0.428 OA
ENDBRANCH  11  12
ENDBRANCH   9  11
ENDBRANCH   7   9
ENDBRANCH   1   3
BRANCH   1  14
HETATM   14  C8  UNL     1      24.692   2.343  51.967  1.00  0.00     0.727 A 
HETATM   15  N3  UNL     1      23.481   1.940  52.372  1.00  0.00    -0.075 NA
HETATM   16  C9  UNL     1      23.303   0.736  52.996  1.00  0.00     0.139 A 
HETATM   17  C10 UNL     1      24.403  -0.076  53.209  1.00  0.00     0.053 A 
HETATM   18  C11 UNL     1      25.636   0.365  52.781  1.00  0.00     0.089 A 
HETATM   19  N5  UNL     1      25.789   1.555  52.169  1.00  0.00    -0.062 NA
BRANCH  18  20
HETATM   20  C12 UNL     1      26.846  -0.421  52.961  1.00  0.00     0.011 A 
HETATM   21  C13 UNL     1      28.052   0.140  53.327  1.00  0.00     0.017 A 
HETATM   22  C14 UNL     1      29.214  -0.616  53.494  1.00  0.00     0.020 A 
HETATM   23  C15 UNL     1      29.183  -2.000  53.290  1.00  0.00     0.116 A 
HETATM   24  N4  UNL     1      28.000  -2.523  52.936  1.00  0.00    -0.272 NA
HETATM   25  C16 UNL     1      26.885  -1.786  52.776  1.00  0.00     0.130 A 
ENDBRANCH  18  20
ENDBRANCH   1  14
TORSDOF 6
ENDMDL
MODEL 4
REMARK VINA RESULT:      -7.3      1.996      3.207
REMARK  6 active torsions:
REMARK  status: ('A' for Active; 'I' for Inactive)
REMARK    1  A    between atoms: C1_2  and  C2_3 
REMARK    2  A    between atoms: C2_3  and  N1_4 
REMARK    3  A    between atoms: N1_4  and  C3_5 
REMARK    4  A    between atoms: C7_9  and  N2_10 
REMARK    5  A    between atoms: N2_10  and  C8_11 
REMARK    6  A    between atoms: C11_15  and  C12_16 
ROOT
HETATM    1  N2  UNL     1      26.483   2.991  49.803  1.00  0.00    -0.188 N 
HETATM    2  H8  UNL     1      26.591   2.438  48.941  1.00  0.00     0.184 HD
ENDROOT
BRANCH   1   3
HETATM    3  C7  UNL     1      26.119   2.523  51.083  1.00  0.00     0.051 A 
HETATM    4  C6  UNL     1      24.815   2.132  51.358  1.00  0.00     0.030 A 
HETATM    5  C5  UNL     1      24.669   1.723  52.653  1.00  0.00     0.004 A 
HETATM    6  C4  UNL     1      25.594   1.659  53.649  1.00  0.00     0.029 A 
HETATM    7  C3  UNL     1      26.891   2.069  53.298  1.00  0.00     0.030 A 
HETATM    8  C17 UNL     1      27.130   2.496  52.011  1.00  0.00     0.059 A 
BRANCH   7   9
HETATM    9  N1  UNL     1      27.941   2.055  54.242  1.00  0.00    -0.387 N 
HETATM   10  H4  UNL     1      27.842   2.621  55.120  1.00  0.00     0.159 HD
BRANCH   9  11
HETATM   11  C2  UNL     1      29.163   1.303  54.080  1.00  0.00     0.156 C 
BRANCH  11  12
HETATM   12  C1  UNL     1      28.962  -0.137  54.382  1.00  0.00     0.410 C 
HETATM   13  O1  UNL     1      28.058  -0.967  54.285  1.00  0.00    -0.428 OA
ENDBRANCH  11  12
ENDBRANCH   9  11
ENDBRANCH   7   9
ENDBRANCH   1   3
BRANCH   1  14
HETATM   14  C8  UNL     1      26.794   4.255  49.251  1.00  0.00     0.727 A 
HETATM   15  N3  UNL     1      25.765   5.111  49.191  1.00  0.00    -0.075 NA
HETATM   16  C9  UNL     1      25.918   6.373  48.684  1.00  0.00     0.139 A 
HETATM   17  C10 UNL     1      27.164   6.764  48.226  1.00  0.00     0.053 A 
HETATM   18  C11 UNL     1      28.202   5.861  48.300  1.00  0.00     0.089 A 
HETATM   19  N5  UNL     1      28.030   4.623  48.802  1.00  0.00    -0.062 NA
BRANCH  18  20
HETATM   20  C12 UNL     1      29.544   6.183  47.843  1.00  0.00     0.011 A 
HETATM   21  C13 UNL     1      30.557   5.249  47.783  1.00  0.00     0.017 A 
HETATM   22  C14 UNL     1      31.846   5.562  47.348  1.00  0.00     0.020 A 
HETATM   23  C15 UNL     1      32.152   6.869  46.952  1.00  0.00     0.116 A 
HETATM   24  N4  UNL     1      31.152   7.761  47.019  1.00  0.00    -0.272 NA
HETATM   25  C16 UNL     1      29.912   7.449  47.440  1.00  0.00     0.130 A 
ENDBRANCH  18  20
ENDBRANCH   1  14
TORSDOF 6
ENDMDL
MODEL 5
REMARK VINA RESULT:      -7.3      2.910      7.810
REMARK  6 active torsions:
REMARK  status: ('A' for Active; 'I' for Inactive)
REMARK    1  A    between atoms: C1_2  and  C2_3 
REMARK    2  A    between atoms: C2_3  and  N1_4 
REMARK    3  A    between atoms: N1_4  and  C3_5 
REMARK    4  A    between atoms: C7_9  and  N2_10 
REMARK    5  A    between atoms: N2_10  and  C8_11 
REMARK    6  A    between atoms: C11_15  and  C12_16 
ROOT
HETATM    1  N2  UNL     1      26.712   2.098  50.925  1.00  0.00    -0.188 N 
HETATM    2  H8  UNL     1      27.548   1.592  50.602  1.00  0.00     0.184 HD
ENDROOT
BRANCH   1   3
HETATM    3  C7  UNL     1      26.089   3.206  50.312  1.00  0.00     0.051 A 
HETATM    4  C6  UNL     1      26.810   4.073  49.500  1.00  0.00     0.030 A 
HETATM    5  C5  UNL     1      26.029   5.082  49.015  1.00  0.00     0.004 A 
HETATM    6  C4  UNL     1      24.707   5.329  49.222  1.00  0.00     0.029 A 
HETATM    7  C3  UNL     1      24.043   4.411  50.053  1.00  0.00     0.030 A 
HETATM    8  C17 UNL     1      24.754   3.360  50.586  1.00  0.00     0.059 A 
BRANCH   7   9
HETATM    9  N1  UNL     1      22.671   4.557  50.352  1.00  0.00    -0.387 N 
HETATM   10  H4  UNL     1      21.982   4.613  49.563  1.00  0.00     0.159 HD
BRANCH   9  11
HETATM   11  C2  UNL     1      22.140   4.638  51.692  1.00  0.00     0.156 C 
BRANCH  11  12
HETATM   12  C1  UNL     1      20.823   3.961  51.800  1.00  0.00     0.410 C 
HETATM   13  O1  UNL     1      20.172   3.375  52.665  1.00  0.00    -0.428 OA
ENDBRANCH  11  12
ENDBRANCH   9  11
ENDBRANCH   7   9
ENDBRANCH   1   3
BRANCH   1  14
HETATM   14  C8  UNL     1      26.477   1.339  52.094  1.00  0.00     0.727 A 
HETATM   15  N3  UNL     1      27.548   1.173  52.882  1.00  0.00    -0.075 NA
HETATM   16  C9  UNL     1      27.470   0.463  54.049  1.00  0.00     0.139 A 
HETATM   17  C10 UNL     1      26.255  -0.091  54.415  1.00  0.00     0.053 A 
HETATM   18  C11 UNL     1      25.172   0.096  53.585  1.00  0.00     0.089 A 
HETATM   19  N5  UNL     1      25.272   0.798  52.439  1.00  0.00    -0.062 NA
BRANCH  18  20
HETATM   20  C12 UNL     1      23.858  -0.448  53.888  1.00  0.00     0.011 A 
HETATM   21  C13 UNL     1      22.768  -0.270  53.062  1.00  0.00     0.017 A 
HETATM   22  C14 UNL     1      21.507  -0.790  53.358  1.00  0.00     0.020 A 
HETATM   23  C15 UNL     1      21.311  -1.525  54.533  1.00  0.00     0.116 A 
HETATM   24  N4  UNL     1      22.386  -1.685  55.320  1.00  0.00    -0.272 NA
HETATM   25  C16 UNL     1      23.599  -1.180  55.027  1.00  0.00     0.130 A 
ENDBRANCH  18  20
ENDBRANCH   1  14
TORSDOF 6
ENDMDL
MODEL 6
REMARK VINA RESULT:      -7.3      2.805      6.934
REMARK  6 active torsions:
REMARK  status: ('A' for Active; 'I' for Inactive)
REMARK    1  A    between atoms: C1_2  and  C2_3 
REMARK    2  A    between atoms: C2_3  and  N1_4 
REMARK    3  A    between atoms: N1_4  and  C3_5 
REMARK    4  A    between atoms: C7_9  and  N2_10 
REMARK    5  A    between atoms: N2_10  and  C8_11 
REMARK    6  A    between atoms: C11_15  and  C12_16 
ROOT
HETATM    1  N2  UNL     1      23.037   2.828  52.167  1.00  0.00    -0.188 N 
HETATM    2  H8  UNL     1      22.151   2.929  52.681  1.00  0.00     0.184 HD
ENDROOT
BRANCH   1   3
HETATM    3  C7  UNL     1      23.538   3.664  51.148  1.00  0.00     0.051 A 
HETATM    4  C6  UNL     1      23.548   3.249  49.822  1.00  0.00     0.030 A 
HETATM    5  C5  UNL     1      24.082   4.197  48.997  1.00  0.00     0.004 A 
HETATM    6  C4  UNL     1      24.578   5.427  49.300  1.00  0.00     0.029 A 
HETATM    7  C3  UNL     1      24.534   5.779  50.659  1.00  0.00     0.030 A 
HETATM    8  C17 UNL     1      24.011   4.883  51.563  1.00  0.00     0.059 A 
BRANCH   7   9
HETATM    9  N1  UNL     1      25.024   7.026  51.105  1.00  0.00    -0.387 N 
HETATM   10  H4  UNL     1      25.297   7.135  52.112  1.00  0.00     0.159 HD
BRANCH   9  11
HETATM   11  C2  UNL     1      25.177   8.184  50.256  1.00  0.00     0.156 C 
BRANCH  11  12
HETATM   12  C1  UNL     1      26.589   8.639  50.202  1.00  0.00     0.410 C 
HETATM   13  O1  UNL     1      27.216   9.678  50.409  1.00  0.00    -0.428 OA
ENDBRANCH  11  12
ENDBRANCH   9  11
ENDBRANCH   7   9
ENDBRANCH   1   3
BRANCH   1  14
HETATM   14  C8  UNL     1      23.487   1.650  52.806  1.00  0.00     0.727 A 
HETATM   15  N3  UNL     1      22.513   0.838  53.241  1.00  0.00    -0.075 NA
HETATM   16  C9  UNL     1      22.798  -0.340  53.875  1.00  0.00     0.139 A 
HETATM   17  C10 UNL     1      24.123  -0.693  54.067  1.00  0.00     0.053 A 
HETATM   18  C11 UNL     1      25.102   0.161  53.609  1.00  0.00     0.089 A 
HETATM   19  N5  UNL     1      24.798   1.317  52.988  1.00  0.00    -0.062 NA
BRANCH  18  20
HETATM   20  C12 UNL     1      26.518  -0.127  53.765  1.00  0.00     0.011 A 
HETATM   21  C13 UNL     1      27.201  -0.989  52.933  1.00  0.00     0.017 A 
HETATM   22  C14 UNL     1      28.560  -1.268  53.088  1.00  0.00     0.020 A 
HETATM   23  C15 UNL     1      29.285  -0.662  54.121  1.00  0.00     0.116 A 
HETATM   24  N4  UNL     1      28.600   0.173  54.917  1.00  0.00    -0.272 NA
HETATM   25  C16 UNL     1      27.289   0.436  54.760  1.00  0.00     0.130 A 
ENDBRANCH  18  20
ENDBRANCH   1  14
TORSDOF 6
ENDMDL
MODEL 7
REMARK VINA RESULT:      -7.3      1.815      2.342
REMARK  6 active torsions:
REMARK  status: ('A' for Active; 'I' for Inactive)
REMARK    1  A    between atoms: C1_2  and  C2_3 
REMARK    2  A    between atoms: C2_3  and  N1_4 
REMARK    3  A    between atoms: N1_4  and  C3_5 
REMARK    4  A    between atoms: C7_9  and  N2_10 
REMARK    5  A    between atoms: N2_10  and  C8_11 
REMARK    6  A    between atoms: C11_15  and  C12_16 
ROOT
HETATM    1  N2  UNL     1      22.128   0.931  52.108  1.00  0.00    -0.188 N 
HETATM    2  H8  UNL     1      21.516   0.662  51.325  1.00  0.00     0.184 HD
ENDROOT
BRANCH   1   3
HETATM    3  C7  UNL     1      22.498   0.142  53.218  1.00  0.00     0.051 A 
HETATM    4  C6  UNL     1      21.537  -0.472  54.012  1.00  0.00     0.030 A 
HETATM    5  C5  UNL     1      22.100  -1.176  55.037  1.00  0.00     0.004 A 
HETATM    6  C4  UNL     1      23.413  -1.338  55.357  1.00  0.00     0.029 A 
HETATM    7  C3  UNL     1      24.327  -0.690  54.509  1.00  0.00     0.030 A 
HETATM    8  C17 UNL     1      23.847   0.044  53.449  1.00  0.00     0.059 A 
BRANCH   7   9
HETATM    9  N1  UNL     1      25.718  -0.774  54.736  1.00  0.00    -0.387 N 
HETATM   10  H4  UNL     1      26.124  -1.681  55.074  1.00  0.00     0.159 HD
BRANCH   9  11
HETATM   11  C2  UNL     1      26.637   0.320  54.532  1.00  0.00     0.156 C 
BRANCH  11  12
HETATM   12  C1  UNL     1      28.037  -0.082  54.819  1.00  0.00     0.410 C 
HETATM   13  O1  UNL     1      28.928  -0.728  54.266  1.00  0.00    -0.428 OA
ENDBRANCH  11  12
ENDBRANCH   9  11
ENDBRANCH   7   9
ENDBRANCH   1   3
BRANCH   1  14
HETATM   14  C8  UNL     1      22.401   2.251  51.683  1.00  0.00     0.727 A 
HETATM   15  N3  UNL     1      21.434   3.139  51.945  1.00  0.00    -0.075 NA
HETATM   16  C9  UNL     1      21.561   4.455  51.595  1.00  0.00     0.139 A 
HETATM   17  C10 UNL     1      22.717   4.869  50.956  1.00  0.00     0.053 A 
HETATM   18  C11 UNL     1      23.694   3.933  50.699  1.00  0.00     0.089 A 
HETATM   19  N5  UNL     1      23.548   2.641  51.052  1.00  0.00    -0.062 NA
BRANCH  18  20
HETATM   20  C12 UNL     1      24.941   4.275  50.034  1.00  0.00     0.011 A 
HETATM   21  C13 UNL     1      25.162   5.505  49.450  1.00  0.00     0.017 A 
HETATM   22  C14 UNL     1      26.359   5.830  48.808  1.00  0.00     0.020 A 
HETATM   23  C15 UNL     1      27.392   4.890  48.738  1.00  0.00     0.116 A 
HETATM   24  N4  UNL     1      27.155   3.700  49.313  1.00  0.00    -0.272 NA
HETATM   25  C16 UNL     1      25.998   3.396  49.930  1.00  0.00     0.130 A 
ENDBRANCH  18  20
ENDBRANCH   1  14
TORSDOF 6
ENDMDL
MODEL 8
REMARK VINA RESULT:      -7.1      2.470      3.603
REMARK  6 active torsions:
REMARK  status: ('A' for Active; 'I' for Inactive)
REMARK    1  A    between atoms: C1_2  and  C2_3 
REMARK    2  A    between atoms: C2_3  and  N1_4 
REMARK    3  A    between atoms: N1_4  and  C3_5 
REMARK    4  A    between atoms: C7_9  and  N2_10 
REMARK    5  A    between atoms: N2_10  and  C8_11 
REMARK    6  A    between atoms: C11_15  and  C12_16 
ROOT
HETATM    1  N2  UNL     1      26.568   2.073  50.610  1.00  0.00    -0.188 N 
HETATM    2  H8  UNL     1      26.697   1.525  49.748  1.00  0.00     0.184 HD
ENDROOT
BRANCH   1   3
HETATM    3  C7  UNL     1      26.624   1.605  51.940  1.00  0.00     0.051 A 
HETATM    4  C6  UNL     1      27.659   1.979  52.787  1.00  0.00     0.030 A 
HETATM    5  C5  UNL     1      27.534   1.411  54.023  1.00  0.00     0.004 A 
HETATM    6  C4  UNL     1      26.574   0.571  54.495  1.00  0.00     0.029 A 
HETATM    7  C3  UNL     1      25.558   0.238  53.583  1.00  0.00     0.030 A 
HETATM    8  C17 UNL     1      25.604   0.766  52.313  1.00  0.00     0.059 A 
BRANCH   7   9
HETATM    9  N1  UNL     1      24.506  -0.630  53.948  1.00  0.00    -0.387 N 
HETATM   10  H4  UNL     1      24.736  -1.532  54.432  1.00  0.00     0.159 HD
BRANCH   9  11
HETATM   11  C2  UNL     1      23.111  -0.358  53.698  1.00  0.00     0.156 C 
BRANCH  11  12
HETATM   12  C1  UNL     1      22.240  -0.979  54.727  1.00  0.00     0.410 C 
HETATM   13  O1  UNL     1      22.261  -1.972  55.454  1.00  0.00    -0.428 OA
ENDBRANCH  11  12
ENDBRANCH   9  11
ENDBRANCH   7   9
ENDBRANCH   1   3
BRANCH   1  14
HETATM   14  C8  UNL     1      26.329   3.325  49.998  1.00  0.00     0.727 A 
HETATM   15  N3  UNL     1      25.054   3.737  50.040  1.00  0.00    -0.075 NA
HETATM   16  C9  UNL     1      24.674   4.931  49.492  1.00  0.00     0.139 A 
HETATM   17  C10 UNL     1      25.633   5.724  48.884  1.00  0.00     0.053 A 
HETATM   18  C11 UNL     1      26.934   5.274  48.857  1.00  0.00     0.089 A 
HETATM   19  N5  UNL     1      27.286   4.094  49.402  1.00  0.00    -0.062 NA
BRANCH  18  20
HETATM   20  C12 UNL     1      28.007   6.038  48.242  1.00  0.00     0.011 A 
HETATM   21  C13 UNL     1      29.309   5.588  48.188  1.00  0.00     0.017 A 
HETATM   22  C14 UNL     1      30.338   6.326  47.601  1.00  0.00     0.020 A 
HETATM   23  C15 UNL     1      30.067   7.577  47.035  1.00  0.00     0.116 A 
HETATM   24  N4  UNL     1      28.793   7.994  47.098  1.00  0.00    -0.272 NA
HETATM   25  C16 UNL     1      27.807   7.276  47.667  1.00  0.00     0.130 A 
ENDBRANCH  18  20
ENDBRANCH   1  14
TORSDOF 6
ENDMDL
MODEL 9
REMARK VINA RESULT:      -7.1      3.210      7.057
REMARK  6 active torsions:
REMARK  status: ('A' for Active; 'I' for Inactive)
REMARK    1  A    between atoms: C1_2  and  C2_3 
REMARK    2  A    between atoms: C2_3  and  N1_4 
REMARK    3  A    between atoms: N1_4  and  C3_5 
REMARK    4  A    between atoms: C7_9  and  N2_10 
REMARK    5  A    between atoms: N2_10  and  C8_11 
REMARK    6  A    between atoms: C11_15  and  C12_16 
ROOT
HETATM    1  N2  UNL     1      21.569   0.605  51.681  1.00  0.00    -0.188 N 
HETATM    2  H8  UNL     1      20.625   0.407  52.041  1.00  0.00     0.184 HD
ENDROOT
BRANCH   1   3
HETATM    3  C7  UNL     1      21.910   1.231  50.464  1.00  0.00     0.051 A 
HETATM    4  C6  UNL     1      21.286   0.874  49.276  1.00  0.00     0.030 A 
HETATM    5  C5  UNL     1      21.766   1.588  48.215  1.00  0.00     0.004 A 
HETATM    6  C4  UNL     1      22.727   2.550  48.184  1.00  0.00     0.029 A 
HETATM    7  C3  UNL     1      23.313   2.860  49.423  1.00  0.00     0.030 A 
HETATM    8  C17 UNL     1      22.890   2.189  50.547  1.00  0.00     0.059 A 
BRANCH   7   9
HETATM    9  N1  UNL     1      24.327   3.837  49.525  1.00  0.00    -0.387 N 
HETATM   10  H4  UNL     1      25.122   3.819  48.841  1.00  0.00     0.159 HD
BRANCH   9  11
HETATM   11  C2  UNL     1      24.347   4.879  50.525  1.00  0.00     0.156 C 
BRANCH  11  12
HETATM   12  C1  UNL     1      23.230   5.839  50.336  1.00  0.00     0.410 C 
HETATM   13  O1  UNL     1      22.299   6.291  51.003  1.00  0.00    -0.428 OA
ENDBRANCH  11  12
ENDBRANCH   9  11
ENDBRANCH   7   9
ENDBRANCH   1   3
BRANCH   1  14
HETATM   14  C8  UNL     1      22.296   0.051  52.759  1.00  0.00     0.727 A 
HETATM   15  N3  UNL     1      21.544  -0.482  53.732  1.00  0.00    -0.075 NA
HETATM   16  C9  UNL     1      22.109  -1.057  54.836  1.00  0.00     0.139 A 
HETATM   17  C10 UNL     1      23.489  -1.087  54.942  1.00  0.00     0.053 A 
HETATM   18  C11 UNL     1      24.237  -0.532  53.927  1.00  0.00     0.089 A 
HETATM   19  N5  UNL     1      23.659   0.031  52.849  1.00  0.00    -0.062 NA
BRANCH  18  20
HETATM   20  C12 UNL     1      25.690  -0.518  53.952  1.00  0.00     0.011 A 
HETATM   21  C13 UNL     1      26.460  -1.048  52.938  1.00  0.00     0.017 A 
HETATM   22  C14 UNL     1      27.856  -1.037  52.967  1.00  0.00     0.020 A 
HETATM   23  C15 UNL     1      28.528  -0.472  54.056  1.00  0.00     0.116 A 
HETATM   24  N4  UNL     1      27.759   0.038  55.031  1.00  0.00    -0.272 NA
HETATM   25  C16 UNL     1      26.414   0.022  54.994  1.00  0.00     0.130 A 
ENDBRANCH  18  20
ENDBRANCH   1  14
TORSDOF 6
ENDMDL
