MODEL 1
REMARK VINA RESULT:      -7.0      0.000      0.000
REMARK  6 active torsions:
REMARK  status: ('A' for Active; 'I' for Inactive)
REMARK    1  A    between atoms: C2_2  and  C3_3 
REMARK       I    between atoms: C3_3  and  N1_5 
REMARK    2  A    between atoms: C5_7  and  O2_8 
REMARK    3  A    between atoms: O2_8  and  C6_9 
REMARK    4  A    between atoms: C10_15  and  N3_16 
REMARK    5  A    between atoms: C11_18  and  C12_19 
REMARK    6  A    between atoms: C13_21  and  N4_22 
ROOT
HETATM    1  C3  UNL     1      22.916   0.022  53.894  1.00  0.00     0.243 C 
HETATM    2  O1  UNL     1      21.873   0.702  54.061  1.00  0.00    -0.268 OA
HETATM    3  N1  UNL     1      24.195  -0.254  53.338  1.00  0.00    -0.337 N 
HETATM    4  C4  UNL     1      25.179  -1.344  53.462  1.00  0.00     0.169 C 
HETATM    5  C5  UNL     1      26.228  -0.233  53.359  1.00  0.00     0.120 C 
HETATM    6  C8  UNL     1      26.399   0.576  54.581  1.00  0.00     0.218 C 
HETATM    7  O3  UNL     1      27.289   1.644  54.333  1.00  0.00    -0.342 OA
HETATM    8  C9  UNL     1      27.912   2.233  53.253  1.00  0.00     0.247 C 
HETATM    9  N2  UNL     1      27.386   2.574  52.129  1.00  0.00    -0.255 NA
HETATM   10  C10 UNL     1      26.090   2.509  51.563  1.00  0.00     0.223 C 
HETATM   11  C11 UNL     1      25.041   1.790  52.369  1.00  0.00     0.099 C 
HETATM   12  C14 UNL     1      25.172   0.330  52.416  1.00  0.00     0.138 C 
ENDROOT
BRANCH  11  13
HETATM   13  C12 UNL     1      23.765   2.040  51.594  1.00  0.00     0.031 C 
HETATM   14 CL1  UNL     1      22.567   3.186  52.125  1.00  0.00    -0.087 Cl
HETATM   15  C13 UNL     1      23.255   1.554  50.472  1.00  0.00     0.074 C 
BRANCH  15  16
HETATM   16  N4  UNL     1      22.099   1.697  49.655  1.00  0.00    -0.311 NA
HETATM   17  H18 UNL     1      21.296   2.294  49.973  1.00  0.00     0.123 HD
HETATM   18  H19 UNL     1      21.233   2.261  49.855  1.00  0.00     0.123 HD
ENDBRANCH  15  16
ENDBRANCH  11  13
BRANCH  10  19
HETATM   19  N3  UNL     1      25.567   3.869  51.350  1.00  0.00    -0.137 NA
HETATM   20  F1  UNL     1      25.910   4.289  50.089  1.00  0.00    -0.134 F 
HETATM   21  H15 UNL     1      24.506   3.803  51.305  1.00  0.00     0.161 HD
ENDBRANCH  10  19
BRANCH   5  22
HETATM   22  O2  UNL     1      27.349  -0.500  52.645  1.00  0.00    -0.374 OA
BRANCH  22  23
HETATM   23  C6  UNL     1      28.196  -1.481  53.031  1.00  0.00     0.164 C 
HETATM   24  C7  UNL     1      29.558  -0.974  53.390  1.00  0.00     0.033 C 
ENDBRANCH  22  23
ENDBRANCH   5  22
BRANCH   1  25
HETATM   25  C2  UNL     1      22.334  -0.928  54.820  1.00  0.00     0.064 C 
HETATM   26  C1  UNL     1      21.345  -1.544  54.239  1.00  0.00     0.017 C 
ENDBRANCH   1  25
TORSDOF 6
ENDMDL
MODEL 2
REMARK VINA RESULT:      -6.5      2.764      5.155
REMARK  6 active torsions:
REMARK  status: ('A' for Active; 'I' for Inactive)
REMARK    1  A    between atoms: C2_2  and  C3_3 
REMARK       I    between atoms: C3_3  and  N1_5 
REMARK    2  A    between atoms: C5_7  and  O2_8 
REMARK    3  A    between atoms: O2_8  and  C6_9 
REMARK    4  A    between atoms: C10_15  and  N3_16 
REMARK    5  A    between atoms: C11_18  and  C12_19 
REMARK    6  A    between atoms: C13_21  and  N4_22 
ROOT
HETATM    1  C3  UNL     1      22.882   0.064  52.950  1.00  0.00     0.243 C 
HETATM    2  O1  UNL     1      23.549  -0.995  53.058  1.00  0.00    -0.268 OA
HETATM    3  N1  UNL     1      22.698   1.442  52.656  1.00  0.00    -0.337 N 
HETATM    4  C4  UNL     1      21.558   2.376  52.685  1.00  0.00     0.169 C 
HETATM    5  C5  UNL     1      22.196   2.988  51.433  1.00  0.00     0.120 C 
HETATM    6  C8  UNL     1      22.016   2.203  50.197  1.00  0.00     0.218 C 
HETATM    7  O3  UNL     1      22.750   2.788  49.142  1.00  0.00    -0.342 OA
HETATM    8  C9  UNL     1      23.698   3.774  48.973  1.00  0.00     0.247 C 
HETATM    9  N2  UNL     1      24.771   3.962  49.658  1.00  0.00    -0.255 NA
HETATM   10  C10 UNL     1      25.389   3.318  50.757  1.00  0.00     0.223 C 
HETATM   11  C11 UNL     1      24.616   2.198  51.399  1.00  0.00     0.099 C 
HETATM   12  C14 UNL     1      23.457   2.607  52.200  1.00  0.00     0.138 C 
ENDROOT
BRANCH  11  13
HETATM   13  C12 UNL     1      25.594   1.621  52.402  1.00  0.00     0.031 C 
HETATM   14 CL1  UNL     1      26.491   0.163  52.087  1.00  0.00    -0.087 Cl
HETATM   15  C13 UNL     1      25.999   1.981  53.610  1.00  0.00     0.074 C 
BRANCH  15  16
HETATM   16  N4  UNL     1      26.887   1.543  54.632  1.00  0.00    -0.311 NA
HETATM   17  H18 UNL     1      26.648   0.704  55.217  1.00  0.00     0.123 HD
HETATM   18  H19 UNL     1      26.768   0.724  55.283  1.00  0.00     0.123 HD
ENDBRANCH  15  16
ENDBRANCH  11  13
BRANCH  10  19
HETATM   19  N3  UNL     1      26.672   2.728  50.337  1.00  0.00    -0.137 NA
HETATM   20  F1  UNL     1      27.039   3.268  49.129  1.00  0.00    -0.134 F 
HETATM   21  H15 UNL     1      27.423   3.084  51.001  1.00  0.00     0.161 HD
ENDBRANCH  10  19
BRANCH   5  22
HETATM   22  O2  UNL     1      22.154   4.337  51.309  1.00  0.00    -0.374 OA
BRANCH  22  23
HETATM   23  C6  UNL     1      20.998   4.965  51.000  1.00  0.00     0.164 C 
HETATM   24  C7  UNL     1      21.205   6.345  50.459  1.00  0.00     0.033 C 
ENDBRANCH  22  23
ENDBRANCH   5  22
BRANCH   1  25
HETATM   25  C2  UNL     1      21.746  -0.716  53.398  1.00  0.00     0.064 C 
HETATM   26  C1  UNL     1      21.858  -0.945  54.675  1.00  0.00     0.017 C 
ENDBRANCH   1  25
TORSDOF 6
ENDMDL
MODEL 3
REMARK VINA RESULT:      -6.2      3.099      4.689
REMARK  6 active torsions:
REMARK  status: ('A' for Active; 'I' for Inactive)
REMARK    1  A    between atoms: C2_2  and  C3_3 
REMARK       I    between atoms: C3_3  and  N1_5 
REMARK    2  A    between atoms: C5_7  and  O2_8 
REMARK    3  A    between atoms: O2_8  and  C6_9 
REMARK    4  A    between atoms: C10_15  and  N3_16 
REMARK    5  A    between atoms: C11_18  and  C12_19 
REMARK    6  A    between atoms: C13_21  and  N4_22 
ROOT
HETATM    1  C3  UNL     1      24.096  -0.191  53.668  1.00  0.00     0.243 C 
HETATM    2  O1  UNL     1      23.507  -0.850  54.561  1.00  0.00    -0.268 OA
HETATM    3  N1  UNL     1      24.172   0.749  52.604  1.00  0.00    -0.337 N 
HETATM    4  C4  UNL     1      25.247   1.265  51.737  1.00  0.00     0.169 C 
HETATM    5  C5  UNL     1      24.507   2.603  51.838  1.00  0.00     0.120 C 
HETATM    6  C8  UNL     1      24.678   3.312  53.121  1.00  0.00     0.218 C 
HETATM    7  O3  UNL     1      23.855   4.459  53.152  1.00  0.00    -0.342 OA
HETATM    8  C9  UNL     1      22.835   5.013  52.408  1.00  0.00     0.247 C 
HETATM    9  N2  UNL     1      21.787   4.426  51.947  1.00  0.00    -0.255 NA
HETATM   10  C10 UNL     1      21.269   3.109  51.991  1.00  0.00     0.223 C 
HETATM   11  C11 UNL     1      22.147   2.064  52.626  1.00  0.00     0.099 C 
HETATM   12  C14 UNL     1      23.314   1.655  51.838  1.00  0.00     0.138 C 
ENDROOT
BRANCH  11  13
HETATM   13  C12 UNL     1      21.261   0.837  52.672  1.00  0.00     0.031 C 
HETATM   14 CL1  UNL     1      20.915  -0.109  51.252  1.00  0.00    -0.087 Cl
HETATM   15  C13 UNL     1      20.596   0.212  53.632  1.00  0.00     0.074 C 
BRANCH  15  16
HETATM   16  N4  UNL     1      19.750  -0.919  53.806  1.00  0.00    -0.311 NA
HETATM   17  H18 UNL     1      19.592  -1.589  53.014  1.00  0.00     0.123 HD
HETATM   18  H19 UNL     1      19.510  -1.661  53.099  1.00  0.00     0.123 HD
ENDBRANCH  15  16
ENDBRANCH  11  13
BRANCH  10  19
HETATM   19  N3  UNL     1      20.010   3.091  52.755  1.00  0.00    -0.137 NA
HETATM   20  F1  UNL     1      18.955   3.181  51.882  1.00  0.00    -0.134 F 
HETATM   21  H15 UNL     1      19.900   2.118  53.170  1.00  0.00     0.161 HD
ENDBRANCH  10  19
BRANCH   5  22
HETATM   22  O2  UNL     1      24.453   3.370  50.722  1.00  0.00    -0.374 OA
BRANCH  22  23
HETATM   23  C6  UNL     1      25.571   3.942  50.222  1.00  0.00     0.164 C 
HETATM   24  C7  UNL     1      25.316   5.270  49.581  1.00  0.00     0.033 C 
ENDBRANCH  22  23
ENDBRANCH   5  22
BRANCH   1  25
HETATM   25  C2  UNL     1      25.302  -0.873  54.089  1.00  0.00     0.064 C 
HETATM   26  C1  UNL     1      25.938  -0.131  54.950  1.00  0.00     0.017 C 
ENDBRANCH   1  25
TORSDOF 6
ENDMDL
MODEL 4
REMARK VINA RESULT:      -6.1      3.005      5.396
REMARK  6 active torsions:
REMARK  status: ('A' for Active; 'I' for Inactive)
REMARK    1  A    between atoms: C2_2  and  C3_3 
REMARK       I    between atoms: C3_3  and  N1_5 
REMARK    2  A    between atoms: C5_7  and  O2_8 
REMARK    3  A    between atoms: O2_8  and  C6_9 
REMARK    4  A    between atoms: C10_15  and  N3_16 
REMARK    5  A    between atoms: C11_18  and  C12_19 
REMARK    6  A    between atoms: C13_21  and  N4_22 
ROOT
HETATM    1  C3  UNL     1      25.863   0.497  53.991  1.00  0.00     0.243 C 
HETATM    2  O1  UNL     1      25.889   0.011  55.150  1.00  0.00    -0.268 OA
HETATM    3  N1  UNL     1      25.234   0.915  52.787  1.00  0.00    -0.337 N 
HETATM    4  C4  UNL     1      25.690   1.517  51.521  1.00  0.00     0.169 C 
HETATM    5  C5  UNL     1      24.374   2.301  51.572  1.00  0.00     0.120 C 
HETATM    6  C8  UNL     1      24.353   3.416  52.539  1.00  0.00     0.218 C 
HETATM    7  O3  UNL     1      23.060   3.982  52.595  1.00  0.00    -0.342 OA
HETATM    8  C9  UNL     1      21.793   3.697  52.133  1.00  0.00     0.247 C 
HETATM    9  N2  UNL     1      21.168   2.573  52.187  1.00  0.00    -0.255 NA
HETATM   10  C10 UNL     1      21.462   1.281  52.684  1.00  0.00     0.223 C 
HETATM   11  C11 UNL     1      22.859   1.062  53.200  1.00  0.00     0.099 C 
HETATM   12  C14 UNL     1      23.905   0.983  52.175  1.00  0.00     0.138 C 
ENDROOT
BRANCH  11  13
HETATM   13  C12 UNL     1      22.802  -0.326  53.803  1.00  0.00     0.031 C 
HETATM   14 CL1  UNL     1      22.626  -1.754  52.824  1.00  0.00    -0.087 Cl
HETATM   15  C13 UNL     1      22.858  -0.800  55.038  1.00  0.00     0.074 C 
BRANCH  15  16
HETATM   16  N4  UNL     1      22.818  -2.045  55.725  1.00  0.00    -0.311 NA
HETATM   17  H18 UNL     1      23.314  -2.160  56.644  1.00  0.00     0.123 HD
HETATM   18  H19 UNL     1      23.268  -2.290  56.645  1.00  0.00     0.123 HD
ENDBRANCH  15  16
ENDBRANCH  11  13
BRANCH  10  19
HETATM   19  N3  UNL     1      20.567   0.962  53.810  1.00  0.00    -0.137 NA
HETATM   20  F1  UNL     1      19.597   0.091  53.379  1.00  0.00    -0.134 F 
HETATM   21  H15 UNL     1      21.122   0.383  54.509  1.00  0.00     0.161 HD
ENDBRANCH  10  19
BRANCH   5  22
HETATM   22  O2  UNL     1      23.722   2.499  50.400  1.00  0.00    -0.374 OA
BRANCH  22  23
HETATM   23  C6  UNL     1      24.241   3.309  49.450  1.00  0.00     0.164 C 
HETATM   24  C7  UNL     1      23.212   4.167  48.783  1.00  0.00     0.033 C 
ENDBRANCH  22  23
ENDBRANCH   5  22
BRANCH   1  25
HETATM   25  C2  UNL     1      27.298   0.648  54.122  1.00  0.00     0.064 C 
HETATM   26  C1  UNL     1      27.886  -0.418  53.660  1.00  0.00     0.017 C 
ENDBRANCH   1  25
TORSDOF 6
ENDMDL
MODEL 5
REMARK VINA RESULT:      -6.0      3.256      6.098
REMARK  6 active torsions:
REMARK  status: ('A' for Active; 'I' for Inactive)
REMARK    1  A    between atoms: C2_2  and  C3_3 
REMARK       I    between atoms: C3_3  and  N1_5 
REMARK    2  A    between atoms: C5_7  and  O2_8 
REMARK    3  A    between atoms: O2_8  and  C6_9 
REMARK    4  A    between atoms: C10_15  and  N3_16 
REMARK    5  A    between atoms: C11_18  and  C12_19 
REMARK    6  A    between atoms: C13_21  and  N4_22 
ROOT
HETATM    1  C3  UNL     1      25.987   2.816  51.559  1.00  0.00     0.243 C 
HETATM    2  O1  UNL     1      27.101   2.948  50.993  1.00  0.00    -0.268 OA
HETATM    3  N1  UNL     1      24.610   3.097  51.765  1.00  0.00    -0.337 N 
HETATM    4  C4  UNL     1      23.569   2.615  52.692  1.00  0.00     0.169 C 
HETATM    5  C5  UNL     1      22.624   2.752  51.494  1.00  0.00     0.120 C 
HETATM    6  C8  UNL     1      22.752   1.690  50.477  1.00  0.00     0.218 C 
HETATM    7  O3  UNL     1      21.932   1.985  49.365  1.00  0.00    -0.342 OA
HETATM    8  C9  UNL     1      21.182   3.040  48.893  1.00  0.00     0.247 C 
HETATM    9  N2  UNL     1      21.525   4.278  48.811  1.00  0.00    -0.255 NA
HETATM   10  C10 UNL     1      22.685   5.023  49.128  1.00  0.00     0.223 C 
HETATM   11  C11 UNL     1      23.792   4.278  49.824  1.00  0.00     0.099 C 
HETATM   12  C14 UNL     1      23.540   3.941  51.229  1.00  0.00     0.138 C 
ENDROOT
BRANCH  11  13
HETATM   13  C12 UNL     1      24.925   5.282  49.865  1.00  0.00     0.031 C 
HETATM   14 CL1  UNL     1      26.342   5.122  48.866  1.00  0.00    -0.087 Cl
HETATM   15  C13 UNL     1      25.150   6.394  50.548  1.00  0.00     0.074 C 
BRANCH  15  16
HETATM   16  N4  UNL     1      26.144   7.404  50.680  1.00  0.00    -0.311 NA
HETATM   17  H18 UNL     1      27.021   7.363  50.104  1.00  0.00     0.123 HD
HETATM   18  H19 UNL     1      27.060   7.480  50.166  1.00  0.00     0.123 HD
ENDBRANCH  15  16
ENDBRANCH  11  13
BRANCH  10  19
HETATM   19  N3  UNL     1      23.283   5.567  47.896  1.00  0.00    -0.137 NA
HETATM   20  F1  UNL     1      22.627   5.044  46.810  1.00  0.00    -0.134 F 
HETATM   21  H15 UNL     1      23.043   6.602  47.851  1.00  0.00     0.161 HD
ENDBRANCH  10  19
BRANCH   5  22
HETATM   22  O2  UNL     1      21.373   3.213  51.738  1.00  0.00    -0.374 OA
BRANCH  22  23
HETATM   23  C6  UNL     1      20.506   2.494  52.484  1.00  0.00     0.164 C 
HETATM   24  C7  UNL     1      19.170   2.323  51.832  1.00  0.00     0.033 C 
ENDBRANCH  22  23
ENDBRANCH   5  22
BRANCH   1  25
HETATM   25  C2  UNL     1      26.638   1.836  52.405  1.00  0.00     0.064 C 
HETATM   26  C1  UNL     1      26.572   0.666  51.837  1.00  0.00     0.017 C 
ENDBRANCH   1  25
TORSDOF 6
ENDMDL
MODEL 6
REMARK VINA RESULT:      -6.0      9.205     11.517
REMARK  6 active torsions:
REMARK  status: ('A' for Active; 'I' for Inactive)
REMARK    1  A    between atoms: C2_2  and  C3_3 
REMARK       I    between atoms: C3_3  and  N1_5 
REMARK    2  A    between atoms: C5_7  and  O2_8 
REMARK    3  A    between atoms: O2_8  and  C6_9 
REMARK    4  A    between atoms: C10_15  and  N3_16 
REMARK    5  A    between atoms: C11_18  and  C12_19 
REMARK    6  A    between atoms: C13_21  and  N4_22 
ROOT
HETATM    1  C3  UNL     1      31.148   9.830  46.131  1.00  0.00     0.243 C 
HETATM    2  O1  UNL     1      30.032  10.093  45.617  1.00  0.00    -0.268 OA
HETATM    3  N1  UNL     1      32.020   9.179  47.045  1.00  0.00    -0.337 N 
HETATM    4  C4  UNL     1      33.471   9.196  47.302  1.00  0.00     0.169 C 
HETATM    5  C5  UNL     1      33.305   7.701  47.592  1.00  0.00     0.120 C 
HETATM    6  C8  UNL     1      33.138   6.851  46.397  1.00  0.00     0.218 C 
HETATM    7  O3  UNL     1      32.864   5.520  46.785  1.00  0.00    -0.342 OA
HETATM    8  C9  UNL     1      32.556   4.829  47.937  1.00  0.00     0.247 C 
HETATM    9  N2  UNL     1      31.685   5.138  48.833  1.00  0.00    -0.255 NA
HETATM   10  C10 UNL     1      30.762   6.196  49.017  1.00  0.00     0.223 C 
HETATM   11  C11 UNL     1      30.824   7.321  48.020  1.00  0.00     0.099 C 
HETATM   12  C14 UNL     1      31.981   8.214  48.146  1.00  0.00     0.138 C 
ENDROOT
BRANCH  11  13
HETATM   13  C12 UNL     1      29.631   8.182  48.381  1.00  0.00     0.031 C 
HETATM   14 CL1  UNL     1      28.153   8.148  47.462  1.00  0.00    -0.087 Cl
HETATM   15  C13 UNL     1      29.384   9.066  49.335  1.00  0.00     0.074 C 
BRANCH  15  16
HETATM   16  N4  UNL     1      28.336   9.921  49.777  1.00  0.00    -0.311 NA
HETATM   17  H18 UNL     1      28.291  10.917  49.447  1.00  0.00     0.123 HD
HETATM   18  H19 UNL     1      28.177  10.930  49.524  1.00  0.00     0.123 HD
ENDBRANCH  15  16
ENDBRANCH  11  13
BRANCH  10  19
HETATM   19  N3  UNL     1      29.385   5.677  48.949  1.00  0.00    -0.137 NA
HETATM   20  F1  UNL     1      29.272   4.845  47.864  1.00  0.00    -0.134 F 
HETATM   21  H15 UNL     1      29.247   5.022  49.775  1.00  0.00     0.161 HD
ENDBRANCH  10  19
BRANCH   5  22
HETATM   22  O2  UNL     1      34.030   7.180  48.612  1.00  0.00    -0.374 OA
BRANCH  22  23
HETATM   23  C6  UNL     1      35.360   6.980  48.482  1.00  0.00     0.164 C 
HETATM   24  C7  UNL     1      35.861   5.817  49.278  1.00  0.00     0.033 C 
ENDBRANCH  22  23
ENDBRANCH   5  22
BRANCH   1  25
HETATM   25  C2  UNL     1      31.706  10.760  45.171  1.00  0.00     0.064 C 
HETATM   26  C1  UNL     1      31.578  11.975  45.623  1.00  0.00     0.017 C 
ENDBRANCH   1  25
TORSDOF 6
ENDMDL
MODEL 7
REMARK VINA RESULT:      -5.7      8.664     10.914
REMARK  6 active torsions:
REMARK  status: ('A' for Active; 'I' for Inactive)
REMARK    1  A    between atoms: C2_2  and  C3_3 
REMARK       I    between atoms: C3_3  and  N1_5 
REMARK    2  A    between atoms: C5_7  and  O2_8 
REMARK    3  A    between atoms: O2_8  and  C6_9 
REMARK    4  A    between atoms: C10_15  and  N3_16 
REMARK    5  A    between atoms: C11_18  and  C12_19 
REMARK    6  A    between atoms: C13_21  and  N4_22 
ROOT
HETATM    1  C3  UNL     1      28.756   6.030  48.359  1.00  0.00     0.243 C 
HETATM    2  O1  UNL     1      28.810   4.801  48.102  1.00  0.00    -0.268 OA
HETATM    3  N1  UNL     1      29.300   7.331  48.534  1.00  0.00    -0.337 N 
HETATM    4  C4  UNL     1      28.758   8.655  48.887  1.00  0.00     0.169 C 
HETATM    5  C5  UNL     1      29.789   9.198  47.893  1.00  0.00     0.120 C 
HETATM    6  C8  UNL     1      29.441   9.009  46.471  1.00  0.00     0.218 C 
HETATM    7  O3  UNL     1      30.513   9.426  45.652  1.00  0.00    -0.342 OA
HETATM    8  C9  UNL     1      31.831   9.803  45.797  1.00  0.00     0.247 C 
HETATM    9  N2  UNL     1      32.747   9.217  46.486  1.00  0.00    -0.255 NA
HETATM   10  C10 UNL     1      32.810   8.064  47.303  1.00  0.00     0.223 C 
HETATM   11  C11 UNL     1      31.509   7.351  47.558  1.00  0.00     0.099 C 
HETATM   12  C14 UNL     1      30.584   8.032  48.469  1.00  0.00     0.138 C 
ENDROOT
BRANCH  11  13
HETATM   13  C12 UNL     1      31.930   6.099  48.299  1.00  0.00     0.031 C 
HETATM   14 CL1  UNL     1      32.062   6.050  50.034  1.00  0.00    -0.087 Cl
HETATM   15  C13 UNL     1      32.265   4.873  47.926  1.00  0.00     0.074 C 
BRANCH  15  16
HETATM   16  N4  UNL     1      32.670   3.636  48.503  1.00  0.00    -0.311 NA
HETATM   17  H18 UNL     1      32.420   3.408  49.496  1.00  0.00     0.123 HD
HETATM   18  H19 UNL     1      32.485   3.288  49.479  1.00  0.00     0.123 HD
ENDBRANCH  15  16
ENDBRANCH  11  13
BRANCH  10  19
HETATM   19  N3  UNL     1      33.700   7.062  46.689  1.00  0.00    -0.137 NA
HETATM   20  F1  UNL     1      33.334   6.881  45.378  1.00  0.00    -0.134 F 
HETATM   21  H15 UNL     1      34.668   7.495  46.615  1.00  0.00     0.161 HD
ENDBRANCH  10  19
BRANCH   5  22
HETATM   22  O2  UNL     1      30.417  10.354  48.217  1.00  0.00    -0.374 OA
BRANCH  22  23
HETATM   23  C6  UNL     1      29.739  11.523  48.245  1.00  0.00     0.164 C 
HETATM   24  C7  UNL     1      30.390  12.560  49.106  1.00  0.00     0.033 C 
ENDBRANCH  22  23
ENDBRANCH   5  22
BRANCH   1  25
HETATM   25  C2  UNL     1      27.333   5.833  48.548  1.00  0.00     0.064 C 
HETATM   26  C1  UNL     1      27.115   4.611  48.940  1.00  0.00     0.017 C 
ENDBRANCH   1  25
TORSDOF 6
ENDMDL
MODEL 8
REMARK VINA RESULT:      -5.7     10.770     12.799
REMARK  6 active torsions:
REMARK  status: ('A' for Active; 'I' for Inactive)
REMARK    1  A    between atoms: C2_2  and  C3_3 
REMARK       I    between atoms: C3_3  and  N1_5 
REMARK    2  A    between atoms: C5_7  and  O2_8 
REMARK    3  A    between atoms: O2_8  and  C6_9 
REMARK    4  A    between atoms: C10_15  and  N3_16 
REMARK    5  A    between atoms: C11_18  and  C12_19 
REMARK    6  A    between atoms: C13_21  and  N4_22 
ROOT
HETATM    1  C3  UNL     1      33.421   5.299  43.776  1.00  0.00     0.243 C 
HETATM    2  O1  UNL     1      34.139   4.358  43.355  1.00  0.00    -0.268 OA
HETATM    3  N1  UNL     1      32.800   6.092  44.779  1.00  0.00    -0.337 N 
HETATM    4  C4  UNL     1      31.914   7.270  44.784  1.00  0.00     0.169 C 
HETATM    5  C5  UNL     1      32.704   7.696  46.026  1.00  0.00     0.120 C 
HETATM    6  C8  UNL     1      34.051   8.232  45.753  1.00  0.00     0.218 C 
HETATM    7  O3  UNL     1      34.732   8.468  46.968  1.00  0.00    -0.342 OA
HETATM    8  C9  UNL     1      34.565   8.197  48.309  1.00  0.00     0.247 C 
HETATM    9  N2  UNL     1      34.240   7.077  48.853  1.00  0.00    -0.255 NA
HETATM   10  C10 UNL     1      33.945   5.776  48.379  1.00  0.00     0.223 C 
HETATM   11  C11 UNL     1      33.877   5.605  46.885  1.00  0.00     0.099 C 
HETATM   12  C14 UNL     1      32.696   6.186  46.237  1.00  0.00     0.138 C 
ENDROOT
BRANCH  11  13
HETATM   13  C12 UNL     1      33.721   4.110  46.705  1.00  0.00     0.031 C 
HETATM   14 CL1  UNL     1      35.042   3.095  46.202  1.00  0.00    -0.087 Cl
HETATM   15  C13 UNL     1      32.714   3.262  46.849  1.00  0.00     0.074 C 
BRANCH  15  16
HETATM   16  N4  UNL     1      32.439   1.872  46.717  1.00  0.00    -0.311 NA
HETATM   17  H18 UNL     1      32.533   1.232  47.544  1.00  0.00     0.123 HD
HETATM   18  H19 UNL     1      32.494   1.129  47.461  1.00  0.00     0.123 HD
ENDBRANCH  15  16
ENDBRANCH  11  13
BRANCH  10  19
HETATM   19  N3  UNL     1      34.974   4.829  48.842  1.00  0.00    -0.137 NA
HETATM   20  F1  UNL     1      35.822   5.475  49.707  1.00  0.00    -0.134 F 
HETATM   21  H15 UNL     1      34.494   4.110  49.462  1.00  0.00     0.161 HD
ENDBRANCH  10  19
BRANCH   5  22
HETATM   22  O2  UNL     1      32.010   8.278  47.035  1.00  0.00    -0.374 OA
BRANCH  22  23
HETATM   23  C6  UNL     1      31.510   9.526  46.898  1.00  0.00     0.164 C 
HETATM   24  C7  UNL     1      31.281  10.215  48.207  1.00  0.00     0.033 C 
ENDBRANCH  22  23
ENDBRANCH   5  22
BRANCH   1  25
HETATM   25  C2  UNL     1      33.201   5.631  42.383  1.00  0.00     0.064 C 
HETATM   26  C1  UNL     1      33.168   4.536  41.680  1.00  0.00     0.017 C 
ENDBRANCH   1  25
TORSDOF 6
ENDMDL
MODEL 9
REMARK VINA RESULT:      -5.7      2.889      5.813
REMARK  6 active torsions:
REMARK  status: ('A' for Active; 'I' for Inactive)
REMARK    1  A    between atoms: C2_2  and  C3_3 
REMARK       I    between atoms: C3_3  and  N1_5 
REMARK    2  A    between atoms: C5_7  and  O2_8 
REMARK    3  A    between atoms: O2_8  and  C6_9 
REMARK    4  A    between atoms: C10_15  and  N3_16 
REMARK    5  A    between atoms: C11_18  and  C12_19 
REMARK    6  A    between atoms: C13_21  and  N4_22 
ROOT
HETATM    1  C3  UNL     1      25.336   2.327  51.341  1.00  0.00     0.243 C 
HETATM    2  O1  UNL     1      26.111   2.883  50.522  1.00  0.00    -0.268 OA
HETATM    3  N1  UNL     1      24.115   2.168  52.050  1.00  0.00    -0.337 N 
HETATM    4  C4  UNL     1      23.604   1.222  53.058  1.00  0.00     0.169 C 
HETATM    5  C5  UNL     1      22.265   1.370  52.327  1.00  0.00     0.120 C 
HETATM    6  C8  UNL     1      22.175   0.646  51.044  1.00  0.00     0.218 C 
HETATM    7  O3  UNL     1      20.956   0.956  50.400  1.00  0.00    -0.342 OA
HETATM    8  C9  UNL     1      19.915   1.847  50.545  1.00  0.00     0.247 C 
HETATM    9  N2  UNL     1      19.985   3.116  50.750  1.00  0.00    -0.255 NA
HETATM   10  C10 UNL     1      21.034   4.054  50.899  1.00  0.00     0.223 C 
HETATM   11  C11 UNL     1      22.432   3.498  50.939  1.00  0.00     0.099 C 
HETATM   12  C14 UNL     1      22.795   2.790  52.172  1.00  0.00     0.138 C 
ENDROOT
BRANCH  11  13
HETATM   13  C12 UNL     1      23.307   4.734  50.931  1.00  0.00     0.031 C 
HETATM   14 CL1  UNL     1      24.159   5.256  49.506  1.00  0.00    -0.087 Cl
HETATM   15  C13 UNL     1      23.635   5.639  51.840  1.00  0.00     0.074 C 
BRANCH  15  16
HETATM   16  N4  UNL     1      24.425   6.818  51.962  1.00  0.00    -0.311 NA
HETATM   17  H18 UNL     1      25.203   6.863  52.665  1.00  0.00     0.123 HD
HETATM   18  H19 UNL     1      25.227   6.991  52.620  1.00  0.00     0.123 HD
ENDBRANCH  15  16
ENDBRANCH  11  13
BRANCH  10  19
HETATM   19  N3  UNL     1      21.017   5.008  49.777  1.00  0.00    -0.137 NA
HETATM   20  F1  UNL     1      19.944   5.852  49.922  1.00  0.00    -0.134 F 
HETATM   21  H15 UNL     1      21.853   5.655  49.891  1.00  0.00     0.161 HD
ENDBRANCH  10  19
BRANCH   5  22
HETATM   22  O2  UNL     1      21.143   1.406  53.086  1.00  0.00    -0.374 OA
BRANCH  22  23
HETATM   23  C6  UNL     1      20.828   0.375  53.902  1.00  0.00     0.164 C 
HETATM   24  C7  UNL     1      19.660  -0.425  53.417  1.00  0.00     0.033 C 
ENDBRANCH  22  23
ENDBRANCH   5  22
BRANCH   1  25
HETATM   25  C2  UNL     1      26.416   1.392  51.586  1.00  0.00     0.064 C 
HETATM   26  C1  UNL     1      27.251   1.914  52.438  1.00  0.00     0.017 C 
ENDBRANCH   1  25
TORSDOF 6
ENDMDL
