MODEL 1
REMARK VINA RESULT:      -7.5      0.000      0.000
REMARK  7 active torsions:
REMARK  status: ('A' for Active; 'I' for Inactive)
REMARK    1  A    between atoms: S1_2  and  C1_3 
REMARK    2  A    between atoms: C1_3  and  C2_4 
REMARK    3  A    between atoms: C1_3  and  N3_15 
REMARK    4  A    between atoms: C2_4  and  C3_5 
REMARK    5  A    between atoms: C3_5  and  C4_6 
REMARK    6  A    between atoms: N3_15  and  C11_16 
REMARK    7  A    between atoms: C11_16  and  C12_17 
ROOT
HETATM    1  C2  UNL     1      24.136  -0.474  53.674  1.00  0.00     0.071 C 
ENDROOT
BRANCH   1   2
HETATM    2  C1  UNL     1      22.708  -0.427  53.324  1.00  0.00     0.073 C 
BRANCH   2   3
HETATM    3  S1  UNL     1      21.855  -1.092  54.604  1.00  0.00     0.083 SA
HETATM    4  O1  UNL     1      22.895  -1.568  55.684  1.00  0.00    -0.143 OA
ENDBRANCH   2   3
BRANCH   2   5
HETATM    5  N3  UNL     1      21.874   0.018  52.277  1.00  0.00    -0.382 N 
HETATM    6  H14 UNL     1      21.643  -0.607  51.489  1.00  0.00     0.160 HD
BRANCH   5   7
HETATM    7  C11 UNL     1      21.322   1.355  52.270  1.00  0.00     0.158 C 
BRANCH   7   8
HETATM    8  C12 UNL     1      22.323   2.241  51.575  1.00  0.00    -0.041 A 
HETATM    9  C13 UNL     1      22.863   3.287  52.283  1.00  0.00     0.009 A 
HETATM   10  C14 UNL     1      23.784   4.166  51.767  1.00  0.00     0.001 A 
HETATM   11  C15 UNL     1      24.171   3.957  50.446  1.00  0.00     0.000 A 
HETATM   12  C16 UNL     1      23.624   2.896  49.726  1.00  0.00     0.001 A 
HETATM   13  C17 UNL     1      22.695   2.019  50.268  1.00  0.00     0.009 A 
ENDBRANCH   7   8
ENDBRANCH   5   7
ENDBRANCH   2   5
ENDBRANCH   1   2
BRANCH   1  14
HETATM   14  C3  UNL     1      24.961   0.172  52.561  1.00  0.00     0.043 C 
BRANCH  14  15
HETATM   15  C4  UNL     1      26.144   0.783  53.225  1.00  0.00    -0.042 C 
HETATM   16  C5  UNL     1      27.319   0.232  53.483  1.00  0.00     0.008 C 
HETATM   17  C6  UNL     1      27.839  -1.105  53.222  1.00  0.00     0.009 C 
HETATM   18  C9  UNL     1      28.250   1.162  54.160  1.00  0.00     0.485 C 
HETATM   19  C7  UNL     1      29.153  -1.243  53.300  1.00  0.00     0.003 C 
HETATM   20  C8  UNL     1      30.106  -0.160  53.624  1.00  0.00     0.300 C 
HETATM   21  N1  UNL     1      29.487   1.132  53.405  1.00  0.00     0.125 N 
HETATM   22  H9  UNL     1      29.258   1.213  52.407  1.00  0.00     0.319 HD
HETATM   23  N2  UNL     1      27.574   2.433  54.052  1.00  0.00     0.125 N 
HETATM   24  C10 UNL     1      26.194   2.183  53.725  1.00  0.00     0.307 C 
HETATM   25  H11 UNL     1      28.049   3.087  53.414  1.00  0.00     0.319 HD
ENDBRANCH  14  15
ENDBRANCH   1  14
TORSDOF 7
ENDMDL
MODEL 2
REMARK VINA RESULT:      -7.3      2.959      5.664
REMARK  7 active torsions:
REMARK  status: ('A' for Active; 'I' for Inactive)
REMARK    1  A    between atoms: S1_2  and  C1_3 
REMARK    2  A    between atoms: C1_3  and  C2_4 
REMARK    3  A    between atoms: C1_3  and  N3_15 
REMARK    4  A    between atoms: C2_4  and  C3_5 
REMARK    5  A    between atoms: C3_5  and  C4_6 
REMARK    6  A    between atoms: N3_15  and  C11_16 
REMARK    7  A    between atoms: C11_16  and  C12_17 
ROOT
HETATM    1  C2  UNL     1      27.054   1.460  52.839  1.00  0.00     0.071 C 
ENDROOT
BRANCH   1   2
HETATM    2  C1  UNL     1      27.014   0.255  53.683  1.00  0.00     0.073 C 
BRANCH   2   3
HETATM    3  S1  UNL     1      28.445   0.207  54.555  1.00  0.00     0.083 SA
HETATM    4  O1  UNL     1      28.921   1.688  54.787  1.00  0.00    -0.143 OA
ENDBRANCH   2   3
BRANCH   2   5
HETATM    5  N3  UNL     1      26.150  -0.818  53.981  1.00  0.00    -0.382 N 
HETATM    6  H14 UNL     1      26.131  -1.658  53.382  1.00  0.00     0.160 HD
BRANCH   5   7
HETATM    7  C11 UNL     1      25.266  -0.779  55.126  1.00  0.00     0.158 C 
BRANCH   7   8
HETATM    8  C12 UNL     1      23.857  -0.850  54.596  1.00  0.00    -0.041 A 
HETATM    9  C13 UNL     1      23.625  -0.417  53.314  1.00  0.00     0.009 A 
HETATM   10  C14 UNL     1      22.390  -0.428  52.713  1.00  0.00     0.001 A 
HETATM   11  C15 UNL     1      21.332  -0.913  53.477  1.00  0.00     0.000 A 
HETATM   12  C16 UNL     1      21.565  -1.352  54.779  1.00  0.00     0.001 A 
HETATM   13  C17 UNL     1      22.822  -1.332  55.366  1.00  0.00     0.009 A 
ENDBRANCH   7   8
ENDBRANCH   5   7
ENDBRANCH   2   5
ENDBRANCH   1   2
BRANCH   1  14
HETATM   14  C3  UNL     1      26.235   1.226  51.570  1.00  0.00     0.043 C 
BRANCH  14  15
HETATM   15  C4  UNL     1      25.862   2.575  51.064  1.00  0.00    -0.042 C 
HETATM   16  C5  UNL     1      24.735   3.242  51.253  1.00  0.00     0.008 C 
HETATM   17  C6  UNL     1      23.521   2.903  51.988  1.00  0.00     0.009 C 
HETATM   18  C9  UNL     1      24.733   4.563  50.587  1.00  0.00     0.485 C 
HETATM   19  C7  UNL     1      22.710   3.911  52.265  1.00  0.00     0.003 C 
HETATM   20  C8  UNL     1      22.943   5.322  51.891  1.00  0.00     0.300 C 
HETATM   21  N1  UNL     1      24.346   5.533  51.592  1.00  0.00     0.125 N 
HETATM   22  H9  UNL     1      24.887   5.348  52.445  1.00  0.00     0.319 HD
HETATM   23  N2  UNL     1      26.109   4.721  50.177  1.00  0.00     0.125 N 
HETATM   24  C10 UNL     1      26.744   3.428  50.224  1.00  0.00     0.307 C 
HETATM   25  H11 UNL     1      26.604   5.454  50.704  1.00  0.00     0.319 HD
ENDBRANCH  14  15
ENDBRANCH   1  14
TORSDOF 7
ENDMDL
MODEL 3
REMARK VINA RESULT:      -7.2      3.706      4.746
REMARK  7 active torsions:
REMARK  status: ('A' for Active; 'I' for Inactive)
REMARK    1  A    between atoms: S1_2  and  C1_3 
REMARK    2  A    between atoms: C1_3  and  C2_4 
REMARK    3  A    between atoms: C1_3  and  N3_15 
REMARK    4  A    between atoms: C2_4  and  C3_5 
REMARK    5  A    between atoms: C3_5  and  C4_6 
REMARK    6  A    between atoms: N3_15  and  C11_16 
REMARK    7  A    between atoms: C11_16  and  C12_17 
ROOT
HETATM    1  C2  UNL     1      24.094   2.041  51.535  1.00  0.00     0.071 C 
ENDROOT
BRANCH   1   2
HETATM    2  C1  UNL     1      24.505   3.384  51.098  1.00  0.00     0.073 C 
BRANCH   2   3
HETATM    3  S1  UNL     1      23.126   4.335  51.038  1.00  0.00     0.083 SA
HETATM    4  O1  UNL     1      23.557   5.829  51.277  1.00  0.00    -0.143 OA
ENDBRANCH   2   3
BRANCH   2   5
HETATM    5  N3  UNL     1      25.677   4.089  50.752  1.00  0.00    -0.382 N 
HETATM    6  H14 UNL     1      25.966   4.920  51.289  1.00  0.00     0.160 HD
BRANCH   5   7
HETATM    7  C11 UNL     1      26.506   3.674  49.641  1.00  0.00     0.158 C 
BRANCH   7   8
HETATM    8  C12 UNL     1      26.980   4.928  48.955  1.00  0.00    -0.041 A 
HETATM    9  C13 UNL     1      26.078   5.948  48.772  1.00  0.00     0.009 A 
HETATM   10  C14 UNL     1      26.383   7.140  48.163  1.00  0.00     0.001 A 
HETATM   11  C15 UNL     1      27.693   7.292  47.714  1.00  0.00     0.000 A 
HETATM   12  C16 UNL     1      28.610   6.258  47.898  1.00  0.00     0.001 A 
HETATM   13  C17 UNL     1      28.280   5.061  48.517  1.00  0.00     0.009 A 
ENDBRANCH   7   8
ENDBRANCH   5   7
ENDBRANCH   2   5
ENDBRANCH   1   2
BRANCH   1  14
HETATM   14  C3  UNL     1      24.219   1.933  53.055  1.00  0.00     0.043 C 
BRANCH  14  15
HETATM   15  C4  UNL     1      25.225   0.868  53.313  1.00  0.00    -0.042 C 
HETATM   16  C5  UNL     1      26.541   0.981  53.392  1.00  0.00     0.008 C 
HETATM   17  C6  UNL     1      27.423   2.134  53.259  1.00  0.00     0.009 C 
HETATM   18  C9  UNL     1      27.211  -0.311  53.664  1.00  0.00     0.485 C 
HETATM   19  C7  UNL     1      28.654   1.981  53.719  1.00  0.00     0.003 C 
HETATM   20  C8  UNL     1      29.183   0.750  54.344  1.00  0.00     0.300 C 
HETATM   21  N1  UNL     1      28.092  -0.091  54.794  1.00  0.00     0.125 N 
HETATM   22  H9  UNL     1      27.569   0.420  55.516  1.00  0.00     0.319 HD
HETATM   23  N2  UNL     1      26.108  -1.184  53.993  1.00  0.00     0.125 N 
HETATM   24  C10 UNL     1      24.891  -0.565  53.536  1.00  0.00     0.307 C 
HETATM   25  H11 UNL     1      26.097  -1.460  54.984  1.00  0.00     0.319 HD
ENDBRANCH  14  15
ENDBRANCH   1  14
TORSDOF 7
ENDMDL
MODEL 4
REMARK VINA RESULT:      -7.2      2.950      6.624
REMARK  7 active torsions:
REMARK  status: ('A' for Active; 'I' for Inactive)
REMARK    1  A    between atoms: S1_2  and  C1_3 
REMARK    2  A    between atoms: C1_3  and  C2_4 
REMARK    3  A    between atoms: C1_3  and  N3_15 
REMARK    4  A    between atoms: C2_4  and  C3_5 
REMARK    5  A    between atoms: C3_5  and  C4_6 
REMARK    6  A    between atoms: N3_15  and  C11_16 
REMARK    7  A    between atoms: C11_16  and  C12_17 
ROOT
HETATM    1  C2  UNL     1      24.713   2.057  51.444  1.00  0.00     0.071 C 
ENDROOT
BRANCH   1   2
HETATM    2  C1  UNL     1      26.125   2.470  51.478  1.00  0.00     0.073 C 
BRANCH   2   3
HETATM    3  S1  UNL     1      26.435   3.311  50.062  1.00  0.00     0.083 SA
HETATM    4  O1  UNL     1      25.778   4.735  50.191  1.00  0.00    -0.143 OA
ENDBRANCH   2   3
BRANCH   2   5
HETATM    5  N3  UNL     1      27.246   2.391  52.330  1.00  0.00    -0.382 N 
HETATM    6  H14 UNL     1      28.143   2.821  52.057  1.00  0.00     0.160 HD
BRANCH   5   7
HETATM    7  C11 UNL     1      27.178   1.709  53.605  1.00  0.00     0.158 C 
BRANCH   7   8
HETATM    8  C12 UNL     1      27.769   0.338  53.401  1.00  0.00    -0.041 A 
HETATM    9  C13 UNL     1      26.931  -0.677  53.010  1.00  0.00     0.009 A 
HETATM   10  C14 UNL     1      27.343  -1.969  52.792  1.00  0.00     0.001 A 
HETATM   11  C15 UNL     1      28.697  -2.231  52.987  1.00  0.00     0.000 A 
HETATM   12  C16 UNL     1      29.549  -1.202  53.384  1.00  0.00     0.001 A 
HETATM   13  C17 UNL     1      29.111   0.097  53.599  1.00  0.00     0.009 A 
ENDBRANCH   7   8
ENDBRANCH   5   7
ENDBRANCH   2   5
ENDBRANCH   1   2
BRANCH   1  14
HETATM   14  C3  UNL     1      23.978   2.635  52.653  1.00  0.00     0.043 C 
BRANCH  14  15
HETATM   15  C4  UNL     1      22.658   1.950  52.702  1.00  0.00    -0.042 C 
HETATM   16  C5  UNL     1      22.378   0.735  53.144  1.00  0.00     0.008 C 
HETATM   17  C6  UNL     1      23.225  -0.308  53.711  1.00  0.00     0.009 C 
HETATM   18  C9  UNL     1      20.940   0.402  53.030  1.00  0.00     0.485 C 
HETATM   19  C7  UNL     1      22.599  -1.277  54.360  1.00  0.00     0.003 C 
HETATM   20  C8  UNL     1      21.135  -1.370  54.547  1.00  0.00     0.300 C 
HETATM   21  N1  UNL     1      20.521  -0.075  54.332  1.00  0.00     0.125 N 
HETATM   22  H9  UNL     1      20.881   0.572  55.044  1.00  0.00     0.319 HD
HETATM   23  N2  UNL     1      20.340   1.672  52.693  1.00  0.00     0.125 N 
HETATM   24  C10 UNL     1      21.382   2.556  52.238  1.00  0.00     0.307 C 
HETATM   25  H11 UNL     1      19.761   2.056  53.453  1.00  0.00     0.319 HD
ENDBRANCH  14  15
ENDBRANCH   1  14
TORSDOF 7
ENDMDL
MODEL 5
REMARK VINA RESULT:      -7.2      1.932      2.686
REMARK  7 active torsions:
REMARK  status: ('A' for Active; 'I' for Inactive)
REMARK    1  A    between atoms: S1_2  and  C1_3 
REMARK    2  A    between atoms: C1_3  and  C2_4 
REMARK    3  A    between atoms: C1_3  and  N3_15 
REMARK    4  A    between atoms: C2_4  and  C3_5 
REMARK    5  A    between atoms: C3_5  and  C4_6 
REMARK    6  A    between atoms: N3_15  and  C11_16 
REMARK    7  A    between atoms: C11_16  and  C12_17 
ROOT
HETATM    1  C2  UNL     1      24.187   1.043  52.965  1.00  0.00     0.071 C 
ENDROOT
BRANCH   1   2
HETATM    2  C1  UNL     1      23.354   1.900  52.106  1.00  0.00     0.073 C 
BRANCH   2   3
HETATM    3  S1  UNL     1      21.754   1.612  52.511  1.00  0.00     0.083 SA
HETATM    4  O1  UNL     1      21.699   0.288  53.358  1.00  0.00    -0.143 OA
ENDBRANCH   2   3
BRANCH   2   5
HETATM    5  N3  UNL     1      23.502   2.875  51.097  1.00  0.00    -0.382 N 
HETATM    6  H14 UNL     1      23.315   2.639  50.110  1.00  0.00     0.160 HD
BRANCH   5   7
HETATM    7  C11 UNL     1      23.917   4.226  51.408  1.00  0.00     0.158 C 
BRANCH   7   8
HETATM    8  C12 UNL     1      25.036   4.570  50.460  1.00  0.00    -0.041 A 
HETATM    9  C13 UNL     1      25.916   3.575  50.107  1.00  0.00     0.009 A 
HETATM   10  C14 UNL     1      26.976   3.758  49.254  1.00  0.00     0.001 A 
HETATM   11  C15 UNL     1      27.142   5.039  48.733  1.00  0.00     0.000 A 
HETATM   12  C16 UNL     1      26.251   6.049  49.090  1.00  0.00     0.001 A 
HETATM   13  C17 UNL     1      25.185   5.842  49.954  1.00  0.00     0.009 A 
ENDBRANCH   7   8
ENDBRANCH   5   7
ENDBRANCH   2   5
ENDBRANCH   1   2
BRANCH   1  14
HETATM   14  C3  UNL     1      25.406   0.559  52.182  1.00  0.00     0.043 C 
BRANCH  14  15
HETATM   15  C4  UNL     1      26.596   0.944  52.987  1.00  0.00    -0.042 C 
HETATM   16  C5  UNL     1      27.623   0.193  53.349  1.00  0.00     0.008 C 
HETATM   17  C6  UNL     1      27.933  -1.210  53.097  1.00  0.00     0.009 C 
HETATM   18  C9  UNL     1      28.620   0.935  54.153  1.00  0.00     0.485 C 
HETATM   19  C7  UNL     1      29.187  -1.575  53.307  1.00  0.00     0.003 C 
HETATM   20  C8  UNL     1      30.270  -0.680  53.769  1.00  0.00     0.300 C 
HETATM   21  N1  UNL     1      29.909   0.704  53.532  1.00  0.00     0.125 N 
HETATM   22  H9  UNL     1      29.808   0.840  52.519  1.00  0.00     0.319 HD
HETATM   23  N2  UNL     1      28.187   2.307  54.019  1.00  0.00     0.125 N 
HETATM   24  C10 UNL     1      26.829   2.306  53.539  1.00  0.00     0.307 C 
HETATM   25  H11 UNL     1      28.834   2.879  53.458  1.00  0.00     0.319 HD
ENDBRANCH  14  15
ENDBRANCH   1  14
TORSDOF 7
ENDMDL
MODEL 6
REMARK VINA RESULT:      -7.1      2.655      5.514
REMARK  7 active torsions:
REMARK  status: ('A' for Active; 'I' for Inactive)
REMARK    1  A    between atoms: S1_2  and  C1_3 
REMARK    2  A    between atoms: C1_3  and  C2_4 
REMARK    3  A    between atoms: C1_3  and  N3_15 
REMARK    4  A    between atoms: C2_4  and  C3_5 
REMARK    5  A    between atoms: C3_5  and  C4_6 
REMARK    6  A    between atoms: N3_15  and  C11_16 
REMARK    7  A    between atoms: C11_16  and  C12_17 
ROOT
HETATM    1  C2  UNL     1      25.353  -0.474  54.481  1.00  0.00     0.071 C 
ENDROOT
BRANCH   1   2
HETATM    2  C1  UNL     1      26.264   0.641  54.177  1.00  0.00     0.073 C 
BRANCH   2   3
HETATM    3  S1  UNL     1      27.815   0.142  54.569  1.00  0.00     0.083 SA
HETATM    4  O1  UNL     1      28.632   1.409  55.017  1.00  0.00    -0.143 OA
ENDBRANCH   2   3
BRANCH   2   5
HETATM    5  N3  UNL     1      26.220   1.948  53.650  1.00  0.00    -0.382 N 
HETATM    6  H14 UNL     1      26.097   2.760  54.273  1.00  0.00     0.160 HD
BRANCH   5   7
HETATM    7  C11 UNL     1      26.346   2.193  52.229  1.00  0.00     0.158 C 
BRANCH   7   8
HETATM    8  C12 UNL     1      25.060   2.835  51.779  1.00  0.00    -0.041 A 
HETATM    9  C13 UNL     1      24.203   3.313  52.741  1.00  0.00     0.009 A 
HETATM   10  C14 UNL     1      23.002   3.919  52.464  1.00  0.00     0.001 A 
HETATM   11  C15 UNL     1      22.662   4.040  51.119  1.00  0.00     0.000 A 
HETATM   12  C16 UNL     1      23.530   3.556  50.141  1.00  0.00     0.001 A 
HETATM   13  C17 UNL     1      24.740   2.947  50.444  1.00  0.00     0.009 A 
ENDBRANCH   7   8
ENDBRANCH   5   7
ENDBRANCH   2   5
ENDBRANCH   1   2
BRANCH   1  14
HETATM   14  C3  UNL     1      24.471  -0.764  53.268  1.00  0.00     0.043 C 
BRANCH  14  15
HETATM   15  C4  UNL     1      23.071  -0.508  53.703  1.00  0.00    -0.042 C 
HETATM   16  C5  UNL     1      22.075   0.011  53.004  1.00  0.00     0.008 C 
HETATM   17  C6  UNL     1      22.004   0.491  51.629  1.00  0.00     0.009 C 
HETATM   18  C9  UNL     1      20.821   0.111  53.783  1.00  0.00     0.485 C 
HETATM   19  C7  UNL     1      20.788   0.640  51.127  1.00  0.00     0.003 C 
HETATM   20  C8  UNL     1      19.528   0.360  51.848  1.00  0.00     0.300 C 
HETATM   21  N1  UNL     1      19.783  -0.507  52.981  1.00  0.00     0.125 N 
HETATM   22  H9  UNL     1      20.141  -1.403  52.627  1.00  0.00     0.319 HD
HETATM   23  N2  UNL     1      21.118  -0.651  54.974  1.00  0.00     0.125 N 
HETATM   24  C10 UNL     1      22.547  -0.812  55.061  1.00  0.00     0.307 C 
HETATM   25  H11 UNL     1      20.589  -1.533  55.029  1.00  0.00     0.319 HD
ENDBRANCH  14  15
ENDBRANCH   1  14
TORSDOF 7
ENDMDL
MODEL 7
REMARK VINA RESULT:      -7.1      2.564      3.355
REMARK  7 active torsions:
REMARK  status: ('A' for Active; 'I' for Inactive)
REMARK    1  A    between atoms: S1_2  and  C1_3 
REMARK    2  A    between atoms: C1_3  and  C2_4 
REMARK    3  A    between atoms: C1_3  and  N3_15 
REMARK    4  A    between atoms: C2_4  and  C3_5 
REMARK    5  A    between atoms: C3_5  and  C4_6 
REMARK    6  A    between atoms: N3_15  and  C11_16 
REMARK    7  A    between atoms: C11_16  and  C12_17 
ROOT
HETATM    1  C2  UNL     1      23.003   1.153  52.323  1.00  0.00     0.071 C 
ENDROOT
BRANCH   1   2
HETATM    2  C1  UNL     1      22.479   1.881  51.157  1.00  0.00     0.073 C 
BRANCH   2   3
HETATM    3  S1  UNL     1      20.818   2.001  51.346  1.00  0.00     0.083 SA
HETATM    4  O1  UNL     1      20.533   3.100  52.435  1.00  0.00    -0.143 OA
ENDBRANCH   2   3
BRANCH   2   5
HETATM    5  N3  UNL     1      22.948   2.506  49.982  1.00  0.00    -0.382 N 
HETATM    6  H14 UNL     1      23.174   1.946  49.146  1.00  0.00     0.160 HD
BRANCH   5   7
HETATM    7  C11 UNL     1      23.127   3.940  49.911  1.00  0.00     0.158 C 
BRANCH   7   8
HETATM    8  C12 UNL     1      24.576   4.186  49.581  1.00  0.00    -0.041 A 
HETATM    9  C13 UNL     1      24.935   5.432  49.130  1.00  0.00     0.009 A 
HETATM   10  C14 UNL     1      26.220   5.785  48.796  1.00  0.00     0.001 A 
HETATM   11  C15 UNL     1      27.192   4.796  48.933  1.00  0.00     0.000 A 
HETATM   12  C16 UNL     1      26.829   3.530  49.389  1.00  0.00     0.001 A 
HETATM   13  C17 UNL     1      25.524   3.196  49.722  1.00  0.00     0.009 A 
ENDBRANCH   7   8
ENDBRANCH   5   7
ENDBRANCH   2   5
ENDBRANCH   1   2
BRANCH   1  14
HETATM   14  C3  UNL     1      24.200   1.906  52.905  1.00  0.00     0.043 C 
BRANCH  14  15
HETATM   15  C4  UNL     1      25.204   0.870  53.268  1.00  0.00    -0.042 C 
HETATM   16  C5  UNL     1      26.518   0.994  53.358  1.00  0.00     0.008 C 
HETATM   17  C6  UNL     1      27.400   2.135  53.142  1.00  0.00     0.009 C 
HETATM   18  C9  UNL     1      27.186  -0.268  53.749  1.00  0.00     0.485 C 
HETATM   19  C7  UNL     1      28.624   2.025  53.633  1.00  0.00     0.003 C 
HETATM   20  C8  UNL     1      29.145   0.853  54.368  1.00  0.00     0.300 C 
HETATM   21  N1  UNL     1      28.049   0.050  54.870  1.00  0.00     0.125 N 
HETATM   22  H9  UNL     1      27.513   0.618  55.537  1.00  0.00     0.319 HD
HETATM   23  N2  UNL     1      26.081  -1.114  54.132  1.00  0.00     0.125 N 
HETATM   24  C10 UNL     1      24.869  -0.540  53.605  1.00  0.00     0.307 C 
HETATM   25  H11 UNL     1      26.053  -1.305  55.144  1.00  0.00     0.319 HD
ENDBRANCH  14  15
ENDBRANCH   1  14
TORSDOF 7
ENDMDL
MODEL 8
REMARK VINA RESULT:      -7.1      3.434      6.842
REMARK  7 active torsions:
REMARK  status: ('A' for Active; 'I' for Inactive)
REMARK    1  A    between atoms: S1_2  and  C1_3 
REMARK    2  A    between atoms: C1_3  and  C2_4 
REMARK    3  A    between atoms: C1_3  and  N3_15 
REMARK    4  A    between atoms: C2_4  and  C3_5 
REMARK    5  A    between atoms: C3_5  and  C4_6 
REMARK    6  A    between atoms: N3_15  and  C11_16 
REMARK    7  A    between atoms: C11_16  and  C12_17 
ROOT
HETATM    1  C2  UNL     1      26.572   2.698  50.575  1.00  0.00     0.071 C 
ENDROOT
BRANCH   1   2
HETATM    2  C1  UNL     1      25.915   2.689  51.891  1.00  0.00     0.073 C 
BRANCH   2   3
HETATM    3  S1  UNL     1      24.261   2.713  51.625  1.00  0.00     0.083 SA
HETATM    4  O1  UNL     1      23.767   1.224  51.508  1.00  0.00    -0.143 OA
ENDBRANCH   2   3
BRANCH   2   5
HETATM    5  N3  UNL     1      26.253   2.643  53.260  1.00  0.00    -0.382 N 
HETATM    6  H14 UNL     1      26.655   3.470  53.728  1.00  0.00     0.160 HD
BRANCH   5   7
HETATM    7  C11 UNL     1      26.052   1.446  54.047  1.00  0.00     0.158 C 
BRANCH   7   8
HETATM    8  C12 UNL     1      27.214   0.531  53.761  1.00  0.00    -0.041 A 
HETATM    9  C13 UNL     1      28.480   0.984  54.045  1.00  0.00     0.009 A 
HETATM   10  C14 UNL     1      29.621   0.250  53.831  1.00  0.00     0.001 A 
HETATM   11  C15 UNL     1      29.450  -1.023  53.294  1.00  0.00     0.000 A 
HETATM   12  C16 UNL     1      28.167  -1.484  53.004  1.00  0.00     0.001 A 
HETATM   13  C17 UNL     1      27.027  -0.725  53.229  1.00  0.00     0.009 A 
ENDBRANCH   7   8
ENDBRANCH   5   7
ENDBRANCH   2   5
ENDBRANCH   1   2
BRANCH   1  14
HETATM   14  C3  UNL     1      25.682   3.414  49.560  1.00  0.00     0.043 C 
BRANCH  14  15
HETATM   15  C4  UNL     1      26.370   4.692  49.234  1.00  0.00    -0.042 C 
HETATM   16  C5  UNL     1      25.921   5.928  49.378  1.00  0.00     0.008 C 
HETATM   17  C6  UNL     1      24.653   6.444  49.881  1.00  0.00     0.009 C 
HETATM   18  C9  UNL     1      26.901   6.947  48.942  1.00  0.00     0.485 C 
HETATM   19  C7  UNL     1      24.637   7.727  50.208  1.00  0.00     0.003 C 
HETATM   20  C8  UNL     1      25.789   8.648  50.102  1.00  0.00     0.300 C 
HETATM   21  N1  UNL     1      27.025   7.896  50.030  1.00  0.00     0.125 N 
HETATM   22  H9  UNL     1      27.132   7.370  50.906  1.00  0.00     0.319 HD
HETATM   23  N2  UNL     1      28.107   6.176  48.749  1.00  0.00     0.125 N 
HETATM   24  C10 UNL     1      27.743   4.784  48.669  1.00  0.00     0.307 C 
HETATM   25  H11 UNL     1      28.833   6.384  49.449  1.00  0.00     0.319 HD
ENDBRANCH  14  15
ENDBRANCH   1  14
TORSDOF 7
ENDMDL
MODEL 9
REMARK VINA RESULT:      -7.1      2.783      4.021
REMARK  7 active torsions:
REMARK  status: ('A' for Active; 'I' for Inactive)
REMARK    1  A    between atoms: S1_2  and  C1_3 
REMARK    2  A    between atoms: C1_3  and  C2_4 
REMARK    3  A    between atoms: C1_3  and  N3_15 
REMARK    4  A    between atoms: C2_4  and  C3_5 
REMARK    5  A    between atoms: C3_5  and  C4_6 
REMARK    6  A    between atoms: N3_15  and  C11_16 
REMARK    7  A    between atoms: C11_16  and  C12_17 
ROOT
HETATM    1  C2  UNL     1      26.051   2.877  51.288  1.00  0.00     0.071 C 
ENDROOT
BRANCH   1   2
HETATM    2  C1  UNL     1      24.669   3.230  51.649  1.00  0.00     0.073 C 
BRANCH   2   3
HETATM    3  S1  UNL     1      24.188   4.474  50.634  1.00  0.00     0.083 SA
HETATM    4  O1  UNL     1      23.768   3.841  49.257  1.00  0.00    -0.143 OA
ENDBRANCH   2   3
BRANCH   2   5
HETATM    5  N3  UNL     1      23.659   2.828  52.547  1.00  0.00    -0.382 N 
HETATM    6  H14 UNL     1      23.628   3.209  53.505  1.00  0.00     0.160 HD
BRANCH   5   7
HETATM    7  C11 UNL     1      22.641   1.875  52.160  1.00  0.00     0.158 C 
BRANCH   7   8
HETATM    8  C12 UNL     1      22.675   0.760  53.172  1.00  0.00    -0.041 A 
HETATM    9  C13 UNL     1      21.505   0.429  53.811  1.00  0.00     0.009 A 
HETATM   10  C14 UNL     1      21.402  -0.565  54.753  1.00  0.00     0.001 A 
HETATM   11  C15 UNL     1      22.570  -1.260  55.055  1.00  0.00     0.000 A 
HETATM   12  C16 UNL     1      23.759  -0.925  54.408  1.00  0.00     0.001 A 
HETATM   13  C17 UNL     1      23.840   0.084  53.459  1.00  0.00     0.009 A 
ENDBRANCH   7   8
ENDBRANCH   5   7
ENDBRANCH   2   5
ENDBRANCH   1   2
BRANCH   1  14
HETATM   14  C3  UNL     1      26.272   1.379  51.498  1.00  0.00     0.043 C 
BRANCH  14  15
HETATM   15  C4  UNL     1      27.365   1.259  52.501  1.00  0.00    -0.042 C 
HETATM   16  C5  UNL     1      27.915   0.159  52.989  1.00  0.00     0.008 C 
HETATM   17  C6  UNL     1      27.653  -1.252  52.729  1.00  0.00     0.009 C 
HETATM   18  C9  UNL     1      28.982   0.443  53.975  1.00  0.00     0.485 C 
HETATM   19  C7  UNL     1      28.591  -2.099  53.123  1.00  0.00     0.003 C 
HETATM   20  C8  UNL     1      29.855  -1.721  53.791  1.00  0.00     0.300 C 
HETATM   21  N1  UNL     1      30.143  -0.320  53.560  1.00  0.00     0.125 N 
HETATM   22  H9  UNL     1      30.275  -0.181  52.550  1.00  0.00     0.319 HD
HETATM   23  N2  UNL     1      29.183   1.866  53.833  1.00  0.00     0.125 N 
HETATM   24  C10 UNL     1      28.045   2.415  53.142  1.00  0.00     0.307 C 
HETATM   25  H11 UNL     1      30.091   2.103  53.409  1.00  0.00     0.319 HD
ENDBRANCH  14  15
ENDBRANCH   1  14
TORSDOF 7
ENDMDL
