MODEL 1
REMARK VINA RESULT:      -9.2      0.000      0.000
REMARK  1 active torsions:
REMARK  status: ('A' for Active; 'I' for Inactive)
REMARK    1  A    between atoms: C1_2  and  C2_5 
ROOT
HETATM    1  C2  UNL     1      24.448   8.257  49.360  1.00  0.00     0.120 C 
HETATM    2  C3  UNL     1      22.979   8.390  49.522  1.00  0.00     0.004 C 
HETATM    3  C4  UNL     1      22.055   7.823  50.323  1.00  0.00     0.086 C 
HETATM    4  N1  UNL     1      22.026   6.610  51.102  1.00  0.00    -0.351 N 
HETATM    5  C5  UNL     1      22.738   5.389  50.967  1.00  0.00     0.130 C 
HETATM    6  N2  UNL     1      22.321   4.794  52.062  1.00  0.00    -0.224 NA
HETATM    7  C6  UNL     1      22.754   3.506  52.402  1.00  0.00     0.234 C 
HETATM    8  N3  UNL     1      22.536   2.212  52.402  1.00  0.00    -0.254 NA
HETATM    9  C7  UNL     1      23.535   1.355  52.997  1.00  0.00     0.114 C 
HETATM   10  C8  UNL     1      24.651   0.676  53.059  1.00  0.00     0.001 C 
HETATM   11  C9  UNL     1      25.864  -0.136  53.289  1.00  0.00     0.067 C 
HETATM   12  C10 UNL     1      26.076  -0.184  54.783  1.00  0.00     0.280 C 
HETATM   13  N4  UNL     1      27.384   0.292  55.143  1.00  0.00     0.084 N 
HETATM   14  C11 UNL     1      28.327  -0.541  54.408  1.00  0.00     0.272 C 
HETATM   15  C12 UNL     1      28.296  -0.261  52.942  1.00  0.00     0.063 C 
HETATM   16  C13 UNL     1      27.029   0.381  52.515  1.00  0.00     0.138 C 
HETATM   17  O1  UNL     1      27.176   1.784  52.519  1.00  0.00    -0.357 OA
HETATM   18  C14 UNL     1      26.783   2.580  51.455  1.00  0.00     0.133 C 
HETATM   19  C15 UNL     1      26.169   3.366  50.588  1.00  0.00     0.023 C 
HETATM   20  C16 UNL     1      26.542   3.953  49.250  1.00  0.00     0.198 C 
HETATM   21  O2  UNL     1      26.523   5.320  49.271  1.00  0.00    -0.377 OA
HETATM   22  C17 UNL     1      25.322   5.912  49.582  1.00  0.00     0.155 C 
HETATM   23  C18 UNL     1      24.885   7.011  48.662  1.00  0.00     0.054 C 
HETATM   24  P1  UNL     1      23.918   4.697  49.719  1.00  0.00    -0.025 P 
HETATM   25  H4  UNL     1      21.347   6.659  51.907  1.00  0.00     0.166 HD
HETATM   26  H11 UNL     1      27.542   1.298  55.035  1.00  0.00     0.315 HD
HETATM   27  H24 UNL     1      23.231   4.682  48.439  1.00  0.00     0.068 HD
ENDROOT
BRANCH   1  28
HETATM   28  C1  UNL     1      24.964   9.471  48.614  1.00  0.00     0.394 C 
HETATM   29  F1  UNL     1      25.915  10.155  49.328  1.00  0.00    -0.170 F 
HETATM   30  F2  UNL     1      23.936  10.283  48.232  1.00  0.00    -0.170 F 
HETATM   31  F3  UNL     1      25.535   8.982  47.435  1.00  0.00    -0.170 F 
ENDBRANCH   1  28
TORSDOF 1
ENDMDL
MODEL 2
REMARK VINA RESULT:      -9.0      4.901      8.392
REMARK  1 active torsions:
REMARK  status: ('A' for Active; 'I' for Inactive)
REMARK    1  A    between atoms: C1_2  and  C2_5 
ROOT
HETATM    1  C2  UNL     1      21.979   0.584  53.736  1.00  0.00     0.120 C 
HETATM    2  C3  UNL     1      22.970  -0.514  53.617  1.00  0.00     0.004 C 
HETATM    3  C4  UNL     1      24.279  -0.583  53.301  1.00  0.00     0.086 C 
HETATM    4  N1  UNL     1      25.182   0.301  52.605  1.00  0.00    -0.351 N 
HETATM    5  C5  UNL     1      24.946   1.314  51.639  1.00  0.00     0.130 C 
HETATM    6  N2  UNL     1      26.169   1.784  51.540  1.00  0.00    -0.224 NA
HETATM    7  C6  UNL     1      26.476   2.841  50.676  1.00  0.00     0.234 C 
HETATM    8  N3  UNL     1      26.933   3.244  49.513  1.00  0.00    -0.254 NA
HETATM    9  C7  UNL     1      26.976   4.665  49.256  1.00  0.00     0.114 C 
HETATM   10  C8  UNL     1      26.505   5.841  48.933  1.00  0.00     0.001 C 
HETATM   11  C9  UNL     1      26.132   7.230  48.592  1.00  0.00     0.067 C 
HETATM   12  C10 UNL     1      27.131   8.128  49.280  1.00  0.00     0.280 C 
HETATM   13  N4  UNL     1      26.477   9.085  50.131  1.00  0.00     0.084 N 
HETATM   14  C11 UNL     1      25.554   9.816  49.272  1.00  0.00     0.272 C 
HETATM   15  C12 UNL     1      24.407   8.967  48.835  1.00  0.00     0.063 C 
HETATM   16  C13 UNL     1      24.707   7.517  48.927  1.00  0.00     0.138 C 
HETATM   17  O1  UNL     1      24.271   7.015  50.171  1.00  0.00    -0.357 OA
HETATM   18  C14 UNL     1      23.520   5.856  50.286  1.00  0.00     0.133 C 
HETATM   19  C15 UNL     1      23.053   4.629  50.438  1.00  0.00     0.023 C 
HETATM   20  C16 UNL     1      21.677   4.014  50.410  1.00  0.00     0.198 C 
HETATM   21  O2  UNL     1      21.365   3.408  51.595  1.00  0.00    -0.377 OA
HETATM   22  C17 UNL     1      22.190   2.384  51.997  1.00  0.00     0.155 C 
HETATM   23  C18 UNL     1      21.497   1.129  52.431  1.00  0.00     0.054 C 
HETATM   24  P1  UNL     1      23.458   1.918  50.716  1.00  0.00    -0.025 P 
HETATM   25  H4  UNL     1      26.189   0.149  52.874  1.00  0.00     0.166 HD
HETATM   26  H11 UNL     1      26.050   8.712  50.984  1.00  0.00     0.315 HD
HETATM   27  H24 UNL     1      22.926   0.789  49.972  1.00  0.00     0.068 HD
ENDROOT
BRANCH   1  28
HETATM   28  C1  UNL     1      20.802   0.084  54.549  1.00  0.00     0.394 C 
HETATM   29  F1  UNL     1      19.693  -0.142  53.772  1.00  0.00    -0.170 F 
HETATM   30  F2  UNL     1      20.530   0.928  55.586  1.00  0.00    -0.170 F 
HETATM   31  F3  UNL     1      21.216  -1.122  55.123  1.00  0.00    -0.170 F 
ENDBRANCH   1  28
TORSDOF 1
ENDMDL
MODEL 3
REMARK VINA RESULT:      -8.5      4.795      8.211
REMARK  1 active torsions:
REMARK  status: ('A' for Active; 'I' for Inactive)
REMARK    1  A    between atoms: C1_2  and  C2_5 
ROOT
HETATM    1  C2  UNL     1      27.123   0.074  53.208  1.00  0.00     0.120 C 
HETATM    2  C3  UNL     1      26.292  -0.455  54.317  1.00  0.00     0.004 C 
HETATM    3  C4  UNL     1      24.978  -0.701  54.487  1.00  0.00     0.086 C 
HETATM    4  N1  UNL     1      23.785  -0.234  53.824  1.00  0.00    -0.351 N 
HETATM    5  C5  UNL     1      23.524   0.948  53.083  1.00  0.00     0.130 C 
HETATM    6  N2  UNL     1      22.307   0.663  52.676  1.00  0.00    -0.224 NA
HETATM    7  C6  UNL     1      21.579   1.553  51.876  1.00  0.00     0.234 C 
HETATM    8  N3  UNL     1      20.677   2.502  51.788  1.00  0.00    -0.254 NA
HETATM    9  C7  UNL     1      20.378   3.035  50.478  1.00  0.00     0.114 C 
HETATM   10  C8  UNL     1      20.556   3.772  49.414  1.00  0.00     0.001 C 
HETATM   11  C9  UNL     1      20.611   4.535  48.149  1.00  0.00     0.067 C 
HETATM   12  C10 UNL     1      19.847   3.732  47.125  1.00  0.00     0.280 C 
HETATM   13  N4  UNL     1      20.658   3.445  45.972  1.00  0.00     0.084 N 
HETATM   14  C11 UNL     1      21.102   4.737  45.466  1.00  0.00     0.272 C 
HETATM   15  C12 UNL     1      22.091   5.384  46.376  1.00  0.00     0.063 C 
HETATM   16  C13 UNL     1      22.015   4.858  47.761  1.00  0.00     0.138 C 
HETATM   17  O1  UNL     1      22.940   3.806  47.926  1.00  0.00    -0.357 OA
HETATM   18  C14 UNL     1      23.807   3.736  49.004  1.00  0.00     0.133 C 
HETATM   19  C15 UNL     1      24.435   3.507  50.145  1.00  0.00     0.023 C 
HETATM   20  C16 UNL     1      25.761   3.932  50.722  1.00  0.00     0.198 C 
HETATM   21  O2  UNL     1      26.561   2.860  51.004  1.00  0.00    -0.377 OA
HETATM   22  C17 UNL     1      26.071   1.948  51.908  1.00  0.00     0.155 C 
HETATM   23  C18 UNL     1      27.014   1.549  53.001  1.00  0.00     0.054 C 
HETATM   24  P1  UNL     1      24.478   2.490  52.705  1.00  0.00    -0.025 P 
HETATM   25  H4  UNL     1      22.976  -0.903  53.921  1.00  0.00     0.166 HD
HETATM   26  H11 UNL     1      21.413   2.767  46.111  1.00  0.00     0.315 HD
HETATM   27  H24 UNL     1      24.817   3.108  53.975  1.00  0.00     0.068 HD
ENDROOT
BRANCH   1  28
HETATM   28  C1  UNL     1      28.568  -0.303  53.465  1.00  0.00     0.394 C 
HETATM   29  F1  UNL     1      29.441   0.671  53.049  1.00  0.00    -0.170 F 
HETATM   30  F2  UNL     1      28.862  -1.516  52.913  1.00  0.00    -0.170 F 
HETATM   31  F3  UNL     1      28.681  -0.463  54.849  1.00  0.00    -0.170 F 
ENDBRANCH   1  28
TORSDOF 1
ENDMDL
MODEL 4
REMARK VINA RESULT:      -8.3      2.792      3.616
REMARK  1 active torsions:
REMARK  status: ('A' for Active; 'I' for Inactive)
REMARK    1  A    between atoms: C1_2  and  C2_5 
ROOT
HETATM    1  C2  UNL     1      25.553   7.811  49.823  1.00  0.00     0.120 C 
HETATM    2  C3  UNL     1      24.461   8.631  49.244  1.00  0.00     0.004 C 
HETATM    3  C4  UNL     1      23.119   8.652  49.367  1.00  0.00     0.086 C 
HETATM    4  N1  UNL     1      22.147   7.684  49.815  1.00  0.00    -0.351 N 
HETATM    5  C5  UNL     1      22.185   6.266  49.858  1.00  0.00     0.130 C 
HETATM    6  N2  UNL     1      21.047   6.056  50.481  1.00  0.00    -0.224 NA
HETATM    7  C6  UNL     1      20.606   4.760  50.776  1.00  0.00     0.234 C 
HETATM    8  N3  UNL     1      19.863   3.727  50.455  1.00  0.00    -0.254 NA
HETATM    9  C7  UNL     1      19.896   2.571  51.322  1.00  0.00     0.114 C 
HETATM   10  C8  UNL     1      20.370   1.461  51.824  1.00  0.00     0.001 C 
HETATM   11  C9  UNL     1      20.767   0.205  52.496  1.00  0.00     0.067 C 
HETATM   12  C10 UNL     1      20.127   0.225  53.862  1.00  0.00     0.280 C 
HETATM   13  N4  UNL     1      21.107   0.069  54.904  1.00  0.00     0.084 N 
HETATM   14  C11 UNL     1      21.798  -1.181  54.616  1.00  0.00     0.272 C 
HETATM   15  C12 UNL     1      22.660  -1.078  53.403  1.00  0.00     0.063 C 
HETATM   16  C13 UNL     1      22.248   0.032  52.509  1.00  0.00     0.138 C 
HETATM   17  O1  UNL     1      22.986   1.194  52.816  1.00  0.00    -0.357 OA
HETATM   18  C14 UNL     1      23.609   1.962  51.845  1.00  0.00     0.133 C 
HETATM   19  C15 UNL     1      23.965   2.846  50.929  1.00  0.00     0.023 C 
HETATM   20  C16 UNL     1      25.194   3.043  50.077  1.00  0.00     0.198 C 
HETATM   21  O2  UNL     1      25.785   4.254  50.309  1.00  0.00    -0.377 OA
HETATM   22  C17 UNL     1      25.017   5.369  50.067  1.00  0.00     0.155 C 
HETATM   23  C18 UNL     1      25.670   6.438  49.246  1.00  0.00     0.054 C 
HETATM   24  P1  UNL     1      23.377   4.973  49.279  1.00  0.00    -0.025 P 
HETATM   25  H4  UNL     1      21.259   8.131  50.165  1.00  0.00     0.166 HD
HETATM   26  H11 UNL     1      21.731   0.867  55.056  1.00  0.00     0.315 HD
HETATM   27  H24 UNL     1      23.533   5.144  47.845  1.00  0.00     0.068 HD
ENDROOT
BRANCH   1  28
HETATM   28  C1  UNL     1      26.862   8.555  49.647  1.00  0.00     0.394 C 
HETATM   29  F1  UNL     1      26.738   9.629  48.802  1.00  0.00    -0.170 F 
HETATM   30  F2  UNL     1      27.856   7.709  49.249  1.00  0.00    -0.170 F 
HETATM   31  F3  UNL     1      27.219   9.009  50.920  1.00  0.00    -0.170 F 
ENDBRANCH   1  28
TORSDOF 1
ENDMDL
MODEL 5
REMARK VINA RESULT:      -8.1      6.703      8.361
REMARK  1 active torsions:
REMARK  status: ('A' for Active; 'I' for Inactive)
REMARK    1  A    between atoms: C1_2  and  C2_5 
ROOT
HETATM    1  C2  UNL     1      16.711  -0.761  51.032  1.00  0.00     0.120 C 
HETATM    2  C3  UNL     1      16.343   0.269  50.029  1.00  0.00     0.004 C 
HETATM    3  C4  UNL     1      17.031   1.057  49.180  1.00  0.00     0.086 C 
HETATM    4  N1  UNL     1      18.402   1.502  49.126  1.00  0.00    -0.351 N 
HETATM    5  C5  UNL     1      19.383   1.647  50.142  1.00  0.00     0.130 C 
HETATM    6  N2  UNL     1      20.409   1.964  49.384  1.00  0.00    -0.224 NA
HETATM    7  C6  UNL     1      21.671   2.219  49.934  1.00  0.00     0.234 C 
HETATM    8  N3  UNL     1      22.555   3.091  50.358  1.00  0.00    -0.254 NA
HETATM    9  C7  UNL     1      23.812   2.592  50.867  1.00  0.00     0.114 C 
HETATM   10  C8  UNL     1      24.628   2.067  51.742  1.00  0.00     0.001 C 
HETATM   11  C9  UNL     1      25.674   1.487  52.611  1.00  0.00     0.067 C 
HETATM   12  C10 UNL     1      26.717   0.894  51.696  1.00  0.00     0.280 C 
HETATM   13  N4  UNL     1      26.935  -0.499  51.981  1.00  0.00     0.084 N 
HETATM   14  C11 UNL     1      27.310  -0.563  53.388  1.00  0.00     0.272 C 
HETATM   15  C12 UNL     1      26.162  -0.246  54.287  1.00  0.00     0.063 C 
HETATM   16  C13 UNL     1      25.100   0.529  53.600  1.00  0.00     0.138 C 
HETATM   17  O1  UNL     1      24.122  -0.348  53.087  1.00  0.00    -0.357 OA
HETATM   18  C14 UNL     1      22.764  -0.148  53.278  1.00  0.00     0.133 C 
HETATM   19  C15 UNL     1      21.483   0.170  53.211  1.00  0.00     0.023 C 
HETATM   20  C16 UNL     1      20.297  -0.036  54.119  1.00  0.00     0.198 C 
HETATM   21  O2  UNL     1      19.314  -0.768  53.514  1.00  0.00    -0.377 OA
HETATM   22  C17 UNL     1      18.777  -0.242  52.363  1.00  0.00     0.155 C 
HETATM   23  C18 UNL     1      17.280  -0.216  52.301  1.00  0.00     0.054 C 
HETATM   24  P1  UNL     1      19.389   1.475  51.986  1.00  0.00    -0.025 P 
HETATM   25  H4  UNL     1      18.708   1.763  48.152  1.00  0.00     0.166 HD
HETATM   26  H11 UNL     1      26.176  -1.135  51.721  1.00  0.00     0.315 HD
HETATM   27  H24 UNL     1      18.407   2.410  52.507  1.00  0.00     0.068 HD
ENDROOT
BRANCH   1  28
HETATM   28  C1  UNL     1      15.484  -1.596  51.338  1.00  0.00     0.394 C 
HETATM   29  F1  UNL     1      14.473  -0.851  51.892  1.00  0.00    -0.170 F 
HETATM   30  F2  UNL     1      15.805  -2.671  52.115  1.00  0.00    -0.170 F 
HETATM   31  F3  UNL     1      15.056  -2.112  50.111  1.00  0.00    -0.170 F 
ENDBRANCH   1  28
TORSDOF 1
ENDMDL
MODEL 6
REMARK VINA RESULT:      -8.0      5.290      8.628
REMARK  1 active torsions:
REMARK  status: ('A' for Active; 'I' for Inactive)
REMARK    1  A    between atoms: C1_2  and  C2_5 
ROOT
HETATM    1  C2  UNL     1      24.983   0.053  53.027  1.00  0.00     0.120 C 
HETATM    2  C3  UNL     1      23.896  -0.629  53.772  1.00  0.00     0.004 C 
HETATM    3  C4  UNL     1      22.618  -0.959  53.499  1.00  0.00     0.086 C 
HETATM    4  N1  UNL     1      21.654  -0.491  52.533  1.00  0.00    -0.351 N 
HETATM    5  C5  UNL     1      21.539   0.746  51.846  1.00  0.00     0.130 C 
HETATM    6  N2  UNL     1      20.536   0.441  51.054  1.00  0.00    -0.224 NA
HETATM    7  C6  UNL     1      20.020   1.367  50.140  1.00  0.00     0.234 C 
HETATM    8  N3  UNL     1      19.115   2.272  49.848  1.00  0.00    -0.254 NA
HETATM    9  C7  UNL     1      19.193   2.919  48.558  1.00  0.00     0.114 C 
HETATM   10  C8  UNL     1      19.630   3.769  47.667  1.00  0.00     0.001 C 
HETATM   11  C9  UNL     1      20.011   4.659  46.549  1.00  0.00     0.067 C 
HETATM   12  C10 UNL     1      19.668   3.925  45.276  1.00  0.00     0.280 C 
HETATM   13  N4  UNL     1      20.816   3.799  44.418  1.00  0.00     0.084 N 
HETATM   14  C11 UNL     1      21.288   5.157  44.182  1.00  0.00     0.272 C 
HETATM   15  C12 UNL     1      21.891   5.760  45.407  1.00  0.00     0.063 C 
HETATM   16  C13 UNL     1      21.434   5.092  46.651  1.00  0.00     0.138 C 
HETATM   17  O1  UNL     1      22.346   4.079  47.014  1.00  0.00    -0.357 OA
HETATM   18  C14 UNL     1      22.841   3.945  48.301  1.00  0.00     0.133 C 
HETATM   19  C15 UNL     1      23.101   3.634  49.559  1.00  0.00     0.023 C 
HETATM   20  C16 UNL     1      24.145   4.068  50.557  1.00  0.00     0.198 C 
HETATM   21  O2  UNL     1      24.904   3.016  50.989  1.00  0.00    -0.377 OA
HETATM   22  C17 UNL     1      24.234   1.992  51.617  1.00  0.00     0.155 C 
HETATM   23  C18 UNL     1      24.823   1.534  52.915  1.00  0.00     0.054 C 
HETATM   24  P1  UNL     1      22.434   2.366  51.912  1.00  0.00    -0.025 P 
HETATM   25  H4  UNL     1      20.913  -1.207  52.317  1.00  0.00     0.166 HD
HETATM   26  H11 UNL     1      21.544   3.151  44.733  1.00  0.00     0.315 HD
HETATM   27  H24 UNL     1      22.313   2.868  53.270  1.00  0.00     0.068 HD
ENDROOT
BRANCH   1  28
HETATM   28  C1  UNL     1      26.303  -0.272  53.695  1.00  0.00     0.394 C 
HETATM   29  F1  UNL     1      27.234   0.721  53.516  1.00  0.00    -0.170 F 
HETATM   30  F2  UNL     1      26.773  -1.486  53.286  1.00  0.00    -0.170 F 
HETATM   31  F3  UNL     1      26.022  -0.399  55.059  1.00  0.00    -0.170 F 
ENDBRANCH   1  28
TORSDOF 1
ENDMDL
MODEL 7
REMARK VINA RESULT:      -7.9      5.254      9.224
REMARK  1 active torsions:
REMARK  status: ('A' for Active; 'I' for Inactive)
REMARK    1  A    between atoms: C1_2  and  C2_5 
ROOT
HETATM    1  C2  UNL     1      22.734   0.006  53.752  1.00  0.00     0.120 C 
HETATM    2  C3  UNL     1      24.169  -0.289  53.513  1.00  0.00     0.004 C 
HETATM    3  C4  UNL     1      25.219   0.414  53.045  1.00  0.00     0.086 C 
HETATM    4  N1  UNL     1      25.338   1.611  52.248  1.00  0.00    -0.351 N 
HETATM    5  C5  UNL     1      24.450   2.214  51.320  1.00  0.00     0.130 C 
HETATM    6  N2  UNL     1      25.130   3.312  51.078  1.00  0.00    -0.224 NA
HETATM    7  C6  UNL     1      24.656   4.281  50.185  1.00  0.00     0.234 C 
HETATM    8  N3  UNL     1      24.665   4.795  48.978  1.00  0.00    -0.254 NA
HETATM    9  C7  UNL     1      23.821   5.940  48.721  1.00  0.00     0.114 C 
HETATM   10  C8  UNL     1      22.710   6.577  48.459  1.00  0.00     0.001 C 
HETATM   11  C9  UNL     1      21.548   7.442  48.168  1.00  0.00     0.067 C 
HETATM   12  C10 UNL     1      21.869   8.803  48.735  1.00  0.00     0.280 C 
HETATM   13  N4  UNL     1      20.857   9.238  49.660  1.00  0.00     0.084 N 
HETATM   14  C11 UNL     1      19.603   9.213  48.918  1.00  0.00     0.272 C 
HETATM   15  C12 UNL     1      19.159   7.820  48.619  1.00  0.00     0.063 C 
HETATM   16  C13 UNL     1      20.276   6.846  48.671  1.00  0.00     0.138 C 
HETATM   17  O1  UNL     1      20.352   6.270  49.956  1.00  0.00    -0.357 OA
HETATM   18  C14 UNL     1      20.461   4.903  50.157  1.00  0.00     0.133 C 
HETATM   19  C15 UNL     1      20.842   3.654  50.360  1.00  0.00     0.023 C 
HETATM   20  C16 UNL     1      20.115   2.339  50.494  1.00  0.00     0.198 C 
HETATM   21  O2  UNL     1      20.346   1.751  51.706  1.00  0.00    -0.377 OA
HETATM   22  C17 UNL     1      21.654   1.452  52.005  1.00  0.00     0.155 C 
HETATM   23  C18 UNL     1      21.899   0.065  52.515  1.00  0.00     0.054 C 
HETATM   24  P1  UNL     1      22.817   1.746  50.582  1.00  0.00    -0.025 P 
HETATM   25  H4  UNL     1      26.255   2.109  52.396  1.00  0.00     0.166 HD
HETATM   26  H11 UNL     1      20.824   8.744  50.556  1.00  0.00     0.315 HD
HETATM   27  H24 UNL     1      23.001   0.474  49.903  1.00  0.00     0.068 HD
ENDROOT
BRANCH   1  28
HETATM   28  C1  UNL     1      22.178  -1.039  54.698  1.00  0.00     0.394 C 
HETATM   29  F1  UNL     1      23.069  -1.372  55.687  1.00  0.00    -0.170 F 
HETATM   30  F2  UNL     1      21.748  -2.138  54.014  1.00  0.00    -0.170 F 
HETATM   31  F3  UNL     1      21.040  -0.466  55.276  1.00  0.00    -0.170 F 
ENDBRANCH   1  28
TORSDOF 1
ENDMDL
MODEL 8
REMARK VINA RESULT:      -7.6      6.836     11.389
REMARK  1 active torsions:
REMARK  status: ('A' for Active; 'I' for Inactive)
REMARK    1  A    between atoms: C1_2  and  C2_5 
ROOT
HETATM    1  C2  UNL     1      30.534   6.175  47.652  1.00  0.00     0.120 C 
HETATM    2  C3  UNL     1      29.344   5.509  48.238  1.00  0.00     0.004 C 
HETATM    3  C4  UNL     1      28.033   5.809  48.324  1.00  0.00     0.086 C 
HETATM    4  N1  UNL     1      27.284   7.037  48.213  1.00  0.00    -0.351 N 
HETATM    5  C5  UNL     1      27.663   8.389  48.418  1.00  0.00     0.130 C 
HETATM    6  N2  UNL     1      26.550   8.969  48.027  1.00  0.00    -0.224 NA
HETATM    7  C6  UNL     1      26.410  10.362  48.040  1.00  0.00     0.234 C 
HETATM    8  N3  UNL     1      25.983  11.441  48.652  1.00  0.00    -0.254 NA
HETATM    9  C7  UNL     1      26.202  12.718  48.011  1.00  0.00     0.114 C 
HETATM   10  C8  UNL     1      26.875  13.778  47.648  1.00  0.00     0.001 C 
HETATM   11  C9  UNL     1      27.492  15.029  47.157  1.00  0.00     0.067 C 
HETATM   12  C10 UNL     1      26.721  15.437  45.926  1.00  0.00     0.280 C 
HETATM   13  N4  UNL     1      27.589  15.590  44.790  1.00  0.00     0.084 N 
HETATM   14  C11 UNL     1      28.592  16.571  45.184  1.00  0.00     0.272 C 
HETATM   15  C12 UNL     1      29.530  16.029  46.211  1.00  0.00     0.063 C 
HETATM   16  C13 UNL     1      28.960  14.873  46.945  1.00  0.00     0.138 C 
HETATM   17  O1  UNL     1      29.353  13.669  46.325  1.00  0.00    -0.357 OA
HETATM   18  C14 UNL     1      29.870  12.597  47.034  1.00  0.00     0.133 C 
HETATM   19  C15 UNL     1      30.098  11.485  47.711  1.00  0.00     0.023 C 
HETATM   20  C16 UNL     1      31.326  10.850  48.312  1.00  0.00     0.198 C 
HETATM   21  O2  UNL     1      31.574   9.615  47.779  1.00  0.00    -0.377 OA
HETATM   22  C17 UNL     1      30.588   8.670  47.935  1.00  0.00     0.155 C 
HETATM   23  C18 UNL     1      31.046   7.336  48.440  1.00  0.00     0.054 C 
HETATM   24  P1  UNL     1      29.192   9.240  49.026  1.00  0.00    -0.025 P 
HETATM   25  H4  UNL     1      26.281   6.879  47.931  1.00  0.00     0.166 HD
HETATM   26  H11 UNL     1      27.978  14.726  44.402  1.00  0.00     0.315 HD
HETATM   27  H24 UNL     1      29.457   8.742  50.365  1.00  0.00     0.068 HD
ENDROOT
BRANCH   1  28
HETATM   28  C1  UNL     1      31.631   5.143  47.487  1.00  0.00     0.394 C 
HETATM   29  F1  UNL     1      32.602   5.553  46.608  1.00  0.00    -0.170 F 
HETATM   30  F2  UNL     1      31.114   3.929  47.140  1.00  0.00    -0.170 F 
HETATM   31  F3  UNL     1      32.198   4.980  48.755  1.00  0.00    -0.170 F 
ENDBRANCH   1  28
TORSDOF 1
ENDMDL
MODEL 9
REMARK VINA RESULT:      -7.3      4.605      6.531
REMARK  1 active torsions:
REMARK  status: ('A' for Active; 'I' for Inactive)
REMARK    1  A    between atoms: C1_2  and  C2_5 
ROOT
HETATM    1  C2  UNL     1      21.120   8.848  49.552  1.00  0.00     0.120 C 
HETATM    2  C3  UNL     1      20.525   7.524  49.861  1.00  0.00     0.004 C 
HETATM    3  C4  UNL     1      21.010   6.335  50.270  1.00  0.00     0.086 C 
HETATM    4  N1  UNL     1      22.320   5.732  50.238  1.00  0.00    -0.351 N 
HETATM    5  C5  UNL     1      23.440   5.962  49.396  1.00  0.00     0.130 C 
HETATM    6  N2  UNL     1      24.305   5.177  49.997  1.00  0.00    -0.224 NA
HETATM    7  C6  UNL     1      25.618   5.045  49.529  1.00  0.00     0.234 C 
HETATM    8  N3  UNL     1      26.496   4.373  48.823  1.00  0.00    -0.254 NA
HETATM    9  C7  UNL     1      27.850   4.874  48.767  1.00  0.00     0.114 C 
HETATM   10  C8  UNL     1      28.832   5.636  48.362  1.00  0.00     0.001 C 
HETATM   11  C9  UNL     1      30.042   6.412  48.015  1.00  0.00     0.067 C 
HETATM   12  C10 UNL     1      30.963   6.333  49.208  1.00  0.00     0.280 C 
HETATM   13  N4  UNL     1      31.320   7.644  49.681  1.00  0.00     0.084 N 
HETATM   14  C11 UNL     1      31.921   8.328  48.543  1.00  0.00     0.272 C 
HETATM   15  C12 UNL     1      30.913   8.651  47.491  1.00  0.00     0.063 C 
HETATM   16  C13 UNL     1      29.703   7.799  47.583  1.00  0.00     0.138 C 
HETATM   17  O1  UNL     1      28.719   8.445  48.360  1.00  0.00    -0.357 OA
HETATM   18  C14 UNL     1      27.399   8.556  47.952  1.00  0.00     0.133 C 
HETATM   19  C15 UNL     1      26.105   8.429  47.716  1.00  0.00     0.023 C 
HETATM   20  C16 UNL     1      25.098   9.213  46.913  1.00  0.00     0.198 C 
HETATM   21  O2  UNL     1      24.083   9.690  47.695  1.00  0.00    -0.377 OA
HETATM   22  C17 UNL     1      23.332   8.754  48.365  1.00  0.00     0.155 C 
HETATM   23  C18 UNL     1      21.847   8.911  48.248  1.00  0.00     0.054 C 
HETATM   24  P1  UNL     1      23.755   7.002  47.896  1.00  0.00    -0.025 P 
HETATM   25  H4  UNL     1      22.446   4.992  50.978  1.00  0.00     0.166 HD
HETATM   26  H11 UNL     1      30.576   8.174  50.144  1.00  0.00     0.315 HD
HETATM   27  H24 UNL     1      22.806   6.586  46.878  1.00  0.00     0.068 HD
ENDROOT
BRANCH   1  28
HETATM   28  C1  UNL     1      20.020   9.889  49.577  1.00  0.00     0.394 C 
HETATM   29  F1  UNL     1      19.097   9.694  48.580  1.00  0.00    -0.170 F 
HETATM   30  F2  UNL     1      20.540  11.151  49.545  1.00  0.00    -0.170 F 
HETATM   31  F3  UNL     1      19.392   9.754  50.819  1.00  0.00    -0.170 F 
ENDBRANCH   1  28
TORSDOF 1
ENDMDL
