MODEL 1
REMARK VINA RESULT:      -9.5      0.000      0.000
REMARK  5 active torsions:
REMARK  status: ('A' for Active; 'I' for Inactive)
REMARK    1  A    between atoms: C5_5  and  N1_6 
REMARK    2  A    between atoms: N1_6  and  C6_7 
REMARK    3  A    between atoms: C13_18  and  C14_19 
REMARK    4  A    between atoms: C14_19  and  C15_20 
REMARK    5  A    between atoms: C15_20  and  N4_21 
ROOT
HETATM    1  C6  UNL     1      23.878   4.134  50.432  1.00  0.00     0.117 A 
HETATM    2  N2  UNL     1      23.774   5.339  50.879  1.00  0.00    -0.228 NA
HETATM    3  C7  UNL     1      22.846   5.777  51.846  1.00  0.00     0.235 A 
HETATM    4  N3  UNL     1      21.999   4.943  52.373  1.00  0.00    -0.246 NA
HETATM    5  C8  UNL     1      22.059   3.615  51.943  1.00  0.00     0.049 A 
HETATM    6  C9  UNL     1      21.318   2.617  52.402  1.00  0.00     0.064 C 
HETATM    7  C10 UNL     1      21.471   1.235  51.864  1.00  0.00     0.386 C 
HETATM    8  O1  UNL     1      20.602   0.348  52.436  1.00  0.00    -0.347 OA
HETATM    9  C11 UNL     1      20.964  -0.021  53.723  1.00  0.00     0.251 C 
HETATM   10  C12 UNL     1      22.263  -0.774  53.558  1.00  0.00     0.183 C 
HETATM   11  O2  UNL     1      22.043  -1.943  53.813  1.00  0.00    -0.293 OA
HETATM   12  C13 UNL     1      23.231   0.246  53.158  1.00  0.00     0.299 C 
HETATM   13  N5  UNL     1      22.836   0.848  51.891  1.00  0.00     0.134 N 
HETATM   14  C20 UNL     1      23.712   1.928  51.515  1.00  0.00     0.296 C 
HETATM   15  C21 UNL     1      22.986   3.074  50.884  1.00  0.00     0.135 A 
ENDROOT
BRANCH   1  16
HETATM   16  N1  UNL     1      24.888   3.921  49.462  1.00  0.00    -0.344 N 
HETATM   17  H6  UNL     1      24.850   2.951  49.051  1.00  0.00     0.167 HD
BRANCH  16  18
HETATM   18  C5  UNL     1      25.885   4.811  49.002  1.00  0.00     0.033 A 
HETATM   19  C4  UNL     1      25.739   6.111  48.587  1.00  0.00     0.030 A 
HETATM   20  C3  UNL     1      26.771   6.915  48.159  1.00  0.00     0.009 A 
HETATM   21  C2  UNL     1      28.050   6.423  48.132  1.00  0.00    -0.062 A 
HETATM   22  C1  UNL     1      29.192   7.253  47.679  1.00  0.00     0.048 C 
HETATM   23  C23 UNL     1      28.237   5.120  48.541  1.00  0.00     0.009 A 
HETATM   24  C22 UNL     1      27.187   4.360  48.955  1.00  0.00     0.030 A 
ENDBRANCH  16  18
ENDBRANCH   1  16
BRANCH  12  25
HETATM   25  C14 UNL     1      24.620  -0.299  53.102  1.00  0.00     0.063 C 
BRANCH  25  26
HETATM   26  C15 UNL     1      25.480  -0.102  54.270  1.00  0.00     0.119 C 
BRANCH  26  27
HETATM   27  N4  UNL     1      26.690   0.571  54.215  1.00  0.00    -0.408 N 
HETATM   28  C16 UNL     1      27.781   0.075  54.991  1.00  0.00     0.143 C 
HETATM   29  C17 UNL     1      29.026   0.804  54.535  1.00  0.00     0.187 C 
HETATM   30  O3  UNL     1      28.824   2.132  54.241  1.00  0.00    -0.388 OA
HETATM   31  C18 UNL     1      27.928   2.353  53.220  1.00  0.00     0.187 C 
HETATM   32  C19 UNL     1      27.075   1.134  52.954  1.00  0.00     0.143 C 
ENDBRANCH  26  27
ENDBRANCH  25  26
ENDBRANCH  12  25
TORSDOF 5
ENDMDL
MODEL 2
REMARK VINA RESULT:      -9.0      1.538      2.253
REMARK  5 active torsions:
REMARK  status: ('A' for Active; 'I' for Inactive)
REMARK    1  A    between atoms: C5_5  and  N1_6 
REMARK    2  A    between atoms: N1_6  and  C6_7 
REMARK    3  A    between atoms: C13_18  and  C14_19 
REMARK    4  A    between atoms: C14_19  and  C15_20 
REMARK    5  A    between atoms: C15_20  and  N4_21 
ROOT
HETATM    1  C6  UNL     1      25.692   5.640  49.742  1.00  0.00     0.117 A 
HETATM    2  N2  UNL     1      25.602   6.841  50.205  1.00  0.00    -0.228 NA
HETATM    3  C7  UNL     1      24.457   7.406  50.803  1.00  0.00     0.235 A 
HETATM    4  N3  UNL     1      23.368   6.707  50.933  1.00  0.00    -0.246 NA
HETATM    5  C8  UNL     1      23.393   5.392  50.461  1.00  0.00     0.049 A 
HETATM    6  C9  UNL     1      22.404   4.516  50.554  1.00  0.00     0.064 C 
HETATM    7  C10 UNL     1      22.546   3.134  50.013  1.00  0.00     0.386 C 
HETATM    8  O1  UNL     1      21.413   2.386  50.173  1.00  0.00    -0.347 OA
HETATM    9  C11 UNL     1      21.225   1.948  51.475  1.00  0.00     0.251 C 
HETATM   10  C12 UNL     1      22.375   1.003  51.735  1.00  0.00     0.183 C 
HETATM   11  O2  UNL     1      21.916  -0.120  51.812  1.00  0.00    -0.293 OA
HETATM   12  C13 UNL     1      23.555   1.866  51.779  1.00  0.00     0.299 C 
HETATM   13  N5  UNL     1      23.738   2.538  50.501  1.00  0.00     0.134 N 
HETATM   14  C20 UNL     1      24.834   3.474  50.538  1.00  0.00     0.296 C 
HETATM   15  C21 UNL     1      24.556   4.726  49.770  1.00  0.00     0.135 A 
ENDROOT
BRANCH   1  16
HETATM   16  N1  UNL     1      26.945   5.285  49.186  1.00  0.00    -0.344 N 
HETATM   17  H6  UNL     1      27.229   4.302  49.435  1.00  0.00     0.167 HD
BRANCH  16  18
HETATM   18  C5  UNL     1      27.811   6.055  48.376  1.00  0.00     0.033 A 
HETATM   19  C4  UNL     1      27.509   7.153  47.611  1.00  0.00     0.030 A 
HETATM   20  C3  UNL     1      28.422   7.853  46.854  1.00  0.00     0.009 A 
HETATM   21  C2  UNL     1      29.734   7.459  46.835  1.00  0.00    -0.062 A 
HETATM   22  C1  UNL     1      30.751   8.182  46.034  1.00  0.00     0.048 C 
HETATM   23  C23 UNL     1      30.077   6.358  47.592  1.00  0.00     0.009 A 
HETATM   24  C22 UNL     1      29.142   5.696  48.325  1.00  0.00     0.030 A 
ENDBRANCH  16  18
ENDBRANCH   1  16
BRANCH  12  25
HETATM   25  C14 UNL     1      24.778   1.110  52.187  1.00  0.00     0.063 C 
BRANCH  25  26
HETATM   26  C15 UNL     1      25.238   1.249  53.570  1.00  0.00     0.119 C 
BRANCH  26  27
HETATM   27  N4  UNL     1      26.578   1.292  53.922  1.00  0.00    -0.408 N 
HETATM   28  C16 UNL     1      27.096   0.256  54.755  1.00  0.00     0.143 C 
HETATM   29  C17 UNL     1      28.603   0.382  54.747  1.00  0.00     0.187 C 
HETATM   30  O3  UNL     1      29.059   1.679  54.748  1.00  0.00    -0.388 OA
HETATM   31  C18 UNL     1      28.667   2.415  53.654  1.00  0.00     0.187 C 
HETATM   32  C19 UNL     1      27.503   1.770  52.937  1.00  0.00     0.143 C 
ENDBRANCH  26  27
ENDBRANCH  25  26
ENDBRANCH  12  25
TORSDOF 5
ENDMDL
MODEL 3
REMARK VINA RESULT:      -8.8      1.701      2.261
REMARK  5 active torsions:
REMARK  status: ('A' for Active; 'I' for Inactive)
REMARK    1  A    between atoms: C5_5  and  N1_6 
REMARK    2  A    between atoms: N1_6  and  C6_7 
REMARK    3  A    between atoms: C13_18  and  C14_19 
REMARK    4  A    between atoms: C14_19  and  C15_20 
REMARK    5  A    between atoms: C15_20  and  N4_21 
ROOT
HETATM    1  C6  UNL     1      21.486   2.966  50.212  1.00  0.00     0.117 A 
HETATM    2  N2  UNL     1      20.650   3.929  50.403  1.00  0.00    -0.228 NA
HETATM    3  C7  UNL     1      19.682   3.984  51.427  1.00  0.00     0.235 A 
HETATM    4  N3  UNL     1      19.575   3.014  52.287  1.00  0.00    -0.246 NA
HETATM    5  C8  UNL     1      20.456   1.938  52.147  1.00  0.00     0.049 A 
HETATM    6  C9  UNL     1      20.534   0.891  52.954  1.00  0.00     0.064 C 
HETATM    7  C10 UNL     1      21.517  -0.202  52.705  1.00  0.00     0.386 C 
HETATM    8  O1  UNL     1      21.429  -1.210  53.623  1.00  0.00    -0.347 OA
HETATM    9  C11 UNL     1      21.977  -0.882  54.854  1.00  0.00     0.251 C 
HETATM   10  C12 UNL     1      23.454  -0.707  54.584  1.00  0.00     0.183 C 
HETATM   11  O2  UNL     1      24.036  -1.628  55.123  1.00  0.00    -0.293 OA
HETATM   12  C13 UNL     1      23.538   0.512  53.780  1.00  0.00     0.299 C 
HETATM   13  N5  UNL     1      22.816   0.341  52.526  1.00  0.00     0.134 N 
HETATM   14  C20 UNL     1      22.792   1.556  51.752  1.00  0.00     0.296 C 
HETATM   15  C21 UNL     1      21.486   1.778  51.058  1.00  0.00     0.135 A 
ENDROOT
BRANCH   1  16
HETATM   16  N1  UNL     1      22.372   3.126  49.120  1.00  0.00    -0.344 N 
HETATM   17  H6  UNL     1      22.134   2.489  48.314  1.00  0.00     0.167 HD
BRANCH  16  18
HETATM   18  C5  UNL     1      23.479   3.996  48.989  1.00  0.00     0.033 A 
HETATM   19  C4  UNL     1      23.498   5.283  48.514  1.00  0.00     0.030 A 
HETATM   20  C3  UNL     1      24.626   6.068  48.428  1.00  0.00     0.009 A 
HETATM   21  C2  UNL     1      25.835   5.568  48.837  1.00  0.00    -0.062 A 
HETATM   22  C1  UNL     1      27.075   6.377  48.763  1.00  0.00     0.048 C 
HETATM   23  C23 UNL     1      25.857   4.277  49.321  1.00  0.00     0.009 A 
HETATM   24  C22 UNL     1      24.717   3.537  49.387  1.00  0.00     0.030 A 
ENDBRANCH  16  18
ENDBRANCH   1  16
BRANCH  12  25
HETATM   25  C14 UNL     1      24.954   0.927  53.551  1.00  0.00     0.063 C 
BRANCH  25  26
HETATM   26  C15 UNL     1      25.857  -0.038  52.921  1.00  0.00     0.119 C 
BRANCH  26  27
HETATM   27  N4  UNL     1      27.176  -0.208  53.311  1.00  0.00    -0.408 N 
HETATM   28  C16 UNL     1      27.819  -1.447  53.014  1.00  0.00     0.143 C 
HETATM   29  C17 UNL     1      29.296  -1.264  53.282  1.00  0.00     0.187 C 
HETATM   30  O3  UNL     1      29.576  -0.489  54.384  1.00  0.00    -0.388 OA
HETATM   31  C18 UNL     1      29.100   0.799  54.302  1.00  0.00     0.187 C 
HETATM   32  C19 UNL     1      28.039   0.934  53.234  1.00  0.00     0.143 C 
ENDBRANCH  26  27
ENDBRANCH  25  26
ENDBRANCH  12  25
TORSDOF 5
ENDMDL
MODEL 4
REMARK VINA RESULT:      -8.8      2.616      6.283
REMARK  5 active torsions:
REMARK  status: ('A' for Active; 'I' for Inactive)
REMARK    1  A    between atoms: C5_5  and  N1_6 
REMARK    2  A    between atoms: N1_6  and  C6_7 
REMARK    3  A    between atoms: C13_18  and  C14_19 
REMARK    4  A    between atoms: C14_19  and  C15_20 
REMARK    5  A    between atoms: C15_20  and  N4_21 
ROOT
HETATM    1  C6  UNL     1      23.208   0.286  53.721  1.00  0.00     0.117 A 
HETATM    2  N2  UNL     1      23.098  -0.879  54.262  1.00  0.00    -0.228 NA
HETATM    3  C7  UNL     1      21.928  -1.665  54.287  1.00  0.00     0.235 A 
HETATM    4  N3  UNL     1      20.834  -1.237  53.730  1.00  0.00    -0.246 NA
HETATM    5  C8  UNL     1      20.880   0.017  53.114  1.00  0.00     0.049 A 
HETATM    6  C9  UNL     1      19.887   0.593  52.453  1.00  0.00     0.064 C 
HETATM    7  C10 UNL     1      20.052   1.940  51.835  1.00  0.00     0.386 C 
HETATM    8  O1  UNL     1      18.914   2.382  51.223  1.00  0.00    -0.347 OA
HETATM    9  C11 UNL     1      18.667   1.761  50.008  1.00  0.00     0.251 C 
HETATM   10  C12 UNL     1      19.805   2.197  49.113  1.00  0.00     0.183 C 
HETATM   11  O2  UNL     1      19.342   2.940  48.269  1.00  0.00    -0.293 OA
HETATM   12  C13 UNL     1      20.981   1.527  49.664  1.00  0.00     0.299 C 
HETATM   13  N5  UNL     1      21.222   1.968  51.030  1.00  0.00     0.134 N 
HETATM   14  C20 UNL     1      22.315   1.254  51.640  1.00  0.00     0.296 C 
HETATM   15  C21 UNL     1      22.072   0.939  53.082  1.00  0.00     0.135 A 
ENDROOT
BRANCH   1  16
HETATM   16  N1  UNL     1      24.485   0.892  53.815  1.00  0.00    -0.344 N 
HETATM   17  H6  UNL     1      24.424   1.924  54.017  1.00  0.00     0.167 HD
BRANCH  16  18
HETATM   18  C5  UNL     1      25.763   0.304  53.680  1.00  0.00     0.033 A 
HETATM   19  C4  UNL     1      26.189  -0.601  52.740  1.00  0.00     0.030 A 
HETATM   20  C3  UNL     1      27.462  -1.120  52.675  1.00  0.00     0.009 A 
HETATM   21  C2  UNL     1      28.402  -0.732  53.595  1.00  0.00    -0.062 A 
HETATM   22  C1  UNL     1      29.785  -1.265  53.563  1.00  0.00     0.048 C 
HETATM   23  C23 UNL     1      28.012   0.177  54.556  1.00  0.00     0.009 A 
HETATM   24  C22 UNL     1      26.742   0.663  54.583  1.00  0.00     0.030 A 
ENDBRANCH  16  18
ENDBRANCH   1  16
BRANCH  12  25
HETATM   25  C14 UNL     1      22.184   1.722  48.799  1.00  0.00     0.063 C 
BRANCH  25  26
HETATM   26  C15 UNL     1      22.538   3.091  48.419  1.00  0.00     0.119 C 
BRANCH  26  27
HETATM   27  N4  UNL     1      23.429   3.871  49.139  1.00  0.00    -0.408 N 
HETATM   28  C16 UNL     1      22.906   4.877  50.005  1.00  0.00     0.143 C 
HETATM   29  C17 UNL     1      24.048   5.372  50.864  1.00  0.00     0.187 C 
HETATM   30  O3  UNL     1      25.250   5.467  50.202  1.00  0.00    -0.388 OA
HETATM   31  C18 UNL     1      25.713   4.271  49.703  1.00  0.00     0.187 C 
HETATM   32  C19 UNL     1      24.616   3.235  49.630  1.00  0.00     0.143 C 
ENDBRANCH  26  27
ENDBRANCH  25  26
ENDBRANCH  12  25
TORSDOF 5
ENDMDL
MODEL 5
REMARK VINA RESULT:      -8.6      2.719      5.488
REMARK  5 active torsions:
REMARK  status: ('A' for Active; 'I' for Inactive)
REMARK    1  A    between atoms: C5_5  and  N1_6 
REMARK    2  A    between atoms: N1_6  and  C6_7 
REMARK    3  A    between atoms: C13_18  and  C14_19 
REMARK    4  A    between atoms: C14_19  and  C15_20 
REMARK    5  A    between atoms: C15_20  and  N4_21 
ROOT
HETATM    1  C6  UNL     1      25.323   1.865  52.617  1.00  0.00     0.117 A 
HETATM    2  N2  UNL     1      26.361   1.232  52.188  1.00  0.00    -0.228 NA
HETATM    3  C7  UNL     1      26.584  -0.155  52.309  1.00  0.00     0.235 A 
HETATM    4  N3  UNL     1      25.704  -0.916  52.890  1.00  0.00    -0.246 NA
HETATM    5  C8  UNL     1      24.547  -0.300  53.374  1.00  0.00     0.049 A 
HETATM    6  C9  UNL     1      23.521  -0.915  53.943  1.00  0.00     0.064 C 
HETATM    7  C10 UNL     1      22.334  -0.150  54.423  1.00  0.00     0.386 C 
HETATM    8  O1  UNL     1      21.394  -0.949  55.008  1.00  0.00    -0.347 OA
HETATM    9  C11 UNL     1      20.655  -1.687  54.095  1.00  0.00     0.251 C 
HETATM   10  C12 UNL     1      19.880  -0.658  53.305  1.00  0.00     0.183 C 
HETATM   11  O2  UNL     1      18.707  -0.776  53.604  1.00  0.00    -0.293 OA
HETATM   12  C13 UNL     1      20.894   0.039  52.516  1.00  0.00     0.299 C 
HETATM   13  N5  UNL     1      21.851   0.699  53.393  1.00  0.00     0.134 N 
HETATM   14  C20 UNL     1      22.923   1.313  52.651  1.00  0.00     0.296 C 
HETATM   15  C21 UNL     1      24.251   1.178  53.326  1.00  0.00     0.135 A 
ENDROOT
BRANCH   1  16
HETATM   16  N1  UNL     1      25.310   3.261  52.381  1.00  0.00    -0.344 N 
HETATM   17  H6  UNL     1      25.654   3.811  53.212  1.00  0.00     0.167 HD
BRANCH  16  18
HETATM   18  C5  UNL     1      24.915   3.966  51.221  1.00  0.00     0.033 A 
HETATM   19  C4  UNL     1      25.591   4.100  50.034  1.00  0.00     0.030 A 
HETATM   20  C3  UNL     1      25.127   4.802  48.945  1.00  0.00     0.009 A 
HETATM   21  C2  UNL     1      23.907   5.426  49.007  1.00  0.00    -0.062 A 
HETATM   22  C1  UNL     1      23.368   6.192  47.859  1.00  0.00     0.048 C 
HETATM   23  C23 UNL     1      23.197   5.314  50.185  1.00  0.00     0.009 A 
HETATM   24  C22 UNL     1      23.696   4.611  51.237  1.00  0.00     0.030 A 
ENDBRANCH  16  18
ENDBRANCH   1  16
BRANCH  12  25
HETATM   25  C14 UNL     1      20.279   0.996  51.547  1.00  0.00     0.063 C 
BRANCH  25  26
HETATM   26  C15 UNL     1      20.318   0.650  50.125  1.00  0.00     0.119 C 
BRANCH  26  27
HETATM   27  N4  UNL     1      20.736   1.533  49.142  1.00  0.00    -0.408 N 
HETATM   28  C16 UNL     1      19.854   2.584  48.751  1.00  0.00     0.143 C 
HETATM   29  C17 UNL     1      20.649   3.545  47.896  1.00  0.00     0.187 C 
HETATM   30  O3  UNL     1      21.550   2.937  47.055  1.00  0.00    -0.388 OA
HETATM   31  C18 UNL     1      22.518   2.204  47.702  1.00  0.00     0.187 C 
HETATM   32  C19 UNL     1      22.123   1.896  49.128  1.00  0.00     0.143 C 
ENDBRANCH  26  27
ENDBRANCH  25  26
ENDBRANCH  12  25
TORSDOF 5
ENDMDL
MODEL 6
REMARK VINA RESULT:      -8.6      2.383      5.555
REMARK  5 active torsions:
REMARK  status: ('A' for Active; 'I' for Inactive)
REMARK    1  A    between atoms: C5_5  and  N1_6 
REMARK    2  A    between atoms: N1_6  and  C6_7 
REMARK    3  A    between atoms: C13_18  and  C14_19 
REMARK    4  A    between atoms: C14_19  and  C15_20 
REMARK    5  A    between atoms: C15_20  and  N4_21 
ROOT
HETATM    1  C6  UNL     1      25.295   3.264  51.157  1.00  0.00     0.117 A 
HETATM    2  N2  UNL     1      25.929   4.302  50.730  1.00  0.00    -0.228 NA
HETATM    3  C7  UNL     1      25.646   5.005  49.541  1.00  0.00     0.235 A 
HETATM    4  N3  UNL     1      24.673   4.625  48.767  1.00  0.00    -0.246 NA
HETATM    5  C8  UNL     1      23.933   3.510  49.170  1.00  0.00     0.049 A 
HETATM    6  C9  UNL     1      22.878   3.012  48.544  1.00  0.00     0.064 C 
HETATM    7  C10 UNL     1      22.165   1.813  49.071  1.00  0.00     0.386 C 
HETATM    8  O1  UNL     1      21.123   1.428  48.276  1.00  0.00    -0.347 OA
HETATM    9  C11 UNL     1      20.010   2.246  48.396  1.00  0.00     0.251 C 
HETATM   10  C12 UNL     1      19.534   2.045  49.816  1.00  0.00     0.183 C 
HETATM   11  O2  UNL     1      18.477   1.446  49.766  1.00  0.00    -0.293 OA
HETATM   12  C13 UNL     1      20.568   2.667  50.641  1.00  0.00     0.299 C 
HETATM   13  N5  UNL     1      21.845   1.997  50.441  1.00  0.00     0.134 N 
HETATM   14  C20 UNL     1      22.911   2.646  51.162  1.00  0.00     0.296 C 
HETATM   15  C21 UNL     1      24.196   2.677  50.399  1.00  0.00     0.135 A 
ENDROOT
BRANCH   1  16
HETATM   16  N1  UNL     1      25.752   2.722  52.383  1.00  0.00    -0.344 N 
HETATM   17  H6  UNL     1      25.388   3.254  53.217  1.00  0.00     0.167 HD
BRANCH  16  18
HETATM   18  C5  UNL     1      26.593   1.608  52.608  1.00  0.00     0.033 A 
HETATM   19  C4  UNL     1      26.349   0.287  52.327  1.00  0.00     0.030 A 
HETATM   20  C3  UNL     1      27.232  -0.740  52.572  1.00  0.00     0.009 A 
HETATM   21  C2  UNL     1      28.452  -0.468  53.134  1.00  0.00    -0.062 A 
HETATM   22  C1  UNL     1      29.434  -1.542  53.415  1.00  0.00     0.048 C 
HETATM   23  C23 UNL     1      28.735   0.849  53.431  1.00  0.00     0.009 A 
HETATM   24  C22 UNL     1      27.831   1.832  53.172  1.00  0.00     0.030 A 
ENDBRANCH  16  18
ENDBRANCH   1  16
BRANCH  12  25
HETATM   25  C14 UNL     1      20.180   2.700  52.083  1.00  0.00     0.063 C 
BRANCH  25  26
HETATM   26  C15 UNL     1      19.900   1.425  52.746  1.00  0.00     0.119 C 
BRANCH  26  27
HETATM   27  N4  UNL     1      20.884   0.638  53.321  1.00  0.00    -0.408 N 
HETATM   28  C16 UNL     1      20.805   0.364  54.719  1.00  0.00     0.143 C 
HETATM   29  C17 UNL     1      21.812  -0.724  55.023  1.00  0.00     0.187 C 
HETATM   30  O3  UNL     1      22.988  -0.614  54.320  1.00  0.00    -0.388 OA
HETATM   31  C18 UNL     1      22.836  -0.685  52.954  1.00  0.00     0.187 C 
HETATM   32  C19 UNL     1      21.403  -0.446  52.540  1.00  0.00     0.143 C 
ENDBRANCH  26  27
ENDBRANCH  25  26
ENDBRANCH  12  25
TORSDOF 5
ENDMDL
MODEL 7
REMARK VINA RESULT:      -8.5      2.766      5.498
REMARK  5 active torsions:
REMARK  status: ('A' for Active; 'I' for Inactive)
REMARK    1  A    between atoms: C5_5  and  N1_6 
REMARK    2  A    between atoms: N1_6  and  C6_7 
REMARK    3  A    between atoms: C13_18  and  C14_19 
REMARK    4  A    between atoms: C14_19  and  C15_20 
REMARK    5  A    between atoms: C15_20  and  N4_21 
ROOT
HETATM    1  C6  UNL     1      25.401   1.931  52.155  1.00  0.00     0.117 A 
HETATM    2  N2  UNL     1      26.466   1.291  51.811  1.00  0.00    -0.228 NA
HETATM    3  C7  UNL     1      26.757  -0.050  52.134  1.00  0.00     0.235 A 
HETATM    4  N3  UNL     1      25.919  -0.757  52.834  1.00  0.00    -0.246 NA
HETATM    5  C8  UNL     1      24.736  -0.131  53.236  1.00  0.00     0.049 A 
HETATM    6  C9  UNL     1      23.745  -0.702  53.904  1.00  0.00     0.064 C 
HETATM    7  C10 UNL     1      22.525   0.068  54.280  1.00  0.00     0.386 C 
HETATM    8  O1  UNL     1      21.629  -0.678  54.991  1.00  0.00    -0.347 OA
HETATM    9  C11 UNL     1      20.922  -1.578  54.208  1.00  0.00     0.251 C 
HETATM   10  C12 UNL     1      20.092  -0.717  53.284  1.00  0.00     0.183 C 
HETATM   11  O2  UNL     1      18.928  -0.844  53.613  1.00  0.00    -0.293 OA
HETATM   12  C13 UNL     1      21.065  -0.098  52.386  1.00  0.00     0.299 C 
HETATM   13  N5  UNL     1      21.995   0.730  53.142  1.00  0.00     0.134 N 
HETATM   14  C20 UNL     1      23.031   1.277  52.303  1.00  0.00     0.296 C 
HETATM   15  C21 UNL     1      24.368   1.307  52.973  1.00  0.00     0.135 A 
ENDROOT
BRANCH   1  16
HETATM   16  N1  UNL     1      25.318   3.274  51.714  1.00  0.00    -0.344 N 
HETATM   17  H6  UNL     1      25.829   3.938  52.353  1.00  0.00     0.167 HD
BRANCH  16  18
HETATM   18  C5  UNL     1      24.668   3.800  50.574  1.00  0.00     0.033 A 
HETATM   19  C4  UNL     1      23.917   3.133  49.639  1.00  0.00     0.030 A 
HETATM   20  C3  UNL     1      23.309   3.728  48.557  1.00  0.00     0.009 A 
HETATM   21  C2  UNL     1      23.436   5.079  48.363  1.00  0.00    -0.062 A 
HETATM   22  C1  UNL     1      22.798   5.762  47.212  1.00  0.00     0.048 C 
HETATM   23  C23 UNL     1      24.184   5.785  49.282  1.00  0.00     0.009 A 
HETATM   24  C22 UNL     1      24.769   5.155  50.337  1.00  0.00     0.030 A 
ENDBRANCH  16  18
ENDBRANCH   1  16
BRANCH  12  25
HETATM   25  C14 UNL     1      20.399   0.674  51.294  1.00  0.00     0.063 C 
BRANCH  25  26
HETATM   26  C15 UNL     1      19.609   1.848  51.670  1.00  0.00     0.119 C 
BRANCH  26  27
HETATM   27  N4  UNL     1      19.821   3.107  51.131  1.00  0.00    -0.408 N 
HETATM   28  C16 UNL     1      20.594   4.045  51.877  1.00  0.00     0.143 C 
HETATM   29  C17 UNL     1      20.906   5.205  50.958  1.00  0.00     0.187 C 
HETATM   30  O3  UNL     1      19.875   5.547  50.115  1.00  0.00    -0.388 OA
HETATM   31  C18 UNL     1      19.496   4.544  49.253  1.00  0.00     0.187 C 
HETATM   32  C19 UNL     1      20.001   3.195  49.712  1.00  0.00     0.143 C 
ENDBRANCH  26  27
ENDBRANCH  25  26
ENDBRANCH  12  25
TORSDOF 5
ENDMDL
MODEL 8
REMARK VINA RESULT:      -8.4      2.306      3.986
REMARK  5 active torsions:
REMARK  status: ('A' for Active; 'I' for Inactive)
REMARK    1  A    between atoms: C5_5  and  N1_6 
REMARK    2  A    between atoms: N1_6  and  C6_7 
REMARK    3  A    between atoms: C13_18  and  C14_19 
REMARK    4  A    between atoms: C14_19  and  C15_20 
REMARK    5  A    between atoms: C15_20  and  N4_21 
ROOT
HETATM    1  C6  UNL     1      26.735   6.950  48.644  1.00  0.00     0.117 A 
HETATM    2  N2  UNL     1      26.816   8.120  49.181  1.00  0.00    -0.228 NA
HETATM    3  C7  UNL     1      25.904   8.661  50.111  1.00  0.00     0.235 A 
HETATM    4  N3  UNL     1      24.874   7.970  50.502  1.00  0.00    -0.246 NA
HETATM    5  C8  UNL     1      24.724   6.688  49.968  1.00  0.00     0.049 A 
HETATM    6  C9  UNL     1      23.774   5.821  50.286  1.00  0.00     0.064 C 
HETATM    7  C10 UNL     1      23.715   4.475  49.647  1.00  0.00     0.386 C 
HETATM    8  O1  UNL     1      22.650   3.734  50.077  1.00  0.00    -0.347 OA
HETATM    9  C11 UNL     1      22.822   3.216  51.352  1.00  0.00     0.251 C 
HETATM   10  C12 UNL     1      23.969   2.241  51.221  1.00  0.00     0.183 C 
HETATM   11  O2  UNL     1      23.514   1.121  51.360  1.00  0.00    -0.293 OA
HETATM   12  C13 UNL     1      25.140   3.082  50.980  1.00  0.00     0.299 C 
HETATM   13  N5  UNL     1      24.977   3.832  49.743  1.00  0.00     0.134 N 
HETATM   14  C20 UNL     1      26.067   4.749  49.524  1.00  0.00     0.296 C 
HETATM   15  C21 UNL     1      25.625   6.052  48.939  1.00  0.00     0.135 A 
ENDROOT
BRANCH   1  16
HETATM   16  N1  UNL     1      27.769   6.615  47.737  1.00  0.00    -0.344 N 
HETATM   17  H6  UNL     1      27.399   6.371  46.780  1.00  0.00     0.167 HD
BRANCH  16  18
HETATM   18  C5  UNL     1      29.165   6.573  47.952  1.00  0.00     0.033 A 
HETATM   19  C4  UNL     1      29.961   5.477  48.170  1.00  0.00     0.030 A 
HETATM   20  C3  UNL     1      31.323   5.526  48.363  1.00  0.00     0.009 A 
HETATM   21  C2  UNL     1      31.970   6.734  48.343  1.00  0.00    -0.062 A 
HETATM   22  C1  UNL     1      33.435   6.834  48.547  1.00  0.00     0.048 C 
HETATM   23  C23 UNL     1      31.204   7.861  48.128  1.00  0.00     0.009 A 
HETATM   24  C22 UNL     1      29.859   7.765  47.942  1.00  0.00     0.030 A 
ENDBRANCH  16  18
ENDBRANCH   1  16
BRANCH  12  25
HETATM   25  C14 UNL     1      26.404   2.285  50.982  1.00  0.00     0.063 C 
BRANCH  25  26
HETATM   26  C15 UNL     1      27.299   2.425  52.131  1.00  0.00     0.119 C 
BRANCH  26  27
HETATM   27  N4  UNL     1      27.431   1.455  53.111  1.00  0.00    -0.408 N 
HETATM   28  C16 UNL     1      28.735   1.174  53.620  1.00  0.00     0.143 C 
HETATM   29  C17 UNL     1      28.563   0.307  54.848  1.00  0.00     0.187 C 
HETATM   30  O3  UNL     1      27.555  -0.622  54.743  1.00  0.00    -0.388 OA
HETATM   31  C18 UNL     1      26.305  -0.078  54.553  1.00  0.00     0.187 C 
HETATM   32  C19 UNL     1      26.387   1.358  54.088  1.00  0.00     0.143 C 
ENDBRANCH  26  27
ENDBRANCH  25  26
ENDBRANCH  12  25
TORSDOF 5
ENDMDL
MODEL 9
REMARK VINA RESULT:      -8.3      2.446      5.996
REMARK  5 active torsions:
REMARK  status: ('A' for Active; 'I' for Inactive)
REMARK    1  A    between atoms: C5_5  and  N1_6 
REMARK    2  A    between atoms: N1_6  and  C6_7 
REMARK    3  A    between atoms: C13_18  and  C14_19 
REMARK    4  A    between atoms: C14_19  and  C15_20 
REMARK    5  A    between atoms: C15_20  and  N4_21 
ROOT
HETATM    1  C6  UNL     1      24.265   3.786  50.561  1.00  0.00     0.117 A 
HETATM    2  N2  UNL     1      24.986   3.999  49.513  1.00  0.00    -0.228 NA
HETATM    3  C7  UNL     1      26.352   3.674  49.378  1.00  0.00     0.235 A 
HETATM    4  N3  UNL     1      26.995   3.105  50.354  1.00  0.00    -0.246 NA
HETATM    5  C8  UNL     1      26.274   2.834  51.521  1.00  0.00     0.049 A 
HETATM    6  C9  UNL     1      26.741   2.215  52.594  1.00  0.00     0.064 C 
HETATM    7  C10 UNL     1      25.876   1.981  53.786  1.00  0.00     0.386 C 
HETATM    8  O1  UNL     1      26.539   1.357  54.805  1.00  0.00    -0.347 OA
HETATM    9  C11 UNL     1      26.742   0.004  54.580  1.00  0.00     0.251 C 
HETATM   10  C12 UNL     1      25.355  -0.597  54.569  1.00  0.00     0.183 C 
HETATM   11  O2  UNL     1      25.246  -1.282  55.569  1.00  0.00    -0.293 OA
HETATM   12  C13 UNL     1      24.742  -0.085  53.345  1.00  0.00     0.299 C 
HETATM   13  N5  UNL     1      24.658   1.368  53.392  1.00  0.00     0.134 N 
HETATM   14  C20 UNL     1      24.151   1.916  52.160  1.00  0.00     0.296 C 
HETATM   15  C21 UNL     1      24.830   3.189  51.766  1.00  0.00     0.135 A 
ENDROOT
BRANCH   1  16
HETATM   16  N1  UNL     1      22.912   4.193  50.472  1.00  0.00    -0.344 N 
HETATM   17  H6  UNL     1      22.635   4.839  51.257  1.00  0.00     0.167 HD
BRANCH  16  18
HETATM   18  C5  UNL     1      21.941   3.855  49.502  1.00  0.00     0.033 A 
HETATM   19  C4  UNL     1      21.658   2.620  48.975  1.00  0.00     0.030 A 
HETATM   20  C3  UNL     1      20.684   2.377  48.034  1.00  0.00     0.009 A 
HETATM   21  C2  UNL     1      19.918   3.412  47.563  1.00  0.00    -0.062 A 
HETATM   22  C1  UNL     1      18.858   3.196  46.550  1.00  0.00     0.048 C 
HETATM   23  C23 UNL     1      20.173   4.670  48.068  1.00  0.00     0.009 A 
HETATM   24  C22 UNL     1      21.148   4.864  48.998  1.00  0.00     0.030 A 
ENDBRANCH  16  18
ENDBRANCH   1  16
BRANCH  12  25
HETATM   25  C14 UNL     1      23.409  -0.709  53.090  1.00  0.00     0.063 C 
BRANCH  25  26
HETATM   26  C15 UNL     1      22.245  -0.136  53.769  1.00  0.00     0.119 C 
BRANCH  26  27
HETATM   27  N4  UNL     1      20.963  -0.184  53.245  1.00  0.00    -0.408 N 
HETATM   28  C16 UNL     1      20.056  -1.161  53.754  1.00  0.00     0.143 C 
HETATM   29  C17 UNL     1      18.679  -0.814  53.230  1.00  0.00     0.187 C 
HETATM   30  O3  UNL     1      18.671  -0.348  51.936  1.00  0.00    -0.388 OA
HETATM   31  C18 UNL     1      19.390   0.811  51.751  1.00  0.00     0.187 C 
HETATM   32  C19 UNL     1      20.347   1.061  52.893  1.00  0.00     0.143 C 
ENDBRANCH  26  27
ENDBRANCH  25  26
ENDBRANCH  12  25
TORSDOF 5
ENDMDL
