MODEL 1
REMARK VINA RESULT:      -9.4      0.000      0.000
REMARK  6 active torsions:
REMARK  status: ('A' for Active; 'I' for Inactive)
REMARK    1  A    between atoms: N1_2  and  C2_3 
REMARK    2  A    between atoms: C10_13  and  O1_14 
REMARK    3  A    between atoms: O1_14  and  C11_15 
REMARK    4  A    between atoms: C14_18  and  C15_19 
REMARK    5  A    between atoms: C15_19  and  C16_21 
REMARK    6  A    between atoms: C20_25  and  C21_26 
ROOT
HETATM    1  C11 UNL     1      23.843   3.973  52.254  1.00  0.00     0.081 A 
HETATM    2  C12 UNL     1      22.906   4.859  52.509  1.00  0.00     0.016 A 
HETATM    3  C13 UNL     1      22.667   5.666  51.282  1.00  0.00     0.073 A 
HETATM    4  C14 UNL     1      23.625   5.074  50.317  1.00  0.00     0.005 A 
HETATM    5  C23 UNL     1      24.335   4.073  50.863  1.00  0.00    -0.018 A 
HETATM    6  C24 UNL     1      25.390   3.171  50.363  1.00  0.00     0.052 C 
ENDROOT
BRANCH   1   7
HETATM    7  O1  UNL     1      24.260   3.090  53.234  1.00  0.00    -0.291 OA
BRANCH   7   8
HETATM    8  C10 UNL     1      23.846   1.772  53.206  1.00  0.00     0.182 A 
HETATM    9  C6  UNL     1      24.824   0.814  53.296  1.00  0.00     0.047 A 
HETATM   10  C5  UNL     1      26.255   0.982  53.420  1.00  0.00     0.091 A 
HETATM   11  C7  UNL     1      24.338  -0.478  53.261  1.00  0.00     0.020 A 
HETATM   12  C4  UNL     1      26.995   2.133  53.478  1.00  0.00     0.053 A 
HETATM   13  N4  UNL     1      27.019  -0.122  53.493  1.00  0.00    -0.062 NA
HETATM   14  C3  UNL     1      28.363   2.198  53.598  1.00  0.00     0.139 A 
HETATM   15  N2  UNL     1      29.045   1.039  53.664  1.00  0.00    -0.075 NA
HETATM   16  C2  UNL     1      28.355  -0.127  53.610  1.00  0.00     0.722 A 
HETATM   17  C8  UNL     1      22.992  -0.746  53.145  1.00  0.00     0.020 A 
HETATM   18  C9  UNL     1      22.052   0.251  53.057  1.00  0.00     0.119 A 
HETATM   19  N3  UNL     1      22.534   1.504  53.093  1.00  0.00    -0.236 NA
BRANCH  16  20
HETATM   20  N1  UNL     1      29.020  -1.384  53.675  1.00  0.00    -0.227 N 
HETATM   21  C1  UNL     1      28.988  -2.736  53.208  1.00  0.00     0.165 C 
HETATM   22  H4  UNL     1      29.778  -1.105  54.312  1.00  0.00     0.177 HD
ENDBRANCH  16  20
ENDBRANCH   7   8
ENDBRANCH   1   7
BRANCH   4  23
HETATM   23  C15 UNL     1      23.886   5.415  48.927  1.00  0.00     0.189 C 
HETATM   24  O2  UNL     1      23.124   4.901  48.041  1.00  0.00    -0.287 OA
BRANCH  23  25
HETATM   25  C16 UNL     1      24.907   6.274  48.356  1.00  0.00     0.015 A 
HETATM   26  C17 UNL     1      24.487   7.358  47.614  1.00  0.00     0.015 A 
HETATM   27  C18 UNL     1      25.412   8.235  47.029  1.00  0.00     0.002 A 
HETATM   28  C19 UNL     1      26.771   8.056  47.167  1.00  0.00     0.016 A 
HETATM   29  C20 UNL     1      27.202   6.991  47.895  1.00  0.00     0.048 A 
HETATM   30  C22 UNL     1      26.273   6.146  48.458  1.00  0.00     0.031 A 
BRANCH  29  31
HETATM   31  C21 UNL     1      28.657   6.754  48.075  1.00  0.00     0.417 C 
HETATM   32  F1  UNL     1      29.150   7.641  49.001  1.00  0.00    -0.166 F 
HETATM   33  F2  UNL     1      28.889   5.439  48.412  1.00  0.00    -0.166 F 
HETATM   34  F3  UNL     1      29.254   6.969  46.841  1.00  0.00    -0.166 F 
ENDBRANCH  29  31
ENDBRANCH  23  25
ENDBRANCH   4  23
TORSDOF 6
ENDMDL
MODEL 2
REMARK VINA RESULT:      -9.3      3.483      6.190
REMARK  6 active torsions:
REMARK  status: ('A' for Active; 'I' for Inactive)
REMARK    1  A    between atoms: N1_2  and  C2_3 
REMARK    2  A    between atoms: C10_13  and  O1_14 
REMARK    3  A    between atoms: O1_14  and  C11_15 
REMARK    4  A    between atoms: C14_18  and  C15_19 
REMARK    5  A    between atoms: C15_19  and  C16_21 
REMARK    6  A    between atoms: C20_25  and  C21_26 
ROOT
HETATM    1  C11 UNL     1      21.151   1.828  51.335  1.00  0.00     0.081 A 
HETATM    2  C12 UNL     1      21.191   1.056  50.272  1.00  0.00     0.016 A 
HETATM    3  C13 UNL     1      21.949   1.759  49.201  1.00  0.00     0.073 A 
HETATM    4  C14 UNL     1      22.317   3.038  49.855  1.00  0.00     0.005 A 
HETATM    5  C23 UNL     1      21.858   3.109  51.116  1.00  0.00    -0.018 A 
HETATM    6  C24 UNL     1      21.937   4.126  52.182  1.00  0.00     0.052 C 
ENDROOT
BRANCH   1   7
HETATM    7  O1  UNL     1      20.500   1.411  52.482  1.00  0.00    -0.291 OA
BRANCH   7   8
HETATM    8  C10 UNL     1      21.022   0.383  53.245  1.00  0.00     0.182 A 
HETATM    9  C6  UNL     1      20.193  -0.678  53.504  1.00  0.00     0.047 A 
HETATM   10  C5  UNL     1      18.823  -0.886  53.090  1.00  0.00     0.091 A 
HETATM   11  C7  UNL     1      20.780  -1.665  54.270  1.00  0.00     0.020 A 
HETATM   12  C4  UNL     1      18.009  -0.082  52.337  1.00  0.00     0.053 A 
HETATM   13  N4  UNL     1      18.209  -2.020  53.472  1.00  0.00    -0.062 NA
HETATM   14  C3  UNL     1      16.709  -0.363  51.988  1.00  0.00     0.139 A 
HETATM   15  N2  UNL     1      16.179  -1.524  52.417  1.00  0.00    -0.075 NA
HETATM   16  C2  UNL     1      16.947  -2.353  53.167  1.00  0.00     0.722 A 
HETATM   17  C8  UNL     1      22.079  -1.564  54.716  1.00  0.00     0.020 A 
HETATM   18  C9  UNL     1      22.869  -0.479  54.429  1.00  0.00     0.119 A 
HETATM   19  N3  UNL     1      22.290   0.476  53.683  1.00  0.00    -0.236 NA
BRANCH  16  20
HETATM   20  N1  UNL     1      16.443  -3.593  53.650  1.00  0.00    -0.227 N 
HETATM   21  C1  UNL     1      16.661  -5.007  53.657  1.00  0.00     0.165 C 
HETATM   22  H4  UNL     1      15.633  -3.221  54.164  1.00  0.00     0.177 HD
ENDBRANCH  16  20
ENDBRANCH   7   8
ENDBRANCH   1   7
BRANCH   4  23
HETATM   23  C15 UNL     1      23.071   4.171  49.341  1.00  0.00     0.189 C 
HETATM   24  O2  UNL     1      22.409   5.178  48.920  1.00  0.00    -0.287 OA
BRANCH  23  25
HETATM   25  C16 UNL     1      24.505   4.356  49.222  1.00  0.00     0.015 A 
HETATM   26  C17 UNL     1      25.317   3.300  49.579  1.00  0.00     0.015 A 
HETATM   27  C18 UNL     1      26.713   3.401  49.492  1.00  0.00     0.002 A 
HETATM   28  C19 UNL     1      27.333   4.549  49.049  1.00  0.00     0.016 A 
HETATM   29  C20 UNL     1      26.546   5.600  48.692  1.00  0.00     0.048 A 
HETATM   30  C22 UNL     1      25.179   5.474  48.787  1.00  0.00     0.031 A 
BRANCH  29  31
HETATM   31  C21 UNL     1      27.165   6.861  48.207  1.00  0.00     0.417 C 
HETATM   32  F1  UNL     1      26.330   7.450  47.289  1.00  0.00    -0.166 F 
HETATM   33  F2  UNL     1      27.466   7.685  49.267  1.00  0.00    -0.166 F 
HETATM   34  F3  UNL     1      28.366   6.513  47.607  1.00  0.00    -0.166 F 
ENDBRANCH  29  31
ENDBRANCH  23  25
ENDBRANCH   4  23
TORSDOF 6
ENDMDL
MODEL 3
REMARK VINA RESULT:      -9.0      1.387      2.013
REMARK  6 active torsions:
REMARK  status: ('A' for Active; 'I' for Inactive)
REMARK    1  A    between atoms: N1_2  and  C2_3 
REMARK    2  A    between atoms: C10_13  and  O1_14 
REMARK    3  A    between atoms: O1_14  and  C11_15 
REMARK    4  A    between atoms: C14_18  and  C15_19 
REMARK    5  A    between atoms: C15_19  and  C16_21 
REMARK    6  A    between atoms: C20_25  and  C21_26 
ROOT
HETATM    1  C11 UNL     1      23.228   3.065  51.437  1.00  0.00     0.081 A 
HETATM    2  C12 UNL     1      22.990   2.269  50.419  1.00  0.00     0.016 A 
HETATM    3  C13 UNL     1      23.364   2.976  49.164  1.00  0.00     0.073 A 
HETATM    4  C14 UNL     1      23.845   4.287  49.665  1.00  0.00     0.005 A 
HETATM    5  C23 UNL     1      23.776   4.369  51.004  1.00  0.00    -0.018 A 
HETATM    6  C24 UNL     1      24.115   5.416  51.987  1.00  0.00     0.052 C 
ENDROOT
BRANCH   1   7
HETATM    7  O1  UNL     1      22.966   2.650  52.730  1.00  0.00    -0.291 OA
BRANCH   7   8
HETATM    8  C10 UNL     1      22.669   1.326  52.990  1.00  0.00     0.182 A 
HETATM    9  C6  UNL     1      23.732   0.475  53.160  1.00  0.00     0.047 A 
HETATM   10  C5  UNL     1      25.148   0.765  53.105  1.00  0.00     0.091 A 
HETATM   11  C7  UNL     1      23.361  -0.830  53.415  1.00  0.00     0.020 A 
HETATM   12  C4  UNL     1      25.786   1.954  52.873  1.00  0.00     0.053 A 
HETATM   13  N4  UNL     1      26.011  -0.247  53.306  1.00  0.00    -0.062 NA
HETATM   14  C3  UNL     1      27.147   2.138  52.840  1.00  0.00     0.139 A 
HETATM   15  N2  UNL     1      27.933   1.066  53.053  1.00  0.00    -0.075 NA
HETATM   16  C2  UNL     1      27.346  -0.135  53.287  1.00  0.00     0.722 A 
HETATM   17  C8  UNL     1      22.040  -1.211  53.487  1.00  0.00     0.020 A 
HETATM   18  C9  UNL     1      21.011  -0.319  53.309  1.00  0.00     0.119 A 
HETATM   19  N3  UNL     1      21.381   0.948  53.061  1.00  0.00    -0.236 NA
BRANCH  16  20
HETATM   20  N1  UNL     1      28.123  -1.305  53.518  1.00  0.00    -0.227 N 
HETATM   21  C1  UNL     1      29.442  -1.854  53.436  1.00  0.00     0.165 C 
HETATM   22  H4  UNL     1      27.366  -1.905  53.871  1.00  0.00     0.177 HD
ENDBRANCH  16  20
ENDBRANCH   7   8
ENDBRANCH   1   7
BRANCH   4  23
HETATM   23  C15 UNL     1      24.357   5.437  48.937  1.00  0.00     0.189 C 
HETATM   24  O2  UNL     1      23.508   6.281  48.494  1.00  0.00    -0.287 OA
BRANCH  23  25
HETATM   25  C16 UNL     1      25.725   5.801  48.618  1.00  0.00     0.015 A 
HETATM   26  C17 UNL     1      26.710   4.871  48.873  1.00  0.00     0.015 A 
HETATM   27  C18 UNL     1      28.056   5.148  48.593  1.00  0.00     0.002 A 
HETATM   28  C19 UNL     1      28.453   6.351  48.053  1.00  0.00     0.016 A 
HETATM   29  C20 UNL     1      27.494   7.280  47.795  1.00  0.00     0.048 A 
HETATM   30  C22 UNL     1      26.181   6.983  48.080  1.00  0.00     0.031 A 
BRANCH  29  31
HETATM   31  C21 UNL     1      27.870   8.595  47.212  1.00  0.00     0.417 C 
HETATM   32  F1  UNL     1      26.884   9.511  47.489  1.00  0.00    -0.166 F 
HETATM   33  F2  UNL     1      29.110   8.983  47.667  1.00  0.00    -0.166 F 
HETATM   34  F3  UNL     1      27.979   8.409  45.842  1.00  0.00    -0.166 F 
ENDBRANCH  29  31
ENDBRANCH  23  25
ENDBRANCH   4  23
TORSDOF 6
ENDMDL
MODEL 4
REMARK VINA RESULT:      -9.0      4.444      7.130
REMARK  6 active torsions:
REMARK  status: ('A' for Active; 'I' for Inactive)
REMARK    1  A    between atoms: N1_2  and  C2_3 
REMARK    2  A    between atoms: C10_13  and  O1_14 
REMARK    3  A    between atoms: O1_14  and  C11_15 
REMARK    4  A    between atoms: C14_18  and  C15_19 
REMARK    5  A    between atoms: C15_19  and  C16_21 
REMARK    6  A    between atoms: C20_25  and  C21_26 
ROOT
HETATM    1  C11 UNL     1      22.574   3.691  51.054  1.00  0.00     0.081 A 
HETATM    2  C12 UNL     1      22.584   3.562  49.746  1.00  0.00     0.016 A 
HETATM    3  C13 UNL     1      23.951   3.161  49.317  1.00  0.00     0.073 A 
HETATM    4  C14 UNL     1      24.685   3.092  50.604  1.00  0.00     0.005 A 
HETATM    5  C23 UNL     1      23.897   3.401  51.648  1.00  0.00    -0.018 A 
HETATM    6  C24 UNL     1      24.112   3.485  53.106  1.00  0.00     0.052 C 
ENDROOT
BRANCH   1   7
HETATM    7  O1  UNL     1      21.417   4.060  51.715  1.00  0.00    -0.291 OA
BRANCH   7   8
HETATM    8  C10 UNL     1      20.189   3.934  51.094  1.00  0.00     0.182 A 
HETATM    9  C6  UNL     1      19.477   2.791  51.356  1.00  0.00     0.047 A 
HETATM   10  C5  UNL     1      19.829   1.673  52.204  1.00  0.00     0.091 A 
HETATM   11  C7  UNL     1      18.263   2.733  50.702  1.00  0.00     0.020 A 
HETATM   12  C4  UNL     1      20.954   1.472  52.958  1.00  0.00     0.053 A 
HETATM   13  N4  UNL     1      18.957   0.654  52.304  1.00  0.00    -0.062 NA
HETATM   14  C3  UNL     1      21.205   0.371  53.741  1.00  0.00     0.139 A 
HETATM   15  N2  UNL     1      20.273  -0.600  53.779  1.00  0.00    -0.075 NA
HETATM   16  C2  UNL     1      19.142  -0.446  53.048  1.00  0.00     0.722 A 
HETATM   17  C8  UNL     1      17.834   3.744  49.871  1.00  0.00     0.020 A 
HETATM   18  C9  UNL     1      18.586   4.870  49.642  1.00  0.00     0.119 A 
HETATM   19  N3  UNL     1      19.766   4.918  50.282  1.00  0.00    -0.236 NA
BRANCH  16  20
HETATM   20  N1  UNL     1      18.121  -1.438  53.047  1.00  0.00    -0.227 N 
HETATM   21  C1  UNL     1      17.735  -2.703  53.592  1.00  0.00     0.165 C 
HETATM   22  H4  UNL     1      17.482  -0.976  52.385  1.00  0.00     0.177 HD
ENDBRANCH  16  20
ENDBRANCH   7   8
ENDBRANCH   1   7
BRANCH   4  23
HETATM   23  C15 UNL     1      26.072   2.750  50.875  1.00  0.00     0.189 C 
HETATM   24  O2  UNL     1      26.975   3.478  50.340  1.00  0.00    -0.287 OA
BRANCH  23  25
HETATM   25  C16 UNL     1      26.625   1.679  51.683  1.00  0.00     0.015 A 
HETATM   26  C17 UNL     1      26.075   0.422  51.541  1.00  0.00     0.015 A 
HETATM   27  C18 UNL     1      26.554  -0.665  52.286  1.00  0.00     0.002 A 
HETATM   28  C19 UNL     1      27.588  -0.529  53.186  1.00  0.00     0.016 A 
HETATM   29  C20 UNL     1      28.142   0.703  53.338  1.00  0.00     0.048 A 
HETATM   30  C22 UNL     1      27.653   1.753  52.595  1.00  0.00     0.031 A 
BRANCH  29  31
HETATM   31  C21 UNL     1      29.261   0.903  54.296  1.00  0.00     0.417 C 
HETATM   32  F1  UNL     1      28.909   0.384  55.518  1.00  0.00    -0.166 F 
HETATM   33  F2  UNL     1      30.422   0.360  53.795  1.00  0.00    -0.166 F 
HETATM   34  F3  UNL     1      29.462   2.272  54.398  1.00  0.00    -0.166 F 
ENDBRANCH  29  31
ENDBRANCH  23  25
ENDBRANCH   4  23
TORSDOF 6
ENDMDL
MODEL 5
REMARK VINA RESULT:      -8.9      3.094      5.831
REMARK  6 active torsions:
REMARK  status: ('A' for Active; 'I' for Inactive)
REMARK    1  A    between atoms: N1_2  and  C2_3 
REMARK    2  A    between atoms: C10_13  and  O1_14 
REMARK    3  A    between atoms: O1_14  and  C11_15 
REMARK    4  A    between atoms: C14_18  and  C15_19 
REMARK    5  A    between atoms: C15_19  and  C16_21 
REMARK    6  A    between atoms: C20_25  and  C21_26 
ROOT
HETATM    1  C11 UNL     1      22.356   2.003  51.552  1.00  0.00     0.081 A 
HETATM    2  C12 UNL     1      22.007   1.710  50.319  1.00  0.00     0.016 A 
HETATM    3  C13 UNL     1      23.103   2.124  49.402  1.00  0.00     0.073 A 
HETATM    4  C14 UNL     1      24.106   2.690  50.336  1.00  0.00     0.005 A 
HETATM    5  C23 UNL     1      23.692   2.634  51.613  1.00  0.00    -0.018 A 
HETATM    6  C24 UNL     1      24.281   3.045  52.902  1.00  0.00     0.052 C 
ENDROOT
BRANCH   1   7
HETATM    7  O1  UNL     1      21.508   1.722  52.608  1.00  0.00    -0.291 OA
BRANCH   7   8
HETATM    8  C10 UNL     1      21.610   0.520  53.282  1.00  0.00     0.182 A 
HETATM    9  C6  UNL     1      20.494  -0.277  53.299  1.00  0.00     0.047 A 
HETATM   10  C5  UNL     1      19.197  -0.040  52.704  1.00  0.00     0.091 A 
HETATM   11  C7  UNL     1      20.668  -1.460  53.988  1.00  0.00     0.020 A 
HETATM   12  C4  UNL     1      18.754   1.032  51.976  1.00  0.00     0.053 A 
HETATM   13  N4  UNL     1      18.247  -0.981  52.857  1.00  0.00    -0.062 NA
HETATM   14  C3  UNL     1      17.495   1.172  51.445  1.00  0.00     0.139 A 
HETATM   15  N2  UNL     1      16.611   0.179  51.650  1.00  0.00    -0.075 NA
HETATM   16  C2  UNL     1      17.002  -0.904  52.366  1.00  0.00     0.722 A 
HETATM   17  C8  UNL     1      21.864  -1.782  54.592  1.00  0.00     0.020 A 
HETATM   18  C9  UNL     1      22.954  -0.947  54.545  1.00  0.00     0.119 A 
HETATM   19  N3  UNL     1      22.775   0.200  53.872  1.00  0.00    -0.236 NA
BRANCH  16  20
HETATM   20  N1  UNL     1      16.113  -1.987  52.616  1.00  0.00    -0.227 N 
HETATM   21  C1  UNL     1      16.044  -3.366  52.990  1.00  0.00     0.165 C 
HETATM   22  H4  UNL     1      15.232  -1.486  52.435  1.00  0.00     0.177 HD
ENDBRANCH  16  20
ENDBRANCH   7   8
ENDBRANCH   1   7
BRANCH   4  23
HETATM   23  C15 UNL     1      25.414   3.268  50.069  1.00  0.00     0.189 C 
HETATM   24  O2  UNL     1      26.439   2.616  50.463  1.00  0.00    -0.287 OA
BRANCH  23  25
HETATM   25  C16 UNL     1      25.764   4.510  49.405  1.00  0.00     0.015 A 
HETATM   26  C17 UNL     1      24.747   5.407  49.151  1.00  0.00     0.015 A 
HETATM   27  C18 UNL     1      25.005   6.628  48.512  1.00  0.00     0.002 A 
HETATM   28  C19 UNL     1      26.274   6.987  48.113  1.00  0.00     0.016 A 
HETATM   29  C20 UNL     1      27.288   6.113  48.356  1.00  0.00     0.048 A 
HETATM   30  C22 UNL     1      27.007   4.922  48.984  1.00  0.00     0.031 A 
BRANCH  29  31
HETATM   31  C21 UNL     1      28.675   6.452  47.946  1.00  0.00     0.417 C 
HETATM   32  F1  UNL     1      29.222   7.312  48.867  1.00  0.00    -0.166 F 
HETATM   33  F2  UNL     1      29.417   5.305  47.774  1.00  0.00    -0.166 F 
HETATM   34  F3  UNL     1      28.587   7.070  46.707  1.00  0.00    -0.166 F 
ENDBRANCH  29  31
ENDBRANCH  23  25
ENDBRANCH   4  23
TORSDOF 6
ENDMDL
MODEL 6
REMARK VINA RESULT:      -8.8      4.108      8.008
REMARK  6 active torsions:
REMARK  status: ('A' for Active; 'I' for Inactive)
REMARK    1  A    between atoms: N1_2  and  C2_3 
REMARK    2  A    between atoms: C10_13  and  O1_14 
REMARK    3  A    between atoms: O1_14  and  C11_15 
REMARK    4  A    between atoms: C14_18  and  C15_19 
REMARK    5  A    between atoms: C15_19  and  C16_21 
REMARK    6  A    between atoms: C20_25  and  C21_26 
ROOT
HETATM    1  C11 UNL     1      23.653   3.603  49.317  1.00  0.00     0.081 A 
HETATM    2  C12 UNL     1      22.954   2.846  48.501  1.00  0.00     0.016 A 
HETATM    3  C13 UNL     1      22.240   1.815  49.302  1.00  0.00     0.073 A 
HETATM    4  C14 UNL     1      22.664   2.134  50.687  1.00  0.00     0.005 A 
HETATM    5  C23 UNL     1      23.500   3.185  50.728  1.00  0.00    -0.018 A 
HETATM    6  C24 UNL     1      24.199   3.899  51.813  1.00  0.00     0.052 C 
ENDROOT
BRANCH   1   7
HETATM    7  O1  UNL     1      24.417   4.647  48.827  1.00  0.00    -0.291 OA
BRANCH   7   8
HETATM    8  C10 UNL     1      24.064   5.955  49.097  1.00  0.00     0.182 A 
HETATM    9  C6  UNL     1      25.075   6.881  49.100  1.00  0.00     0.047 A 
HETATM   10  C5  UNL     1      26.488   6.688  48.859  1.00  0.00     0.091 A 
HETATM   11  C7  UNL     1      24.650   8.165  49.377  1.00  0.00     0.020 A 
HETATM   12  C4  UNL     1      27.173   5.539  48.567  1.00  0.00     0.053 A 
HETATM   13  N4  UNL     1      27.295   7.763  48.918  1.00  0.00    -0.062 NA
HETATM   14  C3  UNL     1      28.527   5.448  48.350  1.00  0.00     0.139 A 
HETATM   15  N2  UNL     1      29.254   6.578  48.430  1.00  0.00    -0.075 NA
HETATM   16  C2  UNL     1      28.620   7.741  48.718  1.00  0.00     0.722 A 
HETATM   17  C8  UNL     1      23.326   8.456  49.621  1.00  0.00     0.020 A 
HETATM   18  C9  UNL     1      22.350   7.491  49.606  1.00  0.00     0.119 A 
HETATM   19  N3  UNL     1      22.773   6.245  49.336  1.00  0.00    -0.236 NA
BRANCH  16  20
HETATM   20  N1  UNL     1      29.335   8.969  48.816  1.00  0.00    -0.227 N 
HETATM   21  C1  UNL     1      30.535   9.574  49.306  1.00  0.00     0.165 C 
HETATM   22  H4  UNL     1      28.653   9.564  48.326  1.00  0.00     0.177 HD
ENDBRANCH  16  20
ENDBRANCH   7   8
ENDBRANCH   1   7
BRANCH   4  23
HETATM   23  C15 UNL     1      22.313   1.494  51.945  1.00  0.00     0.189 C 
HETATM   24  O2  UNL     1      21.141   1.704  52.407  1.00  0.00    -0.287 OA
BRANCH  23  25
HETATM   25  C16 UNL     1      23.100   0.623  52.798  1.00  0.00     0.015 A 
HETATM   26  C17 UNL     1      22.452  -0.009  53.838  1.00  0.00     0.015 A 
HETATM   27  C18 UNL     1      23.143  -0.866  54.706  1.00  0.00     0.002 A 
HETATM   28  C19 UNL     1      24.490  -1.115  54.561  1.00  0.00     0.016 A 
HETATM   29  C20 UNL     1      25.145  -0.500  53.540  1.00  0.00     0.048 A 
HETATM   30  C22 UNL     1      24.442   0.336  52.703  1.00  0.00     0.031 A 
BRANCH  29  31
HETATM   31  C21 UNL     1      26.598  -0.735  53.339  1.00  0.00     0.417 C 
HETATM   32  F1  UNL     1      27.285  -0.298  54.446  1.00  0.00    -0.166 F 
HETATM   33  F2  UNL     1      26.833  -2.060  53.049  1.00  0.00    -0.166 F 
HETATM   34  F3  UNL     1      26.973  -0.001  52.223  1.00  0.00    -0.166 F 
ENDBRANCH  29  31
ENDBRANCH  23  25
ENDBRANCH   4  23
TORSDOF 6
ENDMDL
MODEL 7
REMARK VINA RESULT:      -8.7      4.697      8.669
REMARK  6 active torsions:
REMARK  status: ('A' for Active; 'I' for Inactive)
REMARK    1  A    between atoms: N1_2  and  C2_3 
REMARK    2  A    between atoms: C10_13  and  O1_14 
REMARK    3  A    between atoms: O1_14  and  C11_15 
REMARK    4  A    between atoms: C14_18  and  C15_19 
REMARK    5  A    between atoms: C15_19  and  C16_21 
REMARK    6  A    between atoms: C20_25  and  C21_26 
ROOT
HETATM    1  C11 UNL     1      24.729   5.405  50.662  1.00  0.00     0.081 A 
HETATM    2  C12 UNL     1      25.481   4.989  49.668  1.00  0.00     0.016 A 
HETATM    3  C13 UNL     1      25.439   3.502  49.629  1.00  0.00     0.073 A 
HETATM    4  C14 UNL     1      24.542   3.176  50.763  1.00  0.00     0.005 A 
HETATM    5  C23 UNL     1      24.107   4.280  51.394  1.00  0.00    -0.018 A 
HETATM    6  C24 UNL     1      23.221   4.520  52.549  1.00  0.00     0.052 C 
ENDROOT
BRANCH   1   7
HETATM    7  O1  UNL     1      24.593   6.757  50.924  1.00  0.00    -0.291 OA
BRANCH   7   8
HETATM    8  C10 UNL     1      23.665   7.510  50.231  1.00  0.00     0.182 A 
HETATM    9  C6  UNL     1      24.140   8.597  49.542  1.00  0.00     0.047 A 
HETATM   10  C5  UNL     1      25.497   9.082  49.430  1.00  0.00     0.091 A 
HETATM   11  C7  UNL     1      23.158   9.301  48.874  1.00  0.00     0.020 A 
HETATM   12  C4  UNL     1      26.649   8.584  49.980  1.00  0.00     0.053 A 
HETATM   13  N4  UNL     1      25.719  10.181  48.688  1.00  0.00    -0.062 NA
HETATM   14  C3  UNL     1      27.906   9.114  49.817  1.00  0.00     0.139 A 
HETATM   15  N2  UNL     1      28.031  10.218  49.056  1.00  0.00    -0.075 NA
HETATM   16  C2  UNL     1      26.918  10.748  48.491  1.00  0.00     0.722 A 
HETATM   17  C8  UNL     1      21.834   8.923  48.916  1.00  0.00     0.020 A 
HETATM   18  C9  UNL     1      21.410   7.825  49.623  1.00  0.00     0.119 A 
HETATM   19  N3  UNL     1      22.371   7.146  50.268  1.00  0.00    -0.236 NA
BRANCH  16  20
HETATM   20  N1  UNL     1      26.986  11.913  47.676  1.00  0.00    -0.227 N 
HETATM   21  C1  UNL     1      26.202  12.876  46.965  1.00  0.00     0.165 C 
HETATM   22  H4  UNL     1      28.011  12.008  47.657  1.00  0.00     0.177 HD
ENDBRANCH  16  20
ENDBRANCH   7   8
ENDBRANCH   1   7
BRANCH   4  23
HETATM   23  C15 UNL     1      24.090   1.886  51.259  1.00  0.00     0.189 C 
HETATM   24  O2  UNL     1      23.013   1.408  50.767  1.00  0.00    -0.287 OA
BRANCH  23  25
HETATM   25  C16 UNL     1      24.679   1.015  52.259  1.00  0.00     0.015 A 
HETATM   26  C17 UNL     1      23.822   0.312  53.080  1.00  0.00     0.015 A 
HETATM   27  C18 UNL     1      24.315  -0.549  54.071  1.00  0.00     0.002 A 
HETATM   28  C19 UNL     1      25.666  -0.733  54.268  1.00  0.00     0.016 A 
HETATM   29  C20 UNL     1      26.525  -0.047  53.467  1.00  0.00     0.048 A 
HETATM   30  C22 UNL     1      26.015   0.792  52.503  1.00  0.00     0.031 A 
BRANCH  29  31
HETATM   31  C21 UNL     1      27.992  -0.210  53.639  1.00  0.00     0.417 C 
HETATM   32  F1  UNL     1      28.293  -0.217  54.979  1.00  0.00    -0.166 F 
HETATM   33  F2  UNL     1      28.428  -1.338  52.983  1.00  0.00    -0.166 F 
HETATM   34  F3  UNL     1      28.591   0.878  53.020  1.00  0.00    -0.166 F 
ENDBRANCH  29  31
ENDBRANCH  23  25
ENDBRANCH   4  23
TORSDOF 6
ENDMDL
MODEL 8
REMARK VINA RESULT:      -8.6      4.677      8.825
REMARK  6 active torsions:
REMARK  status: ('A' for Active; 'I' for Inactive)
REMARK    1  A    between atoms: N1_2  and  C2_3 
REMARK    2  A    between atoms: C10_13  and  O1_14 
REMARK    3  A    between atoms: O1_14  and  C11_15 
REMARK    4  A    between atoms: C14_18  and  C15_19 
REMARK    5  A    between atoms: C15_19  and  C16_21 
REMARK    6  A    between atoms: C20_25  and  C21_26 
ROOT
HETATM    1  C11 UNL     1      22.933   4.703  50.071  1.00  0.00     0.081 A 
HETATM    2  C12 UNL     1      22.304   4.073  49.104  1.00  0.00     0.016 A 
HETATM    3  C13 UNL     1      21.427   3.031  49.706  1.00  0.00     0.073 A 
HETATM    4  C14 UNL     1      21.682   3.197  51.158  1.00  0.00     0.005 A 
HETATM    5  C23 UNL     1      22.568   4.176  51.404  1.00  0.00    -0.018 A 
HETATM    6  C24 UNL     1      23.160   4.740  52.633  1.00  0.00     0.052 C 
ENDROOT
BRANCH   1   7
HETATM    7  O1  UNL     1      23.819   5.726  49.784  1.00  0.00    -0.291 OA
BRANCH   7   8
HETATM    8  C10 UNL     1      25.117   5.439  49.408  1.00  0.00     0.182 A 
HETATM    9  C6  UNL     1      25.800   6.422  48.738  1.00  0.00     0.047 A 
HETATM   10  C5  UNL     1      25.352   7.744  48.358  1.00  0.00     0.091 A 
HETATM   11  C7  UNL     1      27.088   6.066  48.395  1.00  0.00     0.020 A 
HETATM   12  C4  UNL     1      24.141   8.348  48.568  1.00  0.00     0.053 A 
HETATM   13  N4  UNL     1      26.213   8.540  47.699  1.00  0.00    -0.062 NA
HETATM   14  C3  UNL     1      23.803   9.619  48.169  1.00  0.00     0.139 A 
HETATM   15  N2  UNL     1      24.730  10.342  47.514  1.00  0.00    -0.075 NA
HETATM   16  C2  UNL     1      25.945   9.785  47.282  1.00  0.00     0.722 A 
HETATM   17  C8  UNL     1      27.611   4.831  48.710  1.00  0.00     0.020 A 
HETATM   18  C9  UNL     1      26.884   3.880  49.383  1.00  0.00     0.119 A 
HETATM   19  N3  UNL     1      25.632   4.235  49.713  1.00  0.00    -0.236 NA
BRANCH  16  20
HETATM   20  N1  UNL     1      26.967  10.499  46.595  1.00  0.00    -0.227 N 
HETATM   21  C1  UNL     1      28.095  11.361  46.770  1.00  0.00     0.165 C 
HETATM   22  H4  UNL     1      26.705  10.227  45.637  1.00  0.00     0.177 HD
ENDBRANCH  16  20
ENDBRANCH   7   8
ENDBRANCH   1   7
BRANCH   4  23
HETATM   23  C15 UNL     1      21.128   2.478  52.294  1.00  0.00     0.189 C 
HETATM   24  O2  UNL     1      20.012   2.884  52.762  1.00  0.00    -0.287 OA
BRANCH  23  25
HETATM   25  C16 UNL     1      21.651   1.332  53.015  1.00  0.00     0.015 A 
HETATM   26  C17 UNL     1      20.743   0.504  53.642  1.00  0.00     0.015 A 
HETATM   27  C18 UNL     1      21.170  -0.624  54.359  1.00  0.00     0.002 A 
HETATM   28  C19 UNL     1      22.502  -0.955  54.467  1.00  0.00     0.016 A 
HETATM   29  C20 UNL     1      23.410  -0.148  53.855  1.00  0.00     0.048 A 
HETATM   30  C22 UNL     1      22.965   0.952  53.158  1.00  0.00     0.031 A 
BRANCH  29  31
HETATM   31  C21 UNL     1      24.861  -0.461  53.941  1.00  0.00     0.417 C 
HETATM   32  F1  UNL     1      25.248  -1.129  52.805  1.00  0.00    -0.166 F 
HETATM   33  F2  UNL     1      25.585   0.688  54.165  1.00  0.00    -0.166 F 
HETATM   34  F3  UNL     1      25.030  -1.272  55.054  1.00  0.00    -0.166 F 
ENDBRANCH  29  31
ENDBRANCH  23  25
ENDBRANCH   4  23
TORSDOF 6
ENDMDL
MODEL 9
REMARK VINA RESULT:      -8.6      4.633      8.856
REMARK  6 active torsions:
REMARK  status: ('A' for Active; 'I' for Inactive)
REMARK    1  A    between atoms: N1_2  and  C2_3 
REMARK    2  A    between atoms: C10_13  and  O1_14 
REMARK    3  A    between atoms: O1_14  and  C11_15 
REMARK    4  A    between atoms: C14_18  and  C15_19 
REMARK    5  A    between atoms: C15_19  and  C16_21 
REMARK    6  A    between atoms: C20_25  and  C21_26 
ROOT
HETATM    1  C11 UNL     1      25.916   5.367  49.576  1.00  0.00     0.081 A 
HETATM    2  C12 UNL     1      26.855   4.639  49.015  1.00  0.00     0.016 A 
HETATM    3  C13 UNL     1      26.664   3.220  49.421  1.00  0.00     0.073 A 
HETATM    4  C14 UNL     1      25.468   3.295  50.295  1.00  0.00     0.005 A 
HETATM    5  C23 UNL     1      25.004   4.551  50.406  1.00  0.00    -0.018 A 
HETATM    6  C24 UNL     1      23.876   5.168  51.129  1.00  0.00     0.052 C 
ENDROOT
BRANCH   1   7
HETATM    7  O1  UNL     1      25.864   6.733  49.361  1.00  0.00    -0.291 OA
BRANCH   7   8
HETATM    8  C10 UNL     1      25.342   7.234  48.184  1.00  0.00     0.182 A 
HETATM    9  C6  UNL     1      26.137   8.093  47.470  1.00  0.00     0.047 A 
HETATM   10  C5  UNL     1      27.471   8.564  47.773  1.00  0.00     0.091 A 
HETATM   11  C7  UNL     1      25.552   8.553  46.307  1.00  0.00     0.020 A 
HETATM   12  C4  UNL     1      28.275   8.274  48.842  1.00  0.00     0.053 A 
HETATM   13  N4  UNL     1      28.055   9.414  46.909  1.00  0.00    -0.062 NA
HETATM   14  C3  UNL     1      29.540   8.771  49.049  1.00  0.00     0.139 A 
HETATM   15  N2  UNL     1      30.042   9.617  48.130  1.00  0.00    -0.075 NA
HETATM   16  C2  UNL     1      29.282   9.934  47.053  1.00  0.00     0.722 A 
HETATM   17  C8  UNL     1      24.285   8.166  45.928  1.00  0.00     0.020 A 
HETATM   18  C9  UNL     1      23.529   7.302  46.680  1.00  0.00     0.119 A 
HETATM   19  N3  UNL     1      24.106   6.860  47.808  1.00  0.00    -0.236 NA
BRANCH  16  20
HETATM   20  N1  UNL     1      29.758  10.822  46.048  1.00  0.00    -0.227 N 
HETATM   21  C1  UNL     1      29.375  11.577  44.894  1.00  0.00     0.165 C 
HETATM   22  H4  UNL     1      30.737  10.870  46.360  1.00  0.00     0.177 HD
ENDBRANCH  16  20
ENDBRANCH   7   8
ENDBRANCH   1   7
BRANCH   4  23
HETATM   23  C15 UNL     1      24.764   2.243  51.011  1.00  0.00     0.189 C 
HETATM   24  O2  UNL     1      23.534   2.054  50.722  1.00  0.00    -0.287 OA
BRANCH  23  25
HETATM   25  C16 UNL     1      25.241   1.336  52.038  1.00  0.00     0.015 A 
HETATM   26  C17 UNL     1      24.296   0.667  52.788  1.00  0.00     0.015 A 
HETATM   27  C18 UNL     1      24.678  -0.226  53.800  1.00  0.00     0.002 A 
HETATM   28  C19 UNL     1      26.002  -0.475  54.088  1.00  0.00     0.016 A 
HETATM   29  C20 UNL     1      26.946   0.177  53.358  1.00  0.00     0.048 A 
HETATM   30  C22 UNL     1      26.544   1.048  52.372  1.00  0.00     0.031 A 
BRANCH  29  31
HETATM   31  C21 UNL     1      28.388  -0.057  53.629  1.00  0.00     0.417 C 
HETATM   32  F1  UNL     1      28.758  -1.269  53.101  1.00  0.00    -0.166 F 
HETATM   33  F2  UNL     1      29.141   0.992  53.150  1.00  0.00    -0.166 F 
HETATM   34  F3  UNL     1      28.540  -0.070  55.008  1.00  0.00    -0.166 F 
ENDBRANCH  29  31
ENDBRANCH  23  25
ENDBRANCH   4  23
TORSDOF 6
ENDMDL
