MODEL 1
REMARK VINA RESULT:      -8.4      0.000      0.000
REMARK  3 active torsions:
REMARK  status: ('A' for Active; 'I' for Inactive)
REMARK    1  A    between atoms: O1_2  and  C2_3 
REMARK    2  A    between atoms: N2_11  and  C8_12 
REMARK    3  A    between atoms: N3_24  and  N4_25 
ROOT
HETATM    1  C2  UNL     1      26.636  -0.602  53.557  1.00  0.00     0.101 C 
HETATM    2  C3  UNL     1      25.334  -0.552  53.824  1.00  0.00     0.058 C 
HETATM    3  C4  UNL     1      24.107  -0.954  54.504  1.00  0.00     0.006 C 
HETATM    4  C5  UNL     1      23.056  -0.280  54.109  1.00  0.00     0.132 C 
HETATM    5  O2  UNL     1      21.972   0.517  53.606  1.00  0.00    -0.349 OA
HETATM    6  C6  UNL     1      22.231   1.293  52.483  1.00  0.00     0.196 C 
HETATM    7  C7  UNL     1      21.347   2.354  52.041  1.00  0.00     0.148 C 
HETATM    8  N1  UNL     1      21.732   2.689  50.814  1.00  0.00    -0.183 NA
HETATM    9  N2  UNL     1      23.098   2.708  50.443  1.00  0.00    -0.241 N 
HETATM   10  C18 UNL     1      24.046   2.364  51.443  1.00  0.00     0.136 C 
HETATM   11  C19 UNL     1      23.517   2.078  52.659  1.00  0.00     0.062 C 
HETATM   12  N3  UNL     1      25.493   2.159  51.317  1.00  0.00    -0.299 N 
HETATM   13  C20 UNL     1      25.714   1.076  52.205  1.00  0.00     0.148 C 
HETATM   14  C21 UNL     1      27.005   0.436  52.483  1.00  0.00     0.063 C 
ENDROOT
BRANCH   9  15
HETATM   15  C8  UNL     1      23.668   3.089  49.187  1.00  0.00     0.165 A 
HETATM   16  C9  UNL     1      22.782   2.384  48.175  1.00  0.00     0.006 A 
HETATM   17  C10 UNL     1      22.125   3.176  47.380  1.00  0.00     0.010 A 
HETATM   18  C11 UNL     1      22.487   4.536  47.769  1.00  0.00    -0.031 A 
HETATM   19  C12 UNL     1      23.360   4.494  48.800  1.00  0.00    -0.038 A 
HETATM   20  C17 UNL     1      21.871   5.633  46.976  1.00  0.00     0.011 C 
HETATM   21  C13 UNL     1      23.782   5.794  49.369  1.00  0.00     0.064 C 
HETATM   22  C14 UNL     1      24.345   6.664  48.323  1.00  0.00    -0.022 C 
HETATM   23  C15 UNL     1      23.912   7.160  47.147  1.00  0.00    -0.004 C 
HETATM   24  C16 UNL     1      22.540   6.788  46.720  1.00  0.00     0.001 C 
ENDBRANCH   9  15
BRANCH  12  25
HETATM   25  N4  UNL     1      26.012   3.061  50.412  1.00  0.00    -0.246 NA
HETATM   26  H19 UNL     1      25.460   3.945  50.534  1.00  0.00     0.143 HD
HETATM   27  H20 UNL     1      27.033   3.287  50.626  1.00  0.00     0.143 HD
ENDBRANCH  12  25
BRANCH   1  28
HETATM   28  O1  UNL     1      27.881  -1.172  53.799  1.00  0.00    -0.381 OA
HETATM   29  C1  UNL     1      29.087  -0.444  53.775  1.00  0.00     0.202 C 
ENDBRANCH   1  28
TORSDOF 3
ENDMDL
MODEL 2
REMARK VINA RESULT:      -8.3      2.992      7.270
REMARK  3 active torsions:
REMARK  status: ('A' for Active; 'I' for Inactive)
REMARK    1  A    between atoms: O1_2  and  C2_3 
REMARK    2  A    between atoms: N2_11  and  C8_12 
REMARK    3  A    between atoms: N3_24  and  N4_25 
ROOT
HETATM    1  C2  UNL     1      24.662   7.653  49.525  1.00  0.00     0.101 C 
HETATM    2  C3  UNL     1      24.005   6.919  48.631  1.00  0.00     0.058 C 
HETATM    3  C4  UNL     1      23.385   6.652  47.337  1.00  0.00     0.006 C 
HETATM    4  C5  UNL     1      22.851   5.459  47.259  1.00  0.00     0.132 C 
HETATM    5  O2  UNL     1      22.301   4.132  47.279  1.00  0.00    -0.349 OA
HETATM    6  C6  UNL     1      22.253   3.491  48.511  1.00  0.00     0.196 C 
HETATM    7  C7  UNL     1      22.006   2.069  48.645  1.00  0.00     0.148 C 
HETATM    8  N1  UNL     1      21.747   1.844  49.930  1.00  0.00    -0.183 NA
HETATM    9  N2  UNL     1      22.424   2.543  50.958  1.00  0.00    -0.241 N 
HETATM   10  C18 UNL     1      23.405   3.491  50.560  1.00  0.00     0.136 C 
HETATM   11  C19 UNL     1      23.590   3.594  49.220  1.00  0.00     0.062 C 
HETATM   12  N3  UNL     1      24.151   4.451  51.379  1.00  0.00    -0.299 N 
HETATM   13  C20 UNL     1      24.211   5.581  50.524  1.00  0.00     0.148 C 
HETATM   14  C21 UNL     1      24.852   6.865  50.833  1.00  0.00     0.063 C 
ENDROOT
BRANCH   9  15
HETATM   15  C8  UNL     1      22.293   2.380  52.373  1.00  0.00     0.165 A 
HETATM   16  C9  UNL     1      20.801   2.544  52.605  1.00  0.00     0.006 A 
HETATM   17  C10 UNL     1      20.203   1.492  53.081  1.00  0.00     0.010 A 
HETATM   18  C11 UNL     1      21.234   0.469  53.227  1.00  0.00    -0.031 A 
HETATM   19  C12 UNL     1      22.424   0.965  52.820  1.00  0.00    -0.038 A 
HETATM   20  C17 UNL     1      20.793  -0.836  53.785  1.00  0.00     0.011 C 
HETATM   21  C13 UNL     1      23.574   0.033  52.835  1.00  0.00     0.064 C 
HETATM   22  C14 UNL     1      23.754  -0.555  54.173  1.00  0.00    -0.022 C 
HETATM   23  C15 UNL     1      22.986  -1.267  55.021  1.00  0.00    -0.004 C 
HETATM   24  C16 UNL     1      21.603  -1.581  54.583  1.00  0.00     0.001 C 
ENDBRANCH   9  15
BRANCH  12  25
HETATM   25  N4  UNL     1      24.457   3.882  52.597  1.00  0.00    -0.246 NA
HETATM   26  H19 UNL     1      24.234   2.860  52.505  1.00  0.00     0.143 HD
HETATM   27  H20 UNL     1      25.500   3.963  52.816  1.00  0.00     0.143 HD
ENDBRANCH  12  25
BRANCH   1  28
HETATM   28  O1  UNL     1      25.290   8.849  49.855  1.00  0.00    -0.381 OA
HETATM   29  C1  UNL     1      26.675   8.960  50.088  1.00  0.00     0.202 C 
ENDBRANCH   1  28
TORSDOF 3
ENDMDL
MODEL 3
REMARK VINA RESULT:      -8.1      2.753      7.749
REMARK  3 active torsions:
REMARK  status: ('A' for Active; 'I' for Inactive)
REMARK    1  A    between atoms: O1_2  and  C2_3 
REMARK    2  A    between atoms: N2_11  and  C8_12 
REMARK    3  A    between atoms: N3_24  and  N4_25 
ROOT
HETATM    1  C2  UNL     1      22.308   4.996  46.582  1.00  0.00     0.101 C 
HETATM    2  C3  UNL     1      22.787   5.724  47.588  1.00  0.00     0.058 C 
HETATM    3  C4  UNL     1      23.352   6.922  48.202  1.00  0.00     0.006 C 
HETATM    4  C5  UNL     1      23.582   6.783  49.483  1.00  0.00     0.132 C 
HETATM    5  O2  UNL     1      23.795   6.524  50.880  1.00  0.00    -0.349 OA
HETATM    6  C6  UNL     1      23.660   5.208  51.303  1.00  0.00     0.196 C 
HETATM    7  C7  UNL     1      23.553   4.840  52.701  1.00  0.00     0.148 C 
HETATM    8  N1  UNL     1      23.722   3.523  52.766  1.00  0.00    -0.183 NA
HETATM    9  N2  UNL     1      23.212   2.658  51.768  1.00  0.00    -0.241 N 
HETATM   10  C18 UNL     1      22.499   3.256  50.695  1.00  0.00     0.136 C 
HETATM   11  C19 UNL     1      22.372   4.605  50.773  1.00  0.00     0.062 C 
HETATM   12  N3  UNL     1      21.990   2.642  49.464  1.00  0.00    -0.299 N 
HETATM   13  C20 UNL     1      22.223   3.663  48.508  1.00  0.00     0.148 C 
HETATM   14  C21 UNL     1      21.906   3.596  47.077  1.00  0.00     0.063 C 
ENDROOT
BRANCH   9  15
HETATM   15  C8  UNL     1      23.270   1.230  51.722  1.00  0.00     0.165 A 
HETATM   16  C9  UNL     1      24.746   0.935  51.927  1.00  0.00     0.006 A 
HETATM   17  C10 UNL     1      25.024   0.264  53.006  1.00  0.00     0.010 A 
HETATM   18  C11 UNL     1      23.749   0.025  53.676  1.00  0.00    -0.031 A 
HETATM   19  C12 UNL     1      22.748   0.576  52.954  1.00  0.00    -0.038 A 
HETATM   20  C17 UNL     1      23.807  -0.757  54.940  1.00  0.00     0.011 C 
HETATM   21  C13 UNL     1      21.387   0.487  53.528  1.00  0.00     0.064 C 
HETATM   22  C14 UNL     1      21.030  -0.913  53.815  1.00  0.00    -0.022 C 
HETATM   23  C15 UNL     1      21.559  -1.907  54.555  1.00  0.00    -0.004 C 
HETATM   24  C16 UNL     1      22.810  -1.609  55.296  1.00  0.00     0.001 C 
ENDBRANCH   9  15
BRANCH  12  25
HETATM   25  N4  UNL     1      21.529   1.371  49.737  1.00  0.00    -0.246 NA
HETATM   26  H19 UNL     1      20.745   1.487  50.425  1.00  0.00     0.143 HD
HETATM   27  H20 UNL     1      21.125   0.906  48.865  1.00  0.00     0.143 HD
ENDBRANCH  12  25
BRANCH   1  28
HETATM   28  O1  UNL     1      21.981   4.894  45.235  1.00  0.00    -0.381 OA
HETATM   29  C1  UNL     1      21.008   4.006  44.737  1.00  0.00     0.202 C 
ENDBRANCH   1  28
TORSDOF 3
ENDMDL
MODEL 4
REMARK VINA RESULT:      -8.1      3.065      7.504
REMARK  3 active torsions:
REMARK  status: ('A' for Active; 'I' for Inactive)
REMARK    1  A    between atoms: O1_2  and  C2_3 
REMARK    2  A    between atoms: N2_11  and  C8_12 
REMARK    3  A    between atoms: N3_24  and  N4_25 
ROOT
HETATM    1  C2  UNL     1      20.463   7.466  49.956  1.00  0.00     0.101 C 
HETATM    2  C3  UNL     1      20.062   6.381  49.299  1.00  0.00     0.058 C 
HETATM    3  C4  UNL     1      19.205   5.626  48.391  1.00  0.00     0.006 C 
HETATM    4  C5  UNL     1      19.557   4.371  48.275  1.00  0.00     0.132 C 
HETATM    5  O2  UNL     1      20.029   3.015  48.221  1.00  0.00    -0.349 OA
HETATM    6  C6  UNL     1      20.989   2.646  49.155  1.00  0.00     0.196 C 
HETATM    7  C7  UNL     1      21.764   1.426  49.043  1.00  0.00     0.148 C 
HETATM    8  N1  UNL     1      22.365   1.243  50.215  1.00  0.00    -0.183 NA
HETATM    9  N2  UNL     1      22.866   2.330  50.971  1.00  0.00    -0.241 N 
HETATM   10  C18 UNL     1      22.710   3.630  50.419  1.00  0.00     0.136 C 
HETATM   11  C19 UNL     1      22.111   3.667  49.202  1.00  0.00     0.062 C 
HETATM   12  N3  UNL     1      22.993   4.935  51.025  1.00  0.00    -0.299 N 
HETATM   13  C20 UNL     1      21.927   5.727  50.528  1.00  0.00     0.148 C 
HETATM   14  C21 UNL     1      21.699   7.147  50.816  1.00  0.00     0.063 C 
ENDROOT
BRANCH   9  15
HETATM   15  C8  UNL     1      23.572   2.292  52.214  1.00  0.00     0.165 A 
HETATM   16  C9  UNL     1      22.784   1.282  53.030  1.00  0.00     0.006 A 
HETATM   17  C10 UNL     1      23.447   0.214  53.364  1.00  0.00     0.010 A 
HETATM   18  C11 UNL     1      24.784   0.372  52.800  1.00  0.00    -0.031 A 
HETATM   19  C12 UNL     1      24.860   1.549  52.140  1.00  0.00    -0.038 A 
HETATM   20  C17 UNL     1      25.748  -0.727  53.073  1.00  0.00     0.011 C 
HETATM   21  C13 UNL     1      26.133   1.841  51.443  1.00  0.00     0.064 C 
HETATM   22  C14 UNL     1      27.271   1.762  52.376  1.00  0.00    -0.022 C 
HETATM   23  C15 UNL     1      27.774   0.823  53.201  1.00  0.00    -0.004 C 
HETATM   24  C16 UNL     1      27.074  -0.485  53.247  1.00  0.00     0.001 C 
ENDBRANCH   9  15
BRANCH  12  25
HETATM   25  N4  UNL     1      24.124   4.846  51.808  1.00  0.00    -0.246 NA
HETATM   26  H19 UNL     1      24.371   5.830  52.077  1.00  0.00     0.143 HD
HETATM   27  H20 UNL     1      23.936   4.305  52.709  1.00  0.00     0.143 HD
ENDBRANCH  12  25
BRANCH   1  28
HETATM   28  O1  UNL     1      20.291   8.815  50.247  1.00  0.00    -0.381 OA
HETATM   29  C1  UNL     1      19.222   9.586  49.751  1.00  0.00     0.202 C 
ENDBRANCH   1  28
TORSDOF 3
ENDMDL
MODEL 5
REMARK VINA RESULT:      -8.0      2.165      4.640
REMARK  3 active torsions:
REMARK  status: ('A' for Active; 'I' for Inactive)
REMARK    1  A    between atoms: O1_2  and  C2_3 
REMARK    2  A    between atoms: N2_11  and  C8_12 
REMARK    3  A    between atoms: N3_24  and  N4_25 
ROOT
HETATM    1  C2  UNL     1      19.371  -0.904  53.401  1.00  0.00     0.101 C 
HETATM    2  C3  UNL     1      20.653  -0.952  53.755  1.00  0.00     0.058 C 
HETATM    3  C4  UNL     1      21.802  -1.459  54.499  1.00  0.00     0.006 C 
HETATM    4  C5  UNL     1      22.917  -0.840  54.206  1.00  0.00     0.132 C 
HETATM    5  O2  UNL     1      24.083  -0.098  53.811  1.00  0.00    -0.349 OA
HETATM    6  C6  UNL     1      23.873   1.036  53.036  1.00  0.00     0.196 C 
HETATM    7  C7  UNL     1      24.941   1.709  52.325  1.00  0.00     0.148 C 
HETATM    8  N1  UNL     1      24.460   2.884  51.931  1.00  0.00    -0.183 NA
HETATM    9  N2  UNL     1      23.121   3.030  51.495  1.00  0.00    -0.241 N 
HETATM   10  C18 UNL     1      22.312   1.863  51.485  1.00  0.00     0.136 C 
HETATM   11  C19 UNL     1      22.941   0.727  51.879  1.00  0.00     0.062 C 
HETATM   12  N3  UNL     1      20.874   1.735  51.227  1.00  0.00    -0.299 N 
HETATM   13  C20 UNL     1      20.499   0.727  52.151  1.00  0.00     0.148 C 
HETATM   14  C21 UNL     1      19.148   0.187  52.340  1.00  0.00     0.063 C 
ENDROOT
BRANCH   9  15
HETATM   15  C8  UNL     1      22.476   4.207  51.000  1.00  0.00     0.165 A 
HETATM   16  C9  UNL     1      23.010   5.304  51.906  1.00  0.00     0.006 A 
HETATM   17  C10 UNL     1      23.709   6.218  51.302  1.00  0.00     0.010 A 
HETATM   18  C11 UNL     1      23.739   5.843  49.891  1.00  0.00    -0.031 A 
HETATM   19  C12 UNL     1      23.045   4.697  49.713  1.00  0.00    -0.038 A 
HETATM   20  C17 UNL     1      24.471   6.763  48.980  1.00  0.00     0.011 C 
HETATM   21  C13 UNL     1      23.031   4.132  48.345  1.00  0.00     0.064 C 
HETATM   22  C14 UNL     1      22.538   5.124  47.374  1.00  0.00    -0.022 C 
HETATM   23  C15 UNL     1      22.896   6.370  47.007  1.00  0.00    -0.004 C 
HETATM   24  C16 UNL     1      24.063   6.972  47.701  1.00  0.00     0.001 C 
ENDBRANCH   9  15
BRANCH  12  25
HETATM   25  N4  UNL     1      20.499   2.624  50.242  1.00  0.00    -0.246 NA
HETATM   26  H19 UNL     1      20.506   3.573  50.688  1.00  0.00     0.143 HD
HETATM   27  H20 UNL     1      21.205   2.641  49.440  1.00  0.00     0.143 HD
ENDBRANCH  12  25
BRANCH   1  28
HETATM   28  O1  UNL     1      18.078  -1.395  53.539  1.00  0.00    -0.381 OA
HETATM   29  C1  UNL     1      17.778  -2.762  53.694  1.00  0.00     0.202 C 
ENDBRANCH   1  28
TORSDOF 3
ENDMDL
MODEL 6
REMARK VINA RESULT:      -7.6      2.668      5.165
REMARK  3 active torsions:
REMARK  status: ('A' for Active; 'I' for Inactive)
REMARK    1  A    between atoms: O1_2  and  C2_3 
REMARK    2  A    between atoms: N2_11  and  C8_12 
REMARK    3  A    between atoms: N3_24  and  N4_25 
ROOT
HETATM    1  C2  UNL     1      18.754   0.279  50.907  1.00  0.00     0.101 C 
HETATM    2  C3  UNL     1      19.591   0.240  51.941  1.00  0.00     0.058 C 
HETATM    3  C4  UNL     1      20.000  -0.102  53.299  1.00  0.00     0.006 C 
HETATM    4  C5  UNL     1      21.211   0.303  53.589  1.00  0.00     0.132 C 
HETATM    5  O2  UNL     1      22.546   0.789  53.802  1.00  0.00    -0.349 OA
HETATM    6  C6  UNL     1      23.067   1.639  52.834  1.00  0.00     0.196 C 
HETATM    7  C7  UNL     1      24.476   1.970  52.756  1.00  0.00     0.148 C 
HETATM    8  N1  UNL     1      24.583   2.999  51.922  1.00  0.00    -0.183 NA
HETATM    9  N2  UNL     1      23.768   3.111  50.770  1.00  0.00    -0.241 N 
HETATM   10  C18 UNL     1      22.834   2.067  50.534  1.00  0.00     0.136 C 
HETATM   11  C19 UNL     1      22.855   1.063  51.446  1.00  0.00     0.062 C 
HETATM   12  N3  UNL     1      21.776   1.982  49.521  1.00  0.00    -0.299 N 
HETATM   13  C20 UNL     1      20.733   1.345  50.240  1.00  0.00     0.148 C 
HETATM   14  C21 UNL     1      19.407   1.001  49.715  1.00  0.00     0.063 C 
ENDROOT
BRANCH   9  15
HETATM   15  C8  UNL     1      23.798   4.123  49.760  1.00  0.00     0.165 A 
HETATM   16  C9  UNL     1      22.859   5.186  50.306  1.00  0.00     0.006 A 
HETATM   17  C10 UNL     1      23.418   6.332  50.557  1.00  0.00     0.010 A 
HETATM   18  C11 UNL     1      24.829   6.181  50.212  1.00  0.00    -0.031 A 
HETATM   19  C12 UNL     1      25.053   4.926  49.764  1.00  0.00    -0.038 A 
HETATM   20  C17 UNL     1      25.683   7.384  50.393  1.00  0.00     0.011 C 
HETATM   21  C13 UNL     1      26.453   4.576  49.433  1.00  0.00     0.064 C 
HETATM   22  C14 UNL     1      27.010   5.522  48.450  1.00  0.00    -0.022 C 
HETATM   23  C15 UNL     1      27.181   6.857  48.391  1.00  0.00    -0.004 C 
HETATM   24  C16 UNL     1      26.723   7.652  49.559  1.00  0.00     0.001 C 
ENDBRANCH   9  15
BRANCH  12  25
HETATM   25  N4  UNL     1      22.216   2.548  48.344  1.00  0.00    -0.246 NA
HETATM   26  H19 UNL     1      23.213   2.242  48.228  1.00  0.00     0.143 HD
HETATM   27  H20 UNL     1      21.668   2.180  47.504  1.00  0.00     0.143 HD
ENDBRANCH  12  25
BRANCH   1  28
HETATM   28  O1  UNL     1      17.514  -0.038  50.365  1.00  0.00    -0.381 OA
HETATM   29  C1  UNL     1      16.566   0.928  49.977  1.00  0.00     0.202 C 
ENDBRANCH   1  28
TORSDOF 3
ENDMDL
MODEL 7
REMARK VINA RESULT:      -7.4      3.321      7.955
REMARK  3 active torsions:
REMARK  status: ('A' for Active; 'I' for Inactive)
REMARK    1  A    between atoms: O1_2  and  C2_3 
REMARK    2  A    between atoms: N2_11  and  C8_12 
REMARK    3  A    between atoms: N3_24  and  N4_25 
ROOT
HETATM    1  C2  UNL     1      20.709   7.166  49.143  1.00  0.00     0.101 C 
HETATM    2  C3  UNL     1      20.462   6.082  48.412  1.00  0.00     0.058 C 
HETATM    3  C4  UNL     1      19.931   5.353  47.265  1.00  0.00     0.006 C 
HETATM    4  C5  UNL     1      20.149   4.064  47.330  1.00  0.00     0.132 C 
HETATM    5  O2  UNL     1      20.440   2.667  47.500  1.00  0.00    -0.349 OA
HETATM    6  C6  UNL     1      20.920   2.272  48.742  1.00  0.00     0.196 C 
HETATM    7  C7  UNL     1      21.528   0.976  48.973  1.00  0.00     0.148 C 
HETATM    8  N1  UNL     1      21.611   0.820  50.290  1.00  0.00    -0.183 NA
HETATM    9  N2  UNL     1      21.912   1.903  51.150  1.00  0.00    -0.241 N 
HETATM   10  C18 UNL     1      22.135   3.169  50.544  1.00  0.00     0.136 C 
HETATM   11  C19 UNL     1      22.053   3.177  49.190  1.00  0.00     0.062 C 
HETATM   12  N3  UNL     1      22.319   4.479  51.177  1.00  0.00    -0.299 N 
HETATM   13  C20 UNL     1      21.626   5.335  50.284  1.00  0.00     0.148 C 
HETATM   14  C21 UNL     1      21.477   6.789  50.422  1.00  0.00     0.063 C 
ENDROOT
BRANCH   9  15
HETATM   15  C8  UNL     1      22.081   1.884  52.570  1.00  0.00     0.165 A 
HETATM   16  C9  UNL     1      20.657   1.787  53.089  1.00  0.00     0.006 A 
HETATM   17  C10 UNL     1      20.393   0.703  53.757  1.00  0.00     0.010 A 
HETATM   18  C11 UNL     1      21.625  -0.081  53.766  1.00  0.00    -0.031 A 
HETATM   19  C12 UNL     1      22.587   0.583  53.088  1.00  0.00    -0.038 A 
HETATM   20  C17 UNL     1      21.578  -1.372  54.502  1.00  0.00     0.011 C 
HETATM   21  C13 UNL     1      23.890  -0.104  52.939  1.00  0.00     0.064 C 
HETATM   22  C14 UNL     1      24.433  -0.487  54.253  1.00  0.00    -0.022 C 
HETATM   23  C15 UNL     1      24.003  -1.229  55.293  1.00  0.00    -0.004 C 
HETATM   24  C16 UNL     1      22.660  -1.850  55.172  1.00  0.00     0.001 C 
ENDBRANCH   9  15
BRANCH  12  25
HETATM   25  N4  UNL     1      23.048   4.334  52.338  1.00  0.00    -0.246 NA
HETATM   26  H19 UNL     1      23.485   3.381  52.290  1.00  0.00     0.143 HD
HETATM   27  H20 UNL     1      23.841   5.048  52.394  1.00  0.00     0.143 HD
ENDBRANCH  12  25
BRANCH   1  28
HETATM   28  O1  UNL     1      20.601   8.542  49.307  1.00  0.00    -0.381 OA
HETATM   29  C1  UNL     1      19.634   9.153  50.128  1.00  0.00     0.202 C 
ENDBRANCH   1  28
TORSDOF 3
ENDMDL
MODEL 8
REMARK VINA RESULT:      -7.4      2.715      7.482
REMARK  3 active torsions:
REMARK  status: ('A' for Active; 'I' for Inactive)
REMARK    1  A    between atoms: O1_2  and  C2_3 
REMARK    2  A    between atoms: N2_11  and  C8_12 
REMARK    3  A    between atoms: N3_24  and  N4_25 
ROOT
HETATM    1  C2  UNL     1      22.834   7.453  47.640  1.00  0.00     0.101 C 
HETATM    2  C3  UNL     1      22.152   6.408  47.178  1.00  0.00     0.058 C 
HETATM    3  C4  UNL     1      21.216   5.729  46.288  1.00  0.00     0.006 C 
HETATM    4  C5  UNL     1      21.078   4.456  46.562  1.00  0.00     0.132 C 
HETATM    5  O2  UNL     1      21.001   3.074  46.948  1.00  0.00    -0.349 OA
HETATM    6  C6  UNL     1      21.600   2.723  48.151  1.00  0.00     0.196 C 
HETATM    7  C7  UNL     1      21.861   1.347  48.526  1.00  0.00     0.148 C 
HETATM    8  N1  UNL     1      22.167   1.353  49.820  1.00  0.00    -0.183 NA
HETATM    9  N2  UNL     1      22.927   2.398  50.399  1.00  0.00    -0.241 N 
HETATM   10  C18 UNL     1      23.359   3.440  49.536  1.00  0.00     0.136 C 
HETATM   11  C19 UNL     1      23.005   3.289  48.235  1.00  0.00     0.062 C 
HETATM   12  N3  UNL     1      24.025   4.704  49.870  1.00  0.00    -0.299 N 
HETATM   13  C20 UNL     1      23.426   5.602  48.950  1.00  0.00     0.148 C 
HETATM   14  C21 UNL     1      23.715   7.036  48.830  1.00  0.00     0.063 C 
ENDROOT
BRANCH   9  15
HETATM   15  C8  UNL     1      23.374   2.521  51.752  1.00  0.00     0.165 A 
HETATM   16  C9  UNL     1      22.154   2.114  52.560  1.00  0.00     0.006 A 
HETATM   17  C10 UNL     1      22.312   1.048  53.288  1.00  0.00     0.010 A 
HETATM   18  C11 UNL     1      23.679   0.593  53.052  1.00  0.00    -0.031 A 
HETATM   19  C12 UNL     1      24.287   1.423  52.175  1.00  0.00    -0.038 A 
HETATM   20  C17 UNL     1      24.109  -0.615  53.804  1.00  0.00     0.011 C 
HETATM   21  C13 UNL     1      25.665   1.068  51.768  1.00  0.00     0.064 C 
HETATM   22  C14 UNL     1      26.538   0.922  52.946  1.00  0.00    -0.022 C 
HETATM   23  C15 UNL     1      26.525   0.173  54.065  1.00  0.00    -0.004 C 
HETATM   24  C16 UNL     1      25.388  -0.765  54.240  1.00  0.00     0.001 C 
ENDBRANCH   9  15
BRANCH  12  25
HETATM   25  N4  UNL     1      24.909   4.501  50.908  1.00  0.00    -0.246 NA
HETATM   26  H19 UNL     1      24.407   3.897  51.604  1.00  0.00     0.143 HD
HETATM   27  H20 UNL     1      25.776   3.967  50.585  1.00  0.00     0.143 HD
ENDBRANCH  12  25
BRANCH   1  28
HETATM   28  O1  UNL     1      23.146   8.805  47.553  1.00  0.00    -0.381 OA
HETATM   29  C1  UNL     1      24.466   9.297  47.516  1.00  0.00     0.202 C 
ENDBRANCH   1  28
TORSDOF 3
ENDMDL
MODEL 9
REMARK VINA RESULT:      -7.3      3.155      7.612
REMARK  3 active torsions:
REMARK  status: ('A' for Active; 'I' for Inactive)
REMARK    1  A    between atoms: O1_2  and  C2_3 
REMARK    2  A    between atoms: N2_11  and  C8_12 
REMARK    3  A    between atoms: N3_24  and  N4_25 
ROOT
HETATM    1  C2  UNL     1      19.924   5.163  46.983  1.00  0.00     0.101 C 
HETATM    2  C3  UNL     1      20.191   5.927  48.039  1.00  0.00     0.058 C 
HETATM    3  C4  UNL     1      20.156   7.157  48.824  1.00  0.00     0.006 C 
HETATM    4  C5  UNL     1      20.781   7.053  49.970  1.00  0.00     0.132 C 
HETATM    5  O2  UNL     1      21.490   6.831  51.200  1.00  0.00    -0.349 OA
HETATM    6  C6  UNL     1      22.225   5.656  51.298  1.00  0.00     0.196 C 
HETATM    7  C7  UNL     1      22.742   5.158  52.557  1.00  0.00     0.148 C 
HETATM    8  N1  UNL     1      23.614   4.199  52.262  1.00  0.00    -0.183 NA
HETATM    9  N2  UNL     1      23.399   3.306  51.184  1.00  0.00    -0.241 N 
HETATM   10  C18 UNL     1      22.204   3.470  50.435  1.00  0.00     0.136 C 
HETATM   11  C19 UNL     1      21.389   4.465  50.867  1.00  0.00     0.062 C 
HETATM   12  N3  UNL     1      21.786   2.801  49.198  1.00  0.00    -0.299 N 
HETATM   13  C20 UNL     1      21.137   3.852  48.501  1.00  0.00     0.148 C 
HETATM   14  C21 UNL     1      20.514   3.755  47.176  1.00  0.00     0.063 C 
ENDROOT
BRANCH   9  15
HETATM   15  C8  UNL     1      24.213   2.203  50.774  1.00  0.00     0.165 A 
HETATM   16  C9  UNL     1      25.408   2.876  50.121  1.00  0.00     0.006 A 
HETATM   17  C10 UNL     1      26.546   2.658  50.711  1.00  0.00     0.010 A 
HETATM   18  C11 UNL     1      26.254   1.802  51.858  1.00  0.00    -0.031 A 
HETATM   19  C12 UNL     1      24.928   1.544  51.903  1.00  0.00    -0.038 A 
HETATM   20  C17 UNL     1      27.419   1.391  52.685  1.00  0.00     0.011 C 
HETATM   21  C13 UNL     1      24.445   0.742  53.049  1.00  0.00     0.064 C 
HETATM   22  C14 UNL     1      25.166  -0.539  53.133  1.00  0.00    -0.022 C 
HETATM   23  C15 UNL     1      26.457  -0.911  53.237  1.00  0.00    -0.004 C 
HETATM   24  C16 UNL     1      27.472   0.172  53.284  1.00  0.00     0.001 C 
ENDBRANCH   9  15
BRANCH  12  25
HETATM   25  N4  UNL     1      22.196   1.485  49.222  1.00  0.00    -0.246 NA
HETATM   26  H19 UNL     1      21.656   1.026  49.995  1.00  0.00     0.143 HD
HETATM   27  H20 UNL     1      21.948   0.981  48.313  1.00  0.00     0.143 HD
ENDBRANCH  12  25
BRANCH   1  28
HETATM   28  O1  UNL     1      19.336   5.023  45.731  1.00  0.00    -0.381 OA
HETATM   29  C1  UNL     1      19.726   4.046  44.794  1.00  0.00     0.202 C 
ENDBRANCH   1  28
TORSDOF 3
ENDMDL
