MODEL 1
REMARK VINA RESULT:      -6.8      0.000      0.000
REMARK  7 active torsions:
REMARK  status: ('A' for Active; 'I' for Inactive)
REMARK    1  A    between atoms: C2_2  and  C3_3 
REMARK    2  A    between atoms: C3_3  and  C4_4 
REMARK    3  A    between atoms: C7_11  and  N4_12 
REMARK    4  A    between atoms: N4_12  and  C8_13 
REMARK    5  A    between atoms: C8_13  and  C9_14 
REMARK    6  A    between atoms: C8_13  and  C11_17 
REMARK    7  A    between atoms: C9_14  and  O1_15 
ROOT
HETATM    1  C4  UNL     1      21.727   0.383  51.965  1.00  0.00     0.031 A 
HETATM    2  N1  UNL     1      20.334   0.364  51.737  1.00  0.00    -0.229 NA
HETATM    3  S1  UNL     1      19.636  -0.499  53.161  1.00  0.00    -0.089 SA
HETATM    4  C5  UNL     1      21.231  -0.771  53.945  1.00  0.00     0.113 A 
HETATM    5  N2  UNL     1      21.668  -1.353  55.073  1.00  0.00    -0.234 NA
HETATM    6  C6  UNL     1      22.942  -1.418  55.427  1.00  0.00     0.236 A 
HETATM    7  N3  UNL     1      23.895  -0.891  54.659  1.00  0.00    -0.224 NA
HETATM    8  C7  UNL     1      23.564  -0.288  53.514  1.00  0.00     0.140 A 
HETATM    9  C17 UNL     1      22.235  -0.233  53.167  1.00  0.00     0.067 A 
HETATM   10  H7  UNL     1      19.336   0.239  51.778  1.00  0.00     0.229 HD
ENDROOT
BRANCH   8  11
HETATM   11  N4  UNL     1      24.635   0.275  52.732  1.00  0.00    -0.363 N 
HETATM   12  H9  UNL     1      25.194   0.144  51.886  1.00  0.00     0.162 HD
BRANCH  11  13
HETATM   13  C8  UNL     1      25.260   1.497  53.224  1.00  0.00     0.140 C 
BRANCH  13  14
HETATM   14  C9  UNL     1      26.720   1.285  53.363  1.00  0.00     0.197 C 
BRANCH  14  15
HETATM   15  O1  UNL     1      27.377   2.189  54.207  1.00  0.00    -0.394 OA
HETATM   16  C10 UNL     1      28.611   2.421  53.567  1.00  0.00     0.201 C 
ENDBRANCH  14  15
ENDBRANCH  13  14
BRANCH  13  17
HETATM   17  C11 UNL     1      24.816   2.685  52.520  1.00  0.00    -0.034 A 
HETATM   18  C12 UNL     1      23.896   3.634  52.837  1.00  0.00     0.009 A 
HETATM   19  C13 UNL     1      23.602   4.711  52.026  1.00  0.00     0.001 A 
HETATM   20  C14 UNL     1      24.262   4.859  50.823  1.00  0.00     0.000 A 
HETATM   21  C15 UNL     1      25.200   3.920  50.467  1.00  0.00     0.001 A 
HETATM   22  C16 UNL     1      25.488   2.831  51.300  1.00  0.00     0.009 A 
ENDBRANCH  13  17
ENDBRANCH  11  13
ENDBRANCH   8  11
BRANCH   1  23
HETATM   23  C3  UNL     1      22.131   1.018  50.897  1.00  0.00    -0.002 C 
BRANCH  23  24
HETATM   24  C2  UNL     1      21.729   2.129  50.084  1.00  0.00     0.024 C 
HETATM   25  C1  UNL     1      22.411   2.225  48.741  1.00  0.00     0.009 C 
ENDBRANCH  23  24
ENDBRANCH   1  23
TORSDOF 7
ENDMDL
MODEL 2
REMARK VINA RESULT:      -6.7      2.836      5.237
REMARK  7 active torsions:
REMARK  status: ('A' for Active; 'I' for Inactive)
REMARK    1  A    between atoms: C2_2  and  C3_3 
REMARK    2  A    between atoms: C3_3  and  C4_4 
REMARK    3  A    between atoms: C7_11  and  N4_12 
REMARK    4  A    between atoms: N4_12  and  C8_13 
REMARK    5  A    between atoms: C8_13  and  C9_14 
REMARK    6  A    between atoms: C8_13  and  C11_17 
REMARK    7  A    between atoms: C9_14  and  O1_15 
ROOT
HETATM    1  C4  UNL     1      26.688   2.207  52.145  1.00  0.00     0.031 A 
HETATM    2  N1  UNL     1      28.023   2.638  52.311  1.00  0.00    -0.229 NA
HETATM    3  S1  UNL     1      28.665   1.661  53.688  1.00  0.00    -0.089 SA
HETATM    4  C5  UNL     1      27.127   0.763  53.940  1.00  0.00     0.113 A 
HETATM    5  N2  UNL     1      26.690  -0.191  54.777  1.00  0.00    -0.234 NA
HETATM    6  C6  UNL     1      25.468  -0.698  54.749  1.00  0.00     0.236 A 
HETATM    7  N3  UNL     1      24.571  -0.276  53.858  1.00  0.00    -0.224 NA
HETATM    8  C7  UNL     1      24.907   0.671  52.978  1.00  0.00     0.140 A 
HETATM    9  C17 UNL     1      26.182   1.183  53.027  1.00  0.00     0.067 A 
HETATM   10  H7  UNL     1      28.975   2.788  52.600  1.00  0.00     0.229 HD
ENDROOT
BRANCH   8  11
HETATM   11  N4  UNL     1      23.901   1.076  52.030  1.00  0.00    -0.363 N 
HETATM   12  H9  UNL     1      23.639   1.041  51.042  1.00  0.00     0.162 HD
BRANCH  11  13
HETATM   13  C8  UNL     1      22.771   1.847  52.533  1.00  0.00     0.140 C 
BRANCH  13  14
HETATM   14  C9  UNL     1      22.747   3.176  51.879  1.00  0.00     0.197 C 
BRANCH  14  15
HETATM   15  O1  UNL     1      23.382   4.202  52.590  1.00  0.00    -0.394 OA
HETATM   16  C10 UNL     1      23.388   5.288  51.691  1.00  0.00     0.201 C 
ENDBRANCH  14  15
ENDBRANCH  13  14
BRANCH  13  17
HETATM   17  C11 UNL     1      21.534   1.088  52.561  1.00  0.00    -0.034 A 
HETATM   18  C12 UNL     1      20.957   0.334  53.533  1.00  0.00     0.009 A 
HETATM   19  C13 UNL     1      19.756  -0.327  53.373  1.00  0.00     0.001 A 
HETATM   20  C14 UNL     1      19.083  -0.235  52.172  1.00  0.00     0.000 A 
HETATM   21  C15 UNL     1      19.634   0.518  51.164  1.00  0.00     0.001 A 
HETATM   22  C16 UNL     1      20.854   1.184  51.340  1.00  0.00     0.009 A 
ENDBRANCH  13  17
ENDBRANCH  11  13
ENDBRANCH   8  11
BRANCH   1  23
HETATM   23  C3  UNL     1      26.321   2.961  51.144  1.00  0.00    -0.002 C 
BRANCH  23  24
HETATM   24  C2  UNL     1      26.472   3.012  49.718  1.00  0.00     0.024 C 
HETATM   25  C1  UNL     1      26.901   4.350  49.164  1.00  0.00     0.009 C 
ENDBRANCH  23  24
ENDBRANCH   1  23
TORSDOF 7
ENDMDL
MODEL 3
REMARK VINA RESULT:      -6.3      2.257      4.705
REMARK  7 active torsions:
REMARK  status: ('A' for Active; 'I' for Inactive)
REMARK    1  A    between atoms: C2_2  and  C3_3 
REMARK    2  A    between atoms: C3_3  and  C4_4 
REMARK    3  A    between atoms: C7_11  and  N4_12 
REMARK    4  A    between atoms: N4_12  and  C8_13 
REMARK    5  A    between atoms: C8_13  and  C9_14 
REMARK    6  A    between atoms: C8_13  and  C11_17 
REMARK    7  A    between atoms: C9_14  and  O1_15 
ROOT
HETATM    1  C4  UNL     1      22.138   1.087  52.492  1.00  0.00     0.031 A 
HETATM    2  N1  UNL     1      20.826   0.628  52.243  1.00  0.00    -0.229 NA
HETATM    3  S1  UNL     1      19.898   2.099  51.756  1.00  0.00    -0.089 SA
HETATM    4  C5  UNL     1      21.307   3.204  51.920  1.00  0.00     0.113 A 
HETATM    5  N2  UNL     1      21.533   4.516  51.750  1.00  0.00    -0.234 NA
HETATM    6  C6  UNL     1      22.706   5.097  51.944  1.00  0.00     0.236 A 
HETATM    7  N3  UNL     1      23.766   4.388  52.330  1.00  0.00    -0.224 NA
HETATM    8  C7  UNL     1      23.647   3.073  52.527  1.00  0.00     0.140 A 
HETATM    9  C17 UNL     1      22.419   2.492  52.320  1.00  0.00     0.067 A 
HETATM   10  H7  UNL     1      19.851   0.525  52.016  1.00  0.00     0.229 HD
ENDROOT
BRANCH   8  11
HETATM   11  N4  UNL     1      24.831   2.357  52.931  1.00  0.00    -0.363 N 
HETATM   12  H9  UNL     1      25.356   2.028  53.744  1.00  0.00     0.162 HD
BRANCH  11  13
HETATM   13  C8  UNL     1      25.714   1.865  51.881  1.00  0.00     0.140 C 
BRANCH  13  14
HETATM   14  C9  UNL     1      26.362   3.010  51.202  1.00  0.00     0.197 C 
BRANCH  14  15
HETATM   15  O1  UNL     1      26.786   2.764  49.890  1.00  0.00    -0.394 OA
HETATM   16  C10 UNL     1      26.831   4.043  49.298  1.00  0.00     0.201 C 
ENDBRANCH  14  15
ENDBRANCH  13  14
BRANCH  13  17
HETATM   17  C11 UNL     1      26.563   0.772  52.319  1.00  0.00    -0.034 A 
HETATM   18  C12 UNL     1      26.429  -0.576  52.216  1.00  0.00     0.009 A 
HETATM   19  C13 UNL     1      27.357  -1.473  52.703  1.00  0.00     0.001 A 
HETATM   20  C14 UNL     1      28.491  -1.006  53.333  1.00  0.00     0.000 A 
HETATM   21  C15 UNL     1      28.664   0.352  53.458  1.00  0.00     0.001 A 
HETATM   22  C16 UNL     1      27.714   1.252  52.959  1.00  0.00     0.009 A 
ENDBRANCH  13  17
ENDBRANCH  11  13
ENDBRANCH   8  11
BRANCH   1  23
HETATM   23  C3  UNL     1      22.718  -0.033  52.831  1.00  0.00    -0.002 C 
BRANCH  23  24
HETATM   24  C2  UNL     1      23.185  -0.692  54.017  1.00  0.00     0.024 C 
HETATM   25  C1  UNL     1      22.143  -1.492  54.761  1.00  0.00     0.009 C 
ENDBRANCH  23  24
ENDBRANCH   1  23
TORSDOF 7
ENDMDL
MODEL 4
REMARK VINA RESULT:      -6.2      3.536      6.479
REMARK  7 active torsions:
REMARK  status: ('A' for Active; 'I' for Inactive)
REMARK    1  A    between atoms: C2_2  and  C3_3 
REMARK    2  A    between atoms: C3_3  and  C4_4 
REMARK    3  A    between atoms: C7_11  and  N4_12 
REMARK    4  A    between atoms: N4_12  and  C8_13 
REMARK    5  A    between atoms: C8_13  and  C9_14 
REMARK    6  A    between atoms: C8_13  and  C11_17 
REMARK    7  A    between atoms: C9_14  and  O1_15 
ROOT
HETATM    1  C4  UNL     1      26.034   3.493  50.509  1.00  0.00     0.031 A 
HETATM    2  N1  UNL     1      27.071   3.903  49.642  1.00  0.00    -0.229 NA
HETATM    3  S1  UNL     1      26.565   5.531  49.043  1.00  0.00    -0.089 SA
HETATM    4  C5  UNL     1      25.029   5.543  49.977  1.00  0.00     0.113 A 
HETATM    5  N2  UNL     1      23.999   6.391  50.135  1.00  0.00    -0.234 NA
HETATM    6  C6  UNL     1      22.954   6.150  50.911  1.00  0.00     0.236 A 
HETATM    7  N3  UNL     1      22.862   5.015  51.604  1.00  0.00    -0.224 NA
HETATM    8  C7  UNL     1      23.836   4.105  51.517  1.00  0.00     0.140 A 
HETATM    9  C17 UNL     1      24.911   4.377  50.704  1.00  0.00     0.067 A 
HETATM   10  H7  UNL     1      27.677   4.386  49.001  1.00  0.00     0.229 HD
ENDROOT
BRANCH   8  11
HETATM   11  N4  UNL     1      23.687   2.905  52.299  1.00  0.00    -0.363 N 
HETATM   12  H9  UNL     1      24.107   2.357  53.055  1.00  0.00     0.162 HD
BRANCH  11  13
HETATM   13  C8  UNL     1      22.552   2.040  52.001  1.00  0.00     0.140 C 
BRANCH  13  14
HETATM   14  C9  UNL     1      22.607   1.623  50.581  1.00  0.00     0.197 C 
BRANCH  14  15
HETATM   15  O1  UNL     1      21.537   2.057  49.789  1.00  0.00    -0.394 OA
HETATM   16  C10 UNL     1      21.460   1.098  48.760  1.00  0.00     0.201 C 
ENDBRANCH  14  15
ENDBRANCH  13  14
BRANCH  13  17
HETATM   17  C11 UNL     1      22.347   1.007  53.000  1.00  0.00    -0.034 A 
HETATM   18  C12 UNL     1      21.242   0.619  53.688  1.00  0.00     0.009 A 
HETATM   19  C13 UNL     1      21.241  -0.402  54.616  1.00  0.00     0.001 A 
HETATM   20  C14 UNL     1      22.410  -1.083  54.880  1.00  0.00     0.000 A 
HETATM   21  C15 UNL     1      23.551  -0.721  54.205  1.00  0.00     0.001 A 
HETATM   22  C16 UNL     1      23.538   0.318  53.265  1.00  0.00     0.009 A 
ENDBRANCH  13  17
ENDBRANCH  11  13
ENDBRANCH   8  11
BRANCH   1  23
HETATM   23  C3  UNL     1      26.489   2.327  50.882  1.00  0.00    -0.002 C 
BRANCH  23  24
HETATM   24  C2  UNL     1      26.986   1.690  52.068  1.00  0.00     0.024 C 
HETATM   25  C1  UNL     1      26.849   0.187  52.098  1.00  0.00     0.009 C 
ENDBRANCH  23  24
ENDBRANCH   1  23
TORSDOF 7
ENDMDL
MODEL 5
REMARK VINA RESULT:      -6.1      2.196      3.552
REMARK  7 active torsions:
REMARK  status: ('A' for Active; 'I' for Inactive)
REMARK    1  A    between atoms: C2_2  and  C3_3 
REMARK    2  A    between atoms: C3_3  and  C4_4 
REMARK    3  A    between atoms: C7_11  and  N4_12 
REMARK    4  A    between atoms: N4_12  and  C8_13 
REMARK    5  A    between atoms: C8_13  and  C9_14 
REMARK    6  A    between atoms: C8_13  and  C11_17 
REMARK    7  A    between atoms: C9_14  and  O1_15 
ROOT
HETATM    1  C4  UNL     1      23.690  -0.084  53.337  1.00  0.00     0.031 A 
HETATM    2  N1  UNL     1      23.026  -0.745  54.394  1.00  0.00    -0.229 NA
HETATM    3  S1  UNL     1      24.324  -1.153  55.582  1.00  0.00    -0.089 SA
HETATM    4  C5  UNL     1      25.639  -0.424  54.595  1.00  0.00     0.113 A 
HETATM    5  N2  UNL     1      26.967  -0.270  54.716  1.00  0.00    -0.234 NA
HETATM    6  C6  UNL     1      27.728   0.326  53.812  1.00  0.00     0.236 A 
HETATM    7  N3  UNL     1      27.202   0.825  52.694  1.00  0.00    -0.224 NA
HETATM    8  C7  UNL     1      25.888   0.723  52.478  1.00  0.00     0.140 A 
HETATM    9  C17 UNL     1      25.118   0.100  53.431  1.00  0.00     0.067 A 
HETATM   10  H7  UNL     1      22.767  -1.228  55.238  1.00  0.00     0.229 HD
ENDROOT
BRANCH   8  11
HETATM   11  N4  UNL     1      25.375   1.293  51.259  1.00  0.00    -0.363 N 
HETATM   12  H9  UNL     1      24.951   1.063  50.357  1.00  0.00     0.162 HD
BRANCH  11  13
HETATM   13  C8  UNL     1      25.424   2.743  51.118  1.00  0.00     0.140 C 
BRANCH  13  14
HETATM   14  C9  UNL     1      26.128   3.096  49.863  1.00  0.00     0.197 C 
BRANCH  14  15
HETATM   15  O1  UNL     1      27.258   3.907  50.019  1.00  0.00    -0.394 OA
HETATM   16  C10 UNL     1      27.258   4.721  48.868  1.00  0.00     0.201 C 
ENDBRANCH  14  15
ENDBRANCH  13  14
BRANCH  13  17
HETATM   17  C11 UNL     1      24.148   3.383  51.377  1.00  0.00    -0.034 A 
HETATM   18  C12 UNL     1      23.667   4.037  52.467  1.00  0.00     0.009 A 
HETATM   19  C13 UNL     1      22.404   4.588  52.530  1.00  0.00     0.001 A 
HETATM   20  C14 UNL     1      21.560   4.483  51.443  1.00  0.00     0.000 A 
HETATM   21  C15 UNL     1      22.009   3.829  50.321  1.00  0.00     0.001 A 
HETATM   22  C16 UNL     1      23.294   3.275  50.271  1.00  0.00     0.009 A 
ENDBRANCH  13  17
ENDBRANCH  11  13
ENDBRANCH   8  11
BRANCH   1  23
HETATM   23  C3  UNL     1      22.681   0.164  52.545  1.00  0.00    -0.002 C 
BRANCH  23  24
HETATM   24  C2  UNL     1      21.428   0.863  52.578  1.00  0.00     0.024 C 
HETATM   25  C1  UNL     1      20.508   0.589  51.412  1.00  0.00     0.009 C 
ENDBRANCH  23  24
ENDBRANCH   1  23
TORSDOF 7
ENDMDL
MODEL 6
REMARK VINA RESULT:      -6.0      3.380      6.523
REMARK  7 active torsions:
REMARK  status: ('A' for Active; 'I' for Inactive)
REMARK    1  A    between atoms: C2_2  and  C3_3 
REMARK    2  A    between atoms: C3_3  and  C4_4 
REMARK    3  A    between atoms: C7_11  and  N4_12 
REMARK    4  A    between atoms: N4_12  and  C8_13 
REMARK    5  A    between atoms: C8_13  and  C9_14 
REMARK    6  A    between atoms: C8_13  and  C11_17 
REMARK    7  A    between atoms: C9_14  and  O1_15 
ROOT
HETATM    1  C4  UNL     1      25.213   3.134  50.700  1.00  0.00     0.031 A 
HETATM    2  N1  UNL     1      26.344   3.967  50.550  1.00  0.00    -0.229 NA
HETATM    3  S1  UNL     1      25.845   5.226  49.354  1.00  0.00    -0.089 SA
HETATM    4  C5  UNL     1      24.189   4.557  49.142  1.00  0.00     0.113 A 
HETATM    5  N2  UNL     1      23.103   4.873  48.419  1.00  0.00    -0.234 NA
HETATM    6  C6  UNL     1      21.969   4.190  48.448  1.00  0.00     0.236 A 
HETATM    7  N3  UNL     1      21.836   3.116  49.225  1.00  0.00    -0.224 NA
HETATM    8  C7  UNL     1      22.859   2.718  49.986  1.00  0.00     0.140 A 
HETATM    9  C17 UNL     1      24.027   3.442  49.938  1.00  0.00     0.067 A 
HETATM   10  H7  UNL     1      27.011   4.675  50.295  1.00  0.00     0.229 HD
ENDROOT
BRANCH   8  11
HETATM   11  N4  UNL     1      22.652   1.558  50.815  1.00  0.00    -0.363 N 
HETATM   12  H9  UNL     1      22.764   0.542  50.853  1.00  0.00     0.162 HD
BRANCH  11  13
HETATM   13  C8  UNL     1      22.051   1.765  52.127  1.00  0.00     0.140 C 
BRANCH  13  14
HETATM   14  C9  UNL     1      20.610   2.072  51.969  1.00  0.00     0.197 C 
BRANCH  14  15
HETATM   15  O1  UNL     1      20.211   3.326  52.447  1.00  0.00    -0.394 OA
HETATM   16  C10 UNL     1      19.199   3.728  51.551  1.00  0.00     0.201 C 
ENDBRANCH  14  15
ENDBRANCH  13  14
BRANCH  13  17
HETATM   17  C11 UNL     1      22.420   0.743  53.088  1.00  0.00    -0.034 A 
HETATM   18  C12 UNL     1      23.605   0.131  53.349  1.00  0.00     0.009 A 
HETATM   19  C13 UNL     1      23.766  -0.836  54.319  1.00  0.00     0.001 A 
HETATM   20  C14 UNL     1      22.684  -1.225  55.080  1.00  0.00     0.000 A 
HETATM   21  C15 UNL     1      21.467  -0.630  54.847  1.00  0.00     0.001 A 
HETATM   22  C16 UNL     1      21.318   0.351  53.859  1.00  0.00     0.009 A 
ENDBRANCH  13  17
ENDBRANCH  11  13
ENDBRANCH   8  11
BRANCH   1  23
HETATM   23  C3  UNL     1      25.670   2.273  51.569  1.00  0.00    -0.002 C 
BRANCH  23  24
HETATM   24  C2  UNL     1      26.602   1.184  51.623  1.00  0.00     0.024 C 
HETATM   25  C1  UNL     1      27.353   1.043  52.925  1.00  0.00     0.009 C 
ENDBRANCH  23  24
ENDBRANCH   1  23
TORSDOF 7
ENDMDL
MODEL 7
REMARK VINA RESULT:      -5.9      2.854      5.400
REMARK  7 active torsions:
REMARK  status: ('A' for Active; 'I' for Inactive)
REMARK    1  A    between atoms: C2_2  and  C3_3 
REMARK    2  A    between atoms: C3_3  and  C4_4 
REMARK    3  A    between atoms: C7_11  and  N4_12 
REMARK    4  A    between atoms: N4_12  and  C8_13 
REMARK    5  A    between atoms: C8_13  and  C9_14 
REMARK    6  A    between atoms: C8_13  and  C11_17 
REMARK    7  A    between atoms: C9_14  and  O1_15 
ROOT
HETATM    1  C4  UNL     1      24.578   2.972  51.436  1.00  0.00     0.031 A 
HETATM    2  N1  UNL     1      25.000   4.255  51.023  1.00  0.00    -0.229 NA
HETATM    3  S1  UNL     1      23.555   5.317  51.236  1.00  0.00    -0.089 SA
HETATM    4  C5  UNL     1      22.506   3.991  51.849  1.00  0.00     0.113 A 
HETATM    5  N2  UNL     1      21.235   3.877  52.267  1.00  0.00    -0.234 NA
HETATM    6  C6  UNL     1      20.692   2.744  52.683  1.00  0.00     0.236 A 
HETATM    7  N3  UNL     1      21.399   1.615  52.714  1.00  0.00    -0.224 NA
HETATM    8  C7  UNL     1      22.675   1.622  52.320  1.00  0.00     0.140 A 
HETATM    9  C17 UNL     1      23.218   2.810  51.891  1.00  0.00     0.067 A 
HETATM   10  H7  UNL     1      25.083   5.228  50.784  1.00  0.00     0.229 HD
ENDROOT
BRANCH   8  11
HETATM   11  N4  UNL     1      23.393   0.375  52.389  1.00  0.00    -0.363 N 
HETATM   12  H9  UNL     1      23.686  -0.438  51.842  1.00  0.00     0.162 HD
BRANCH  11  13
HETATM   13  C8  UNL     1      23.966  -0.004  53.674  1.00  0.00     0.140 C 
BRANCH  13  14
HETATM   14  C9  UNL     1      23.053  -0.941  54.368  1.00  0.00     0.197 C 
BRANCH  14  15
HETATM   15  O1  UNL     1      22.133  -1.599  53.543  1.00  0.00    -0.394 OA
HETATM   16  C10 UNL     1      20.950  -1.633  54.307  1.00  0.00     0.201 C 
ENDBRANCH  14  15
ENDBRANCH  13  14
BRANCH  13  17
HETATM   17  C11 UNL     1      25.368  -0.371  53.585  1.00  0.00    -0.034 A 
HETATM   18  C12 UNL     1      26.067  -1.048  52.637  1.00  0.00     0.009 A 
HETATM   19  C13 UNL     1      27.419  -1.307  52.727  1.00  0.00     0.001 A 
HETATM   20  C14 UNL     1      28.125  -0.869  53.828  1.00  0.00     0.000 A 
HETATM   21  C15 UNL     1      27.454  -0.180  54.809  1.00  0.00     0.001 A 
HETATM   22  C16 UNL     1      26.081   0.077  54.704  1.00  0.00     0.009 A 
ENDBRANCH  13  17
ENDBRANCH  11  13
ENDBRANCH   8  11
BRANCH   1  23
HETATM   23  C3  UNL     1      25.676   2.291  51.247  1.00  0.00    -0.002 C 
BRANCH  23  24
HETATM   24  C2  UNL     1      27.072   2.383  51.563  1.00  0.00     0.024 C 
HETATM   25  C1  UNL     1      27.387   2.628  53.020  1.00  0.00     0.009 C 
ENDBRANCH  23  24
ENDBRANCH   1  23
TORSDOF 7
ENDMDL
MODEL 8
REMARK VINA RESULT:      -5.8      2.964      5.543
REMARK  7 active torsions:
REMARK  status: ('A' for Active; 'I' for Inactive)
REMARK    1  A    between atoms: C2_2  and  C3_3 
REMARK    2  A    between atoms: C3_3  and  C4_4 
REMARK    3  A    between atoms: C7_11  and  N4_12 
REMARK    4  A    between atoms: N4_12  and  C8_13 
REMARK    5  A    between atoms: C8_13  and  C9_14 
REMARK    6  A    between atoms: C8_13  and  C11_17 
REMARK    7  A    between atoms: C9_14  and  O1_15 
ROOT
HETATM    1  C4  UNL     1      25.137   0.739  52.704  1.00  0.00     0.031 A 
HETATM    2  N1  UNL     1      26.501   1.051  52.897  1.00  0.00    -0.229 NA
HETATM    3  S1  UNL     1      26.956   0.235  54.442  1.00  0.00    -0.089 SA
HETATM    4  C5  UNL     1      25.317  -0.452  54.716  1.00  0.00     0.113 A 
HETATM    5  N2  UNL     1      24.733  -1.218  55.651  1.00  0.00    -0.234 NA
HETATM    6  C6  UNL     1      23.465  -1.595  55.613  1.00  0.00     0.236 A 
HETATM    7  N3  UNL     1      22.669  -1.225  54.610  1.00  0.00    -0.224 NA
HETATM    8  C7  UNL     1      23.155  -0.462  53.627  1.00  0.00     0.140 A 
HETATM    9  C17 UNL     1      24.475  -0.082  53.689  1.00  0.00     0.067 A 
HETATM   10  H7  UNL     1      27.447   1.146  53.226  1.00  0.00     0.229 HD
ENDROOT
BRANCH   8  11
HETATM   11  N4  UNL     1      22.252  -0.105  52.563  1.00  0.00    -0.363 N 
HETATM   12  H9  UNL     1      22.082  -0.205  51.559  1.00  0.00     0.162 HD
BRANCH  11  13
HETATM   13  C8  UNL     1      21.098   0.718  52.904  1.00  0.00     0.140 C 
BRANCH  13  14
HETATM   14  C9  UNL     1      21.219   2.038  52.242  1.00  0.00     0.197 C 
BRANCH  14  15
HETATM   15  O1  UNL     1      20.451   3.062  52.810  1.00  0.00    -0.394 OA
HETATM   16  C10 UNL     1      20.301   3.997  51.765  1.00  0.00     0.201 C 
ENDBRANCH  14  15
ENDBRANCH  13  14
BRANCH  13  17
HETATM   17  C11 UNL     1      19.837   0.011  52.772  1.00  0.00    -0.034 A 
HETATM   18  C12 UNL     1      19.225  -0.905  53.568  1.00  0.00     0.009 A 
HETATM   19  C13 UNL     1      18.006  -1.478  53.271  1.00  0.00     0.001 A 
HETATM   20  C14 UNL     1      17.349  -1.122  52.112  1.00  0.00     0.000 A 
HETATM   21  C15 UNL     1      17.935  -0.199  51.279  1.00  0.00     0.001 A 
HETATM   22  C16 UNL     1      19.174   0.376  51.593  1.00  0.00     0.009 A 
ENDBRANCH  13  17
ENDBRANCH  11  13
ENDBRANCH   8  11
BRANCH   1  23
HETATM   23  C3  UNL     1      24.909   1.365  51.580  1.00  0.00    -0.002 C 
BRANCH  23  24
HETATM   24  C2  UNL     1      25.185   2.637  50.978  1.00  0.00     0.024 C 
HETATM   25  C1  UNL     1      24.339   3.783  51.479  1.00  0.00     0.009 C 
ENDBRANCH  23  24
ENDBRANCH   1  23
TORSDOF 7
ENDMDL
MODEL 9
REMARK VINA RESULT:      -5.7      1.904      4.588
REMARK  7 active torsions:
REMARK  status: ('A' for Active; 'I' for Inactive)
REMARK    1  A    between atoms: C2_2  and  C3_3 
REMARK    2  A    between atoms: C3_3  and  C4_4 
REMARK    3  A    between atoms: C7_11  and  N4_12 
REMARK    4  A    between atoms: N4_12  and  C8_13 
REMARK    5  A    between atoms: C8_13  and  C9_14 
REMARK    6  A    between atoms: C8_13  and  C11_17 
REMARK    7  A    between atoms: C9_14  and  O1_15 
ROOT
HETATM    1  C4  UNL     1      21.012   0.159  52.148  1.00  0.00     0.031 A 
HETATM    2  N1  UNL     1      19.645  -0.170  52.281  1.00  0.00    -0.229 NA
HETATM    3  S1  UNL     1      18.817   0.705  50.935  1.00  0.00    -0.089 SA
HETATM    4  C5  UNL     1      20.333   1.438  50.303  1.00  0.00     0.113 A 
HETATM    5  N2  UNL     1      20.663   2.257  49.292  1.00  0.00    -0.234 NA
HETATM    6  C6  UNL     1      21.899   2.658  49.037  1.00  0.00     0.236 A 
HETATM    7  N3  UNL     1      22.919   2.257  49.795  1.00  0.00    -0.224 NA
HETATM    8  C7  UNL     1      22.697   1.440  50.827  1.00  0.00     0.140 A 
HETATM    9  C17 UNL     1      21.405   1.037  51.073  1.00  0.00     0.067 A 
HETATM   10  H7  UNL     1      18.648  -0.269  52.188  1.00  0.00     0.229 HD
ENDROOT
BRANCH   8  11
HETATM   11  N4  UNL     1      23.841   1.030  51.601  1.00  0.00    -0.363 N 
HETATM   12  H9  UNL     1      24.299   0.221  52.029  1.00  0.00     0.162 HD
BRANCH  11  13
HETATM   13  C8  UNL     1      24.786   2.062  52.007  1.00  0.00     0.140 C 
BRANCH  13  14
HETATM   14  C9  UNL     1      24.098   3.056  52.863  1.00  0.00     0.197 C 
BRANCH  14  15
HETATM   15  O1  UNL     1      24.032   4.352  52.338  1.00  0.00    -0.394 OA
HETATM   16  C10 UNL     1      22.679   4.717  52.495  1.00  0.00     0.201 C 
ENDBRANCH  14  15
ENDBRANCH  13  14
BRANCH  13  17
HETATM   17  C11 UNL     1      26.047   1.522  52.483  1.00  0.00    -0.034 A 
HETATM   18  C12 UNL     1      27.171   2.124  52.950  1.00  0.00     0.009 A 
HETATM   19  C13 UNL     1      28.291   1.433  53.363  1.00  0.00     0.001 A 
HETATM   20  C14 UNL     1      28.299   0.055  53.308  1.00  0.00     0.000 A 
HETATM   21  C15 UNL     1      27.181  -0.593  52.841  1.00  0.00     0.001 A 
HETATM   22  C16 UNL     1      26.050   0.122  52.426  1.00  0.00     0.009 A 
ENDBRANCH  13  17
ENDBRANCH  11  13
ENDBRANCH   8  11
BRANCH   1  23
HETATM   23  C3  UNL     1      21.514  -0.511  53.150  1.00  0.00    -0.002 C 
BRANCH  23  24
HETATM   24  C2  UNL     1      21.623  -0.402  54.576  1.00  0.00     0.024 C 
HETATM   25  C1  UNL     1      22.757  -1.182  55.197  1.00  0.00     0.009 C 
ENDBRANCH  23  24
ENDBRANCH   1  23
TORSDOF 7
ENDMDL
