MODEL 1
REMARK VINA RESULT:      -9.2      0.000      0.000
REMARK  5 active torsions:
REMARK  status: ('A' for Active; 'I' for Inactive)
REMARK    1  A    between atoms: C6_7  and  C7_8 
REMARK    2  A    between atoms: C7_8  and  O1_9 
REMARK    3  A    between atoms: O1_9  and  C8_10 
REMARK    4  A    between atoms: C13_17  and  N4_18 
REMARK    5  A    between atoms: N4_18  and  C14_19 
ROOT
HETATM    1  C8  UNL     1      23.862  -0.854  54.509  1.00  0.00     0.181 A 
HETATM    2  C9  UNL     1      23.602  -0.157  53.416  1.00  0.00     0.081 A 
HETATM    3  C10 UNL     1      22.230  -0.051  52.942  1.00  0.00     0.041 A 
HETATM    4  C11 UNL     1      21.344  -0.728  53.745  1.00  0.00     0.074 A 
HETATM    5  N2  UNL     1      20.028  -0.703  53.406  1.00  0.00    -0.243 NA
HETATM    6  C12 UNL     1      19.613  -0.043  52.331  1.00  0.00     0.235 A 
HETATM    7  N3  UNL     1      20.522   0.597  51.591  1.00  0.00    -0.224 NA
HETATM    8  C13 UNL     1      21.818   0.635  51.831  1.00  0.00     0.141 A 
HETATM    9  C20 UNL     1      21.574  -1.510  54.957  1.00  0.00     0.238 A 
HETATM   10  O2  UNL     1      22.938  -1.522  55.288  1.00  0.00    -0.324 OA
ENDROOT
BRANCH   1  11
HETATM   11  O1  UNL     1      25.184  -0.961  54.971  1.00  0.00    -0.328 OA
BRANCH  11  12
HETATM   12  C7  UNL     1      26.004   0.181  55.137  1.00  0.00     0.213 C 
BRANCH  12  13
HETATM   13  C6  UNL     1      27.402  -0.114  54.642  1.00  0.00     0.248 C 
HETATM   14  C2  UNL     1      27.394  -0.927  53.371  1.00  0.00     0.017 C 
HETATM   15  C1  UNL     1      26.951  -0.020  52.243  1.00  0.00     0.012 C 
HETATM   16  C3  UNL     1      28.808  -1.354  53.082  1.00  0.00     0.008 C 
HETATM   17  C4  UNL     1      29.881  -0.522  53.655  1.00  0.00     0.030 C 
HETATM   18  C5  UNL     1      29.513   0.791  54.208  1.00  0.00     0.270 C 
HETATM   19  N1  UNL     1      28.134   1.092  54.335  1.00  0.00     0.090 N 
HETATM   20  H11 UNL     1      27.799   1.627  53.535  1.00  0.00     0.316 HD
ENDBRANCH  12  13
ENDBRANCH  11  12
ENDBRANCH   1  11
BRANCH   8  21
HETATM   21  N4  UNL     1      22.792   1.303  51.064  1.00  0.00    -0.340 N 
HETATM   22  H17 UNL     1      23.313   0.831  50.318  1.00  0.00     0.167 HD
BRANCH  21  23
HETATM   23  C14 UNL     1      23.229   2.643  51.137  1.00  0.00     0.035 A 
HETATM   24  C15 UNL     1      22.839   3.579  52.098  1.00  0.00     0.032 A 
HETATM   25  C16 UNL     1      23.279   4.863  52.142  1.00  0.00     0.046 A 
HETATM   26  C17 UNL     1      24.167   5.339  51.208  1.00  0.00     0.138 A 
HETATM   27  F1  UNL     1      24.543   6.630  51.337  1.00  0.00    -0.204 F 
HETATM   28  C18 UNL     1      24.592   4.469  50.230  1.00  0.00     0.074 A 
HETATM   29 CL1  UNL     1      25.716   5.109  49.066  1.00  0.00    -0.081 Cl
HETATM   30  C19 UNL     1      24.117   3.176  50.230  1.00  0.00     0.056 A 
ENDBRANCH  21  23
ENDBRANCH   8  21
TORSDOF 5
ENDMDL
MODEL 2
REMARK VINA RESULT:      -8.9      3.580      6.921
REMARK  5 active torsions:
REMARK  status: ('A' for Active; 'I' for Inactive)
REMARK    1  A    between atoms: C6_7  and  C7_8 
REMARK    2  A    between atoms: C7_8  and  O1_9 
REMARK    3  A    between atoms: O1_9  and  C8_10 
REMARK    4  A    between atoms: C13_17  and  N4_18 
REMARK    5  A    between atoms: N4_18  and  C14_19 
ROOT
HETATM    1  C8  UNL     1      22.441   3.565  51.583  1.00  0.00     0.181 A 
HETATM    2  C9  UNL     1      23.642   3.183  51.984  1.00  0.00     0.081 A 
HETATM    3  C10 UNL     1      24.795   3.419  51.126  1.00  0.00     0.041 A 
HETATM    4  C11 UNL     1      24.454   4.045  49.951  1.00  0.00     0.074 A 
HETATM    5  N2  UNL     1      25.446   4.322  49.064  1.00  0.00    -0.243 NA
HETATM    6  C12 UNL     1      26.706   3.996  49.327  1.00  0.00     0.235 A 
HETATM    7  N3  UNL     1      26.974   3.390  50.487  1.00  0.00    -0.224 NA
HETATM    8  C13 UNL     1      26.089   3.078  51.413  1.00  0.00     0.141 A 
HETATM    9  C20 UNL     1      23.152   4.489  49.459  1.00  0.00     0.238 A 
HETATM   10  O2  UNL     1      22.143   4.193  50.390  1.00  0.00    -0.324 OA
ENDROOT
BRANCH   1  11
HETATM   11  O1  UNL     1      21.326   3.340  52.406  1.00  0.00    -0.328 OA
BRANCH  11  12
HETATM   12  C7  UNL     1      20.623   2.111  52.378  1.00  0.00     0.213 C 
BRANCH  12  13
HETATM   13  C6  UNL     1      21.409   1.054  53.120  1.00  0.00     0.248 C 
HETATM   14  C2  UNL     1      20.567   0.339  54.149  1.00  0.00     0.017 C 
HETATM   15  C1  UNL     1      19.612  -0.576  53.413  1.00  0.00     0.012 C 
HETATM   16  C3  UNL     1      21.479  -0.526  54.977  1.00  0.00     0.008 C 
HETATM   17  C4  UNL     1      22.745  -0.944  54.350  1.00  0.00     0.030 C 
HETATM   18  C5  UNL     1      22.897  -0.736  52.901  1.00  0.00     0.270 C 
HETATM   19  N1  UNL     1      21.905   0.026  52.235  1.00  0.00     0.090 N 
HETATM   20  H11 UNL     1      21.202  -0.577  51.810  1.00  0.00     0.316 HD
ENDBRANCH  12  13
ENDBRANCH  11  12
ENDBRANCH   1  11
BRANCH   8  21
HETATM   21  N4  UNL     1      26.351   2.439  52.640  1.00  0.00    -0.340 N 
HETATM   22  H17 UNL     1      25.842   2.679  53.497  1.00  0.00     0.167 HD
BRANCH  21  23
HETATM   23  C14 UNL     1      27.282   1.422  52.941  1.00  0.00     0.035 A 
HETATM   24  C15 UNL     1      28.548   1.612  53.500  1.00  0.00     0.032 A 
HETATM   25  C16 UNL     1      29.422   0.610  53.779  1.00  0.00     0.046 A 
HETATM   26  C17 UNL     1      29.103  -0.700  53.517  1.00  0.00     0.138 A 
HETATM   27  F1  UNL     1      30.041  -1.621  53.830  1.00  0.00    -0.204 F 
HETATM   28  C18 UNL     1      27.870  -0.959  52.965  1.00  0.00     0.074 A 
HETATM   29 CL1  UNL     1      27.504  -2.630  52.649  1.00  0.00    -0.081 Cl
HETATM   30  C19 UNL     1      27.019   0.092  52.702  1.00  0.00     0.056 A 
ENDBRANCH  21  23
ENDBRANCH   8  21
TORSDOF 5
ENDMDL
MODEL 3
REMARK VINA RESULT:      -8.7      1.854      5.721
REMARK  5 active torsions:
REMARK  status: ('A' for Active; 'I' for Inactive)
REMARK    1  A    between atoms: C6_7  and  C7_8 
REMARK    2  A    between atoms: C7_8  and  O1_9 
REMARK    3  A    between atoms: O1_9  and  C8_10 
REMARK    4  A    between atoms: C13_17  and  N4_18 
REMARK    5  A    between atoms: N4_18  and  C14_19 
ROOT
HETATM    1  C8  UNL     1      24.397  -0.266  53.451  1.00  0.00     0.181 A 
HETATM    2  C9  UNL     1      25.033   0.500  52.581  1.00  0.00     0.081 A 
HETATM    3  C10 UNL     1      26.333   1.057  52.930  1.00  0.00     0.041 A 
HETATM    4  C11 UNL     1      26.740   0.686  54.189  1.00  0.00     0.074 A 
HETATM    5  N2  UNL     1      27.941   1.143  54.632  1.00  0.00    -0.243 NA
HETATM    6  C12 UNL     1      28.697   1.924  53.869  1.00  0.00     0.235 A 
HETATM    7  N3  UNL     1      28.246   2.250  52.654  1.00  0.00    -0.224 NA
HETATM    8  C13 UNL     1      27.100   1.861  52.131  1.00  0.00     0.141 A 
HETATM    9  C20 UNL     1      26.082  -0.154  55.188  1.00  0.00     0.238 A 
HETATM   10  O2  UNL     1      24.845  -0.615  54.710  1.00  0.00    -0.324 OA
ENDROOT
BRANCH   1  11
HETATM   11  O1  UNL     1      23.143  -0.806  53.119  1.00  0.00    -0.328 OA
BRANCH  11  12
HETATM   12  C7  UNL     1      21.939  -0.149  53.469  1.00  0.00     0.213 C 
BRANCH  12  13
HETATM   13  C6  UNL     1      21.635   0.936  52.461  1.00  0.00     0.248 C 
HETATM   14  C2  UNL     1      20.954   0.392  51.229  1.00  0.00     0.017 C 
HETATM   15  C1  UNL     1      19.531   0.038  51.604  1.00  0.00     0.012 C 
HETATM   16  C3  UNL     1      20.894   1.492  50.205  1.00  0.00     0.008 C 
HETATM   17  C4  UNL     1      20.942   2.875  50.714  1.00  0.00     0.030 C 
HETATM   18  C5  UNL     1      20.758   3.082  52.159  1.00  0.00     0.270 C 
HETATM   19  N1  UNL     1      20.742   1.938  52.995  1.00  0.00     0.090 N 
HETATM   20  H11 UNL     1      19.788   1.633  53.182  1.00  0.00     0.316 HD
ENDBRANCH  12  13
ENDBRANCH  11  12
ENDBRANCH   1  11
BRANCH   8  21
HETATM   21  N4  UNL     1      26.607   2.193  50.855  1.00  0.00    -0.340 N 
HETATM   22  H17 UNL     1      26.518   1.496  50.109  1.00  0.00     0.167 HD
BRANCH  21  23
HETATM   23  C14 UNL     1      26.167   3.438  50.358  1.00  0.00     0.035 A 
HETATM   24  C15 UNL     1      26.789   4.186  49.356  1.00  0.00     0.032 A 
HETATM   25  C16 UNL     1      26.340   5.384  48.900  1.00  0.00     0.046 A 
HETATM   26  C17 UNL     1      25.202   5.956  49.417  1.00  0.00     0.138 A 
HETATM   27  F1  UNL     1      24.839   7.149  48.897  1.00  0.00    -0.204 F 
HETATM   28  C18 UNL     1      24.539   5.272  50.410  1.00  0.00     0.074 A 
HETATM   29 CL1  UNL     1      23.104   6.030  51.038  1.00  0.00    -0.081 Cl
HETATM   30  C19 UNL     1      25.036   4.061  50.837  1.00  0.00     0.056 A 
ENDBRANCH  21  23
ENDBRANCH   8  21
TORSDOF 5
ENDMDL
MODEL 4
REMARK VINA RESULT:      -8.6      3.417      6.818
REMARK  5 active torsions:
REMARK  status: ('A' for Active; 'I' for Inactive)
REMARK    1  A    between atoms: C6_7  and  C7_8 
REMARK    2  A    between atoms: C7_8  and  O1_9 
REMARK    3  A    between atoms: O1_9  and  C8_10 
REMARK    4  A    between atoms: C13_17  and  N4_18 
REMARK    5  A    between atoms: N4_18  and  C14_19 
ROOT
HETATM    1  C8  UNL     1      26.765   2.199  51.366  1.00  0.00     0.181 A 
HETATM    2  C9  UNL     1      26.026   1.209  51.837  1.00  0.00     0.081 A 
HETATM    3  C10 UNL     1      26.332   0.643  53.143  1.00  0.00     0.041 A 
HETATM    4  C11 UNL     1      27.409   1.254  53.739  1.00  0.00     0.074 A 
HETATM    5  N2  UNL     1      27.794   0.813  54.966  1.00  0.00    -0.243 NA
HETATM    6  C12 UNL     1      27.147  -0.178  55.569  1.00  0.00     0.235 A 
HETATM    7  N3  UNL     1      26.107  -0.731  54.938  1.00  0.00    -0.224 NA
HETATM    8  C13 UNL     1      25.654  -0.379  53.751  1.00  0.00     0.141 A 
HETATM    9  C20 UNL     1      28.258   2.346  53.269  1.00  0.00     0.238 A 
HETATM   10  O2  UNL     1      27.842   2.785  52.001  1.00  0.00    -0.324 OA
ENDROOT
BRANCH   1  11
HETATM   11  O1  UNL     1      26.475   2.749  50.107  1.00  0.00    -0.328 OA
BRANCH  11  12
HETATM   12  C7  UNL     1      25.778   3.974  49.978  1.00  0.00     0.213 C 
BRANCH  12  13
HETATM   13  C6  UNL     1      24.536   3.773  49.141  1.00  0.00     0.248 C 
HETATM   14  C2  UNL     1      23.598   2.759  49.749  1.00  0.00     0.017 C 
HETATM   15  C1  UNL     1      22.946   3.396  50.957  1.00  0.00     0.012 C 
HETATM   16  C3  UNL     1      22.515   2.465  48.748  1.00  0.00     0.008 C 
HETATM   17  C4  UNL     1      22.240   3.509  47.745  1.00  0.00     0.030 C 
HETATM   18  C5  UNL     1      22.824   4.842  47.962  1.00  0.00     0.270 C 
HETATM   19  N1  UNL     1      23.768   4.989  49.008  1.00  0.00     0.090 N 
HETATM   20  H11 UNL     1      23.323   5.333  49.858  1.00  0.00     0.316 HD
ENDBRANCH  12  13
ENDBRANCH  11  12
ENDBRANCH   1  11
BRANCH   8  21
HETATM   21  N4  UNL     1      24.561  -0.949  53.070  1.00  0.00    -0.340 N 
HETATM   22  H17 UNL     1      24.687  -1.617  52.303  1.00  0.00     0.167 HD
BRANCH  21  23
HETATM   23  C14 UNL     1      23.178  -0.751  53.269  1.00  0.00     0.035 A 
HETATM   24  C15 UNL     1      22.452  -1.129  54.400  1.00  0.00     0.032 A 
HETATM   25  C16 UNL     1      21.119  -0.924  54.561  1.00  0.00     0.046 A 
HETATM   26  C17 UNL     1      20.374  -0.311  53.583  1.00  0.00     0.138 A 
HETATM   27  F1  UNL     1      19.057  -0.156  53.838  1.00  0.00    -0.204 F 
HETATM   28  C18 UNL     1      21.027   0.086  52.439  1.00  0.00     0.074 A 
HETATM   29 CL1  UNL     1      20.049   0.858  51.224  1.00  0.00    -0.081 Cl
HETATM   30  C19 UNL     1      22.381  -0.144  52.325  1.00  0.00     0.056 A 
ENDBRANCH  21  23
ENDBRANCH   8  21
TORSDOF 5
ENDMDL
MODEL 5
REMARK VINA RESULT:      -8.5      4.119      6.698
REMARK  5 active torsions:
REMARK  status: ('A' for Active; 'I' for Inactive)
REMARK    1  A    between atoms: C6_7  and  C7_8 
REMARK    2  A    between atoms: C7_8  and  O1_9 
REMARK    3  A    between atoms: O1_9  and  C8_10 
REMARK    4  A    between atoms: C13_17  and  N4_18 
REMARK    5  A    between atoms: N4_18  and  C14_19 
ROOT
HETATM    1  C8  UNL     1      24.044   3.391  49.487  1.00  0.00     0.181 A 
HETATM    2  C9  UNL     1      24.290   2.846  50.666  1.00  0.00     0.081 A 
HETATM    3  C10 UNL     1      23.390   1.827  51.189  1.00  0.00     0.041 A 
HETATM    4  C11 UNL     1      22.350   1.558  50.332  1.00  0.00     0.074 A 
HETATM    5  N2  UNL     1      21.439   0.622  50.708  1.00  0.00    -0.243 NA
HETATM    6  C12 UNL     1      21.553  -0.013  51.869  1.00  0.00     0.235 A 
HETATM    7  N3  UNL     1      22.586   0.293  52.659  1.00  0.00    -0.224 NA
HETATM    8  C13 UNL     1      23.522   1.182  52.389  1.00  0.00     0.141 A 
HETATM    9  C20 UNL     1      22.031   2.126  49.024  1.00  0.00     0.238 A 
HETATM   10  O2  UNL     1      22.983   3.089  48.656  1.00  0.00    -0.324 OA
ENDROOT
BRANCH   1  11
HETATM   11  O1  UNL     1      24.909   4.373  48.978  1.00  0.00    -0.328 OA
BRANCH  11  12
HETATM   12  C7  UNL     1      26.262   4.450  49.385  1.00  0.00     0.213 C 
BRANCH  12  13
HETATM   13  C6  UNL     1      26.997   5.462  48.536  1.00  0.00     0.248 C 
HETATM   14  C2  UNL     1      26.256   6.774  48.448  1.00  0.00     0.017 C 
HETATM   15  C1  UNL     1      26.389   7.473  49.783  1.00  0.00     0.012 C 
HETATM   16  C3  UNL     1      26.942   7.628  47.417  1.00  0.00     0.008 C 
HETATM   17  C4  UNL     1      28.363   7.337  47.154  1.00  0.00     0.030 C 
HETATM   18  C5  UNL     1      29.068   6.452  48.094  1.00  0.00     0.270 C 
HETATM   19  N1  UNL     1      28.298   5.781  49.076  1.00  0.00     0.090 N 
HETATM   20  H11 UNL     1      28.304   6.290  49.959  1.00  0.00     0.316 HD
ENDBRANCH  12  13
ENDBRANCH  11  12
ENDBRANCH   1  11
BRANCH   8  21
HETATM   21  N4  UNL     1      24.617   1.518  53.207  1.00  0.00    -0.340 N 
HETATM   22  H17 UNL     1      24.572   2.280  53.890  1.00  0.00     0.167 HD
BRANCH  21  23
HETATM   23  C14 UNL     1      25.903   0.938  53.268  1.00  0.00     0.035 A 
HETATM   24  C15 UNL     1      26.246  -0.341  52.823  1.00  0.00     0.032 A 
HETATM   25  C16 UNL     1      27.494  -0.871  52.897  1.00  0.00     0.046 A 
HETATM   26  C17 UNL     1      28.536  -0.155  53.435  1.00  0.00     0.138 A 
HETATM   27  F1  UNL     1      29.738  -0.771  53.464  1.00  0.00    -0.204 F 
HETATM   28  C18 UNL     1      28.267   1.114  53.895  1.00  0.00     0.074 A 
HETATM   29 CL1  UNL     1      29.613   1.988  54.570  1.00  0.00    -0.081 Cl
HETATM   30  C19 UNL     1      26.985   1.606  53.797  1.00  0.00     0.056 A 
ENDBRANCH  21  23
ENDBRANCH   8  21
TORSDOF 5
ENDMDL
MODEL 6
REMARK VINA RESULT:      -8.5      3.217      6.172
REMARK  5 active torsions:
REMARK  status: ('A' for Active; 'I' for Inactive)
REMARK    1  A    between atoms: C6_7  and  C7_8 
REMARK    2  A    between atoms: C7_8  and  O1_9 
REMARK    3  A    between atoms: O1_9  and  C8_10 
REMARK    4  A    between atoms: C13_17  and  N4_18 
REMARK    5  A    between atoms: N4_18  and  C14_19 
ROOT
HETATM    1  C8  UNL     1      21.184   0.999  51.641  1.00  0.00     0.181 A 
HETATM    2  C9  UNL     1      22.440   0.737  51.956  1.00  0.00     0.081 A 
HETATM    3  C10 UNL     1      22.735  -0.016  53.168  1.00  0.00     0.041 A 
HETATM    4  C11 UNL     1      21.598  -0.371  53.853  1.00  0.00     0.074 A 
HETATM    5  N2  UNL     1      21.743  -1.080  55.003  1.00  0.00    -0.243 NA
HETATM    6  C12 UNL     1      22.946  -1.418  55.450  1.00  0.00     0.235 A 
HETATM    7  N3  UNL     1      24.014  -1.043  54.739  1.00  0.00    -0.224 NA
HETATM    8  C13 UNL     1      23.983  -0.357  53.614  1.00  0.00     0.141 A 
HETATM    9  C20 UNL     1      20.192  -0.111  53.552  1.00  0.00     0.238 A 
HETATM   10  O2  UNL     1      20.067   0.621  52.361  1.00  0.00    -0.324 OA
ENDROOT
BRANCH   1  11
HETATM   11  O1  UNL     1      20.893   1.725  50.474  1.00  0.00    -0.328 OA
BRANCH  11  12
HETATM   12  C7  UNL     1      20.888   3.140  50.466  1.00  0.00     0.213 C 
BRANCH  12  13
HETATM   13  C6  UNL     1      22.307   3.659  50.414  1.00  0.00     0.248 C 
HETATM   14  C2  UNL     1      23.052   3.156  49.201  1.00  0.00     0.017 C 
HETATM   15  C1  UNL     1      22.510   3.883  47.990  1.00  0.00     0.012 C 
HETATM   16  C3  UNL     1      24.499   3.537  49.352  1.00  0.00     0.008 C 
HETATM   17  C4  UNL     1      24.793   4.694  50.217  1.00  0.00     0.030 C 
HETATM   18  C5  UNL     1      23.668   5.547  50.629  1.00  0.00     0.270 C 
HETATM   19  N1  UNL     1      22.355   5.100  50.336  1.00  0.00     0.090 N 
HETATM   20  H11 UNL     1      22.011   5.513  49.471  1.00  0.00     0.316 HD
ENDBRANCH  12  13
ENDBRANCH  11  12
ENDBRANCH   1  11
BRANCH   8  21
HETATM   21  N4  UNL     1      25.095   0.047  52.851  1.00  0.00    -0.340 N 
HETATM   22  H17 UNL     1      24.992   0.563  51.971  1.00  0.00     0.167 HD
BRANCH  21  23
HETATM   23  C14 UNL     1      26.472  -0.145  53.098  1.00  0.00     0.035 A 
HETATM   24  C15 UNL     1      27.188  -1.320  52.862  1.00  0.00     0.032 A 
HETATM   25  C16 UNL     1      28.515  -1.474  53.111  1.00  0.00     0.046 A 
HETATM   26  C17 UNL     1      29.261  -0.444  53.631  1.00  0.00     0.138 A 
HETATM   27  F1  UNL     1      30.571  -0.698  53.843  1.00  0.00    -0.204 F 
HETATM   28  C18 UNL     1      28.616   0.744  53.889  1.00  0.00     0.074 A 
HETATM   29 CL1  UNL     1      29.596   2.023  54.546  1.00  0.00    -0.081 Cl
HETATM   30  C19 UNL     1      27.270   0.849  53.618  1.00  0.00     0.056 A 
ENDBRANCH  21  23
ENDBRANCH   8  21
TORSDOF 5
ENDMDL
MODEL 7
REMARK VINA RESULT:      -8.4      2.700      5.178
REMARK  5 active torsions:
REMARK  status: ('A' for Active; 'I' for Inactive)
REMARK    1  A    between atoms: C6_7  and  C7_8 
REMARK    2  A    between atoms: C7_8  and  O1_9 
REMARK    3  A    between atoms: O1_9  and  C8_10 
REMARK    4  A    between atoms: C13_17  and  N4_18 
REMARK    5  A    between atoms: N4_18  and  C14_19 
ROOT
HETATM    1  C8  UNL     1      25.996   0.736  52.421  1.00  0.00     0.181 A 
HETATM    2  C9  UNL     1      24.765   0.264  52.517  1.00  0.00     0.081 A 
HETATM    3  C10 UNL     1      24.345  -0.404  53.740  1.00  0.00     0.041 A 
HETATM    4  C11 UNL     1      25.346  -0.453  54.680  1.00  0.00     0.074 A 
HETATM    5  N2  UNL     1      25.076  -1.054  55.869  1.00  0.00    -0.243 NA
HETATM    6  C12 UNL     1      23.880  -1.577  56.113  1.00  0.00     0.235 A 
HETATM    7  N3  UNL     1      22.948  -1.497  55.160  1.00  0.00    -0.224 NA
HETATM    8  C13 UNL     1      23.106  -0.937  53.976  1.00  0.00     0.141 A 
HETATM    9  C20 UNL     1      26.717   0.048  54.629  1.00  0.00     0.238 A 
HETATM   10  O2  UNL     1      26.974   0.664  53.394  1.00  0.00    -0.324 OA
ENDROOT
BRANCH   1  11
HETATM   11  O1  UNL     1      26.407   1.381  51.243  1.00  0.00    -0.328 OA
BRANCH  11  12
HETATM   12  C7  UNL     1      26.715   2.762  51.226  1.00  0.00     0.213 C 
BRANCH  12  13
HETATM   13  C6  UNL     1      25.779   3.486  50.285  1.00  0.00     0.248 C 
HETATM   14  C2  UNL     1      24.334   3.135  50.540  1.00  0.00     0.017 C 
HETATM   15  C1  UNL     1      23.912   3.810  51.828  1.00  0.00     0.012 C 
HETATM   16  C3  UNL     1      23.508   3.721  49.427  1.00  0.00     0.008 C 
HETATM   17  C4  UNL     1      24.078   4.883  48.721  1.00  0.00     0.030 C 
HETATM   18  C5  UNL     1      25.245   5.548  49.321  1.00  0.00     0.270 C 
HETATM   19  N1  UNL     1      25.867   4.921  50.429  1.00  0.00     0.090 N 
HETATM   20  H11 UNL     1      25.524   5.304  51.309  1.00  0.00     0.316 HD
ENDBRANCH  12  13
ENDBRANCH  11  12
ENDBRANCH   1  11
BRANCH   8  21
HETATM   21  N4  UNL     1      22.138  -0.844  52.959  1.00  0.00    -0.340 N 
HETATM   22  H17 UNL     1      21.754  -1.673  52.495  1.00  0.00     0.167 HD
BRANCH  21  23
HETATM   23  C14 UNL     1      21.532   0.302  52.399  1.00  0.00     0.035 A 
HETATM   24  C15 UNL     1      21.034   1.395  53.112  1.00  0.00     0.032 A 
HETATM   25  C16 UNL     1      20.455   2.484  52.544  1.00  0.00     0.046 A 
HETATM   26  C17 UNL     1      20.317   2.580  51.180  1.00  0.00     0.138 A 
HETATM   27  F1  UNL     1      19.727   3.703  50.713  1.00  0.00    -0.204 F 
HETATM   28  C18 UNL     1      20.785   1.536  50.416  1.00  0.00     0.074 A 
HETATM   29 CL1  UNL     1      20.591   1.697  48.694  1.00  0.00    -0.081 Cl
HETATM   30  C19 UNL     1      21.365   0.455  51.041  1.00  0.00     0.056 A 
ENDBRANCH  21  23
ENDBRANCH   8  21
TORSDOF 5
ENDMDL
MODEL 8
REMARK VINA RESULT:      -8.4      6.200      8.288
REMARK  5 active torsions:
REMARK  status: ('A' for Active; 'I' for Inactive)
REMARK    1  A    between atoms: C6_7  and  C7_8 
REMARK    2  A    between atoms: C7_8  and  O1_9 
REMARK    3  A    between atoms: O1_9  and  C8_10 
REMARK    4  A    between atoms: C13_17  and  N4_18 
REMARK    5  A    between atoms: N4_18  and  C14_19 
ROOT
HETATM    1  C8  UNL     1      28.794   5.560  48.300  1.00  0.00     0.181 A 
HETATM    2  C9  UNL     1      27.776   4.806  48.679  1.00  0.00     0.081 A 
HETATM    3  C10 UNL     1      26.512   5.433  49.035  1.00  0.00     0.041 A 
HETATM    4  C11 UNL     1      26.555   6.802  48.920  1.00  0.00     0.074 A 
HETATM    5  N2  UNL     1      25.432   7.504  49.225  1.00  0.00    -0.243 NA
HETATM    6  C12 UNL     1      24.327   6.884  49.623  1.00  0.00     0.235 A 
HETATM    7  N3  UNL     1      24.347   5.551  49.715  1.00  0.00    -0.224 NA
HETATM    8  C13 UNL     1      25.381   4.779  49.443  1.00  0.00     0.141 A 
HETATM    9  C20 UNL     1      27.646   7.683  48.508  1.00  0.00     0.238 A 
HETATM   10  O2  UNL     1      28.794   6.937  48.198  1.00  0.00    -0.324 OA
ENDROOT
BRANCH   1  11
HETATM   11  O1  UNL     1      30.017   4.960  47.955  1.00  0.00    -0.328 OA
BRANCH  11  12
HETATM   12  C7  UNL     1      31.228   5.692  47.967  1.00  0.00     0.213 C 
BRANCH  12  13
HETATM   13  C6  UNL     1      32.402   4.740  48.007  1.00  0.00     0.248 C 
HETATM   14  C2  UNL     1      32.294   3.659  46.959  1.00  0.00     0.017 C 
HETATM   15  C1  UNL     1      32.571   4.290  45.612  1.00  0.00     0.012 C 
HETATM   16  C3  UNL     1      33.376   2.647  47.220  1.00  0.00     0.008 C 
HETATM   17  C4  UNL     1      34.561   3.120  47.957  1.00  0.00     0.030 C 
HETATM   18  C5  UNL     1      34.731   4.571  48.129  1.00  0.00     0.270 C 
HETATM   19  N1  UNL     1      33.655   5.412  47.751  1.00  0.00     0.090 N 
HETATM   20  H11 UNL     1      33.784   5.773  46.807  1.00  0.00     0.316 HD
ENDBRANCH  12  13
ENDBRANCH  11  12
ENDBRANCH   1  11
BRANCH   8  21
HETATM   21  N4  UNL     1      25.422   3.375  49.533  1.00  0.00    -0.340 N 
HETATM   22  H17 UNL     1      25.452   2.777  48.701  1.00  0.00     0.167 HD
BRANCH  21  23
HETATM   23  C14 UNL     1      25.431   2.549  50.678  1.00  0.00     0.035 A 
HETATM   24  C15 UNL     1      26.565   1.998  51.279  1.00  0.00     0.032 A 
HETATM   25  C16 UNL     1      26.541   1.205  52.382  1.00  0.00     0.046 A 
HETATM   26  C17 UNL     1      25.355   0.884  52.996  1.00  0.00     0.138 A 
HETATM   27  F1  UNL     1      25.438   0.089  54.086  1.00  0.00    -0.204 F 
HETATM   28  C18 UNL     1      24.198   1.393  52.454  1.00  0.00     0.074 A 
HETATM   29 CL1  UNL     1      22.717   0.962  53.261  1.00  0.00    -0.081 Cl
HETATM   30  C19 UNL     1      24.276   2.192  51.335  1.00  0.00     0.056 A 
ENDBRANCH  21  23
ENDBRANCH   8  21
TORSDOF 5
ENDMDL
MODEL 9
REMARK VINA RESULT:      -8.2      3.195      6.196
REMARK  5 active torsions:
REMARK  status: ('A' for Active; 'I' for Inactive)
REMARK    1  A    between atoms: C6_7  and  C7_8 
REMARK    2  A    between atoms: C7_8  and  O1_9 
REMARK    3  A    between atoms: O1_9  and  C8_10 
REMARK    4  A    between atoms: C13_17  and  N4_18 
REMARK    5  A    between atoms: N4_18  and  C14_19 
ROOT
HETATM    1  C8  UNL     1      26.933   2.470  51.570  1.00  0.00     0.181 A 
HETATM    2  C9  UNL     1      25.849   1.753  51.815  1.00  0.00     0.081 A 
HETATM    3  C10 UNL     1      25.769   0.967  53.038  1.00  0.00     0.041 A 
HETATM    4  C11 UNL     1      26.897   1.089  53.813  1.00  0.00     0.074 A 
HETATM    5  N2  UNL     1      26.943   0.402  54.985  1.00  0.00    -0.243 NA
HETATM    6  C12 UNL     1      25.927  -0.363  55.368  1.00  0.00     0.235 A 
HETATM    7  N3  UNL     1      24.857  -0.440  54.571  1.00  0.00    -0.224 NA
HETATM    8  C13 UNL     1      24.713   0.184  53.418  1.00  0.00     0.141 A 
HETATM    9  C20 UNL     1      28.117   1.862  53.594  1.00  0.00     0.238 A 
HETATM   10  O2  UNL     1      28.047   2.563  52.379  1.00  0.00    -0.324 OA
ENDROOT
BRANCH   1  11
HETATM   11  O1  UNL     1      27.016   3.229  50.391  1.00  0.00    -0.328 OA
BRANCH  11  12
HETATM   12  C7  UNL     1      25.863   3.549  49.635  1.00  0.00     0.213 C 
BRANCH  12  13
HETATM   13  C6  UNL     1      26.071   4.860  48.911  1.00  0.00     0.248 C 
HETATM   14  C2  UNL     1      24.915   5.809  49.110  1.00  0.00     0.017 C 
HETATM   15  C1  UNL     1      24.982   6.332  50.529  1.00  0.00     0.012 C 
HETATM   16  C3  UNL     1      25.107   6.980  48.185  1.00  0.00     0.008 C 
HETATM   17  C4  UNL     1      26.488   7.265  47.756  1.00  0.00     0.030 C 
HETATM   18  C5  UNL     1      27.583   6.587  48.468  1.00  0.00     0.270 C 
HETATM   19  N1  UNL     1      27.242   5.561  49.384  1.00  0.00     0.090 N 
HETATM   20  H11 UNL     1      27.195   5.920  50.337  1.00  0.00     0.316 HD
ENDBRANCH  12  13
ENDBRANCH  11  12
ENDBRANCH   1  11
BRANCH   8  21
HETATM   21  N4  UNL     1      23.595   0.116  52.565  1.00  0.00    -0.340 N 
HETATM   22  H17 UNL     1      23.485  -0.632  51.873  1.00  0.00     0.167 HD
BRANCH  21  23
HETATM   23  C14 UNL     1      22.480   0.976  52.476  1.00  0.00     0.035 A 
HETATM   24  C15 UNL     1      21.142   0.596  52.601  1.00  0.00     0.032 A 
HETATM   25  C16 UNL     1      20.089   1.450  52.510  1.00  0.00     0.046 A 
HETATM   26  C17 UNL     1      20.283   2.790  52.279  1.00  0.00     0.138 A 
HETATM   27  F1  UNL     1      19.172   3.555  52.204  1.00  0.00    -0.204 F 
HETATM   28  C18 UNL     1      21.579   3.233  52.144  1.00  0.00     0.074 A 
HETATM   29 CL1  UNL     1      21.783   4.937  51.852  1.00  0.00    -0.081 Cl
HETATM   30  C19 UNL     1      22.612   2.327  52.245  1.00  0.00     0.056 A 
ENDBRANCH  21  23
ENDBRANCH   8  21
TORSDOF 5
ENDMDL
