MODEL 1
REMARK VINA RESULT:      -8.9      0.000      0.000
REMARK  8 active torsions:
REMARK  status: ('A' for Active; 'I' for Inactive)
REMARK    1  A    between atoms: N1_2  and  C2_3 
REMARK    2  A    between atoms: N1_2  and  C21_29 
REMARK    3  A    between atoms: C2_3  and  C3_4 
REMARK    4  A    between atoms: C4_5  and  C5_6 
REMARK       I    between atoms: C5_6  and  N2_8 
REMARK    5  A    between atoms: N2_8  and  C6_9 
REMARK    6  A    between atoms: C13_18  and  N5_19 
REMARK    7  A    between atoms: N5_19  and  C14_20 
REMARK    8  A    between atoms: C21_29  and  C22_30 
ROOT
HETATM    1  C6  UNL     1      24.823   4.406  49.716  1.00  0.00     0.019 A 
HETATM    2  C7  UNL     1      25.191   3.844  50.880  1.00  0.00     0.041 A 
HETATM    3  C8  UNL     1      24.312   2.706  51.202  1.00  0.00     0.019 A 
HETATM    4  C9  UNL     1      23.415   2.643  50.154  1.00  0.00     0.052 A 
HETATM    5  N3  UNL     1      22.432   1.694  50.113  1.00  0.00    -0.263 NA
HETATM    6  C10 UNL     1      22.381   0.822  51.146  1.00  0.00     0.142 A 
HETATM    7  C11 UNL     1      23.242   0.825  52.223  1.00  0.00     0.089 A 
HETATM    8  C12 UNL     1      23.163  -0.109  53.296  1.00  0.00     0.103 C 
HETATM    9  N4  UNL     1      23.115  -0.871  54.170  1.00  0.00    -0.191 NA
HETATM   10  C13 UNL     1      24.226   1.799  52.236  1.00  0.00     0.067 A 
HETATM   11  C20 UNL     1      23.655   3.698  49.135  1.00  0.00     0.117 A 
ENDROOT
BRANCH  10  12
HETATM   12  N5  UNL     1      25.143   1.863  53.300  1.00  0.00    -0.354 N 
HETATM   13  H11 UNL     1      24.681   2.300  54.131  1.00  0.00     0.166 HD
BRANCH  12  14
HETATM   14  C14 UNL     1      26.499   1.442  53.366  1.00  0.00     0.034 A 
HETATM   15  C15 UNL     1      27.491   2.373  53.591  1.00  0.00     0.032 A 
HETATM   16  C16 UNL     1      28.801   1.978  53.666  1.00  0.00     0.046 A 
HETATM   17  C17 UNL     1      29.065   0.622  53.506  1.00  0.00     0.138 A 
HETATM   18  F1  UNL     1      30.368   0.203  53.577  1.00  0.00    -0.204 F 
HETATM   19  C18 UNL     1      28.100  -0.352  53.277  1.00  0.00     0.074 A 
HETATM   20 CL1  UNL     1      28.541  -2.039  53.089  1.00  0.00    -0.081 Cl
HETATM   21  C19 UNL     1      26.799   0.101  53.211  1.00  0.00     0.056 A 
ENDBRANCH  12  14
ENDBRANCH  10  12
BRANCH   1  22
HETATM   22  N2  UNL     1      25.596   5.526  49.287  1.00  0.00    -0.327 N 
HETATM   23  C5  UNL     1      26.891   5.096  48.887  1.00  0.00     0.245 C 
HETATM   24  O1  UNL     1      27.258   3.894  48.922  1.00  0.00    -0.268 OA
HETATM   25  H8  UNL     1      25.368   6.534  49.227  1.00  0.00     0.169 HD
BRANCH  23  26
HETATM   26  C4  UNL     1      27.940   5.979  48.394  1.00  0.00     0.072 C 
HETATM   27  C3  UNL     1      29.100   5.340  48.212  1.00  0.00     0.008 C 
BRANCH  27  28
HETATM   28  C2  UNL     1      30.336   6.012  47.714  1.00  0.00     0.299 C 
BRANCH  28  29
HETATM   29  N1  UNL     1      31.439   5.175  48.065  1.00  0.00     0.089 N 
HETATM   30  C1  UNL     1      32.219   5.757  49.111  1.00  0.00     0.310 C 
BRANCH  29  31
HETATM   31  C21 UNL     1      32.189   4.704  46.947  1.00  0.00     0.303 C 
BRANCH  31  32
HETATM   32  C22 UNL     1      32.341   3.204  46.918  1.00  0.00     0.252 C 
HETATM   33  F2  UNL     1      31.188   2.615  46.390  1.00  0.00    -0.254 F 
ENDBRANCH  31  32
ENDBRANCH  29  31
ENDBRANCH  28  29
ENDBRANCH  27  28
ENDBRANCH  23  26
ENDBRANCH   1  22
TORSDOF 8
ENDMDL
MODEL 2
REMARK VINA RESULT:      -8.8      2.878      3.540
REMARK  8 active torsions:
REMARK  status: ('A' for Active; 'I' for Inactive)
REMARK    1  A    between atoms: N1_2  and  C2_3 
REMARK    2  A    between atoms: N1_2  and  C21_29 
REMARK    3  A    between atoms: C2_3  and  C3_4 
REMARK    4  A    between atoms: C4_5  and  C5_6 
REMARK       I    between atoms: C5_6  and  N2_8 
REMARK    5  A    between atoms: N2_8  and  C6_9 
REMARK    6  A    between atoms: C13_18  and  N5_19 
REMARK    7  A    between atoms: N5_19  and  C14_20 
REMARK    8  A    between atoms: C21_29  and  C22_30 
ROOT
HETATM    1  C6  UNL     1      24.426   2.897  50.243  1.00  0.00     0.019 A 
HETATM    2  C7  UNL     1      24.758   2.241  51.369  1.00  0.00     0.041 A 
HETATM    3  C8  UNL     1      23.649   1.373  51.805  1.00  0.00     0.019 A 
HETATM    4  C9  UNL     1      22.657   1.566  50.864  1.00  0.00     0.052 A 
HETATM    5  N3  UNL     1      21.459   0.913  50.947  1.00  0.00    -0.263 NA
HETATM    6  C10 UNL     1      21.293   0.072  51.993  1.00  0.00     0.142 A 
HETATM    7  C11 UNL     1      22.238  -0.168  52.969  1.00  0.00     0.089 A 
HETATM    8  C12 UNL     1      22.033  -1.062  54.059  1.00  0.00     0.103 C 
HETATM    9  N4  UNL     1      21.882  -1.796  54.946  1.00  0.00    -0.191 NA
HETATM   10  C13 UNL     1      23.441   0.508  52.857  1.00  0.00     0.067 A 
HETATM   11  C20 UNL     1      23.054   2.533  49.806  1.00  0.00     0.117 A 
ENDROOT
BRANCH  10  12
HETATM   12  N5  UNL     1      24.454   0.311  53.811  1.00  0.00    -0.354 N 
HETATM   13  H11 UNL     1      24.061   0.460  54.769  1.00  0.00     0.166 HD
BRANCH  12  14
HETATM   14  C14 UNL     1      25.822  -0.034  53.636  1.00  0.00     0.034 A 
HETATM   15  C15 UNL     1      26.151  -1.192  52.964  1.00  0.00     0.032 A 
HETATM   16  C16 UNL     1      27.467  -1.531  52.782  1.00  0.00     0.046 A 
HETATM   17  C17 UNL     1      28.422  -0.664  53.299  1.00  0.00     0.138 A 
HETATM   18  F1  UNL     1      29.745  -0.982  53.129  1.00  0.00    -0.204 F 
HETATM   19  C18 UNL     1      28.138   0.513  53.983  1.00  0.00     0.074 A 
HETATM   20 CL1  UNL     1      29.423   1.538  54.596  1.00  0.00    -0.081 Cl
HETATM   21  C19 UNL     1      26.800   0.805  54.138  1.00  0.00     0.056 A 
ENDBRANCH  12  14
ENDBRANCH  10  12
BRANCH   1  22
HETATM   22  N2  UNL     1      25.416   3.776  49.712  1.00  0.00    -0.327 N 
HETATM   23  C5  UNL     1      25.120   5.117  50.078  1.00  0.00     0.245 C 
HETATM   24  O1  UNL     1      24.120   5.436  50.772  1.00  0.00    -0.268 OA
HETATM   25  H8  UNL     1      26.260   3.592  49.140  1.00  0.00     0.169 HD
BRANCH  23  26
HETATM   26  C4  UNL     1      25.923   6.273  49.704  1.00  0.00     0.072 C 
HETATM   27  C3  UNL     1      26.738   6.017  48.676  1.00  0.00     0.008 C 
BRANCH  27  28
HETATM   28  C2  UNL     1      27.667   7.031  48.095  1.00  0.00     0.299 C 
BRANCH  28  29
HETATM   29  N1  UNL     1      26.913   8.229  47.904  1.00  0.00     0.089 N 
HETATM   30  C1  UNL     1      26.372   8.297  46.583  1.00  0.00     0.310 C 
BRANCH  29  31
HETATM   31  C21 UNL     1      27.582   9.411  48.339  1.00  0.00     0.303 C 
BRANCH  31  32
HETATM   32  C22 UNL     1      28.352   9.224  49.622  1.00  0.00     0.252 C 
HETATM   33  F2  UNL     1      27.480   9.243  50.713  1.00  0.00    -0.254 F 
ENDBRANCH  31  32
ENDBRANCH  29  31
ENDBRANCH  28  29
ENDBRANCH  27  28
ENDBRANCH  23  26
ENDBRANCH   1  22
TORSDOF 8
ENDMDL
MODEL 3
REMARK VINA RESULT:      -8.7      1.988      2.588
REMARK  8 active torsions:
REMARK  status: ('A' for Active; 'I' for Inactive)
REMARK    1  A    between atoms: N1_2  and  C2_3 
REMARK    2  A    between atoms: N1_2  and  C21_29 
REMARK    3  A    between atoms: C2_3  and  C3_4 
REMARK    4  A    between atoms: C4_5  and  C5_6 
REMARK       I    between atoms: C5_6  and  N2_8 
REMARK    5  A    between atoms: N2_8  and  C6_9 
REMARK    6  A    between atoms: C13_18  and  N5_19 
REMARK    7  A    between atoms: N5_19  and  C14_20 
REMARK    8  A    between atoms: C21_29  and  C22_30 
ROOT
HETATM    1  C6  UNL     1      24.208   2.988  50.099  1.00  0.00     0.019 A 
HETATM    2  C7  UNL     1      24.604   2.404  51.244  1.00  0.00     0.041 A 
HETATM    3  C8  UNL     1      23.574   1.466  51.726  1.00  0.00     0.019 A 
HETATM    4  C9  UNL     1      22.560   1.542  50.793  1.00  0.00     0.052 A 
HETATM    5  N3  UNL     1      21.420   0.798  50.916  1.00  0.00    -0.263 NA
HETATM    6  C10 UNL     1      21.334  -0.014  51.994  1.00  0.00     0.142 A 
HETATM    7  C11 UNL     1      22.306  -0.140  52.965  1.00  0.00     0.089 A 
HETATM    8  C12 UNL     1      22.187  -1.007  54.089  1.00  0.00     0.103 C 
HETATM    9  N4  UNL     1      22.105  -1.716  55.004  1.00  0.00    -0.191 NA
HETATM   10  C13 UNL     1      23.449   0.626  52.812  1.00  0.00     0.067 A 
HETATM   11  C20 UNL     1      22.866   2.498  49.695  1.00  0.00     0.117 A 
ENDROOT
BRANCH  10  12
HETATM   12  N5  UNL     1      24.485   0.548  53.758  1.00  0.00    -0.354 N 
HETATM   13  H11 UNL     1      24.126   0.858  54.691  1.00  0.00     0.166 HD
BRANCH  12  14
HETATM   14  C14 UNL     1      25.837   0.136  53.604  1.00  0.00     0.034 A 
HETATM   15  C15 UNL     1      26.117  -1.056  52.970  1.00  0.00     0.032 A 
HETATM   16  C16 UNL     1      27.416  -1.460  52.808  1.00  0.00     0.046 A 
HETATM   17  C17 UNL     1      28.407  -0.623  53.307  1.00  0.00     0.138 A 
HETATM   18  F1  UNL     1      29.715  -1.006  53.156  1.00  0.00    -0.204 F 
HETATM   19  C18 UNL     1      28.174   0.586  53.952  1.00  0.00     0.074 A 
HETATM   20 CL1  UNL     1      29.500   1.569  54.544  1.00  0.00    -0.081 Cl
HETATM   21  C19 UNL     1      26.849   0.943  54.088  1.00  0.00     0.056 A 
ENDBRANCH  12  14
ENDBRANCH  10  12
BRANCH   1  22
HETATM   22  N2  UNL     1      25.117   3.924  49.523  1.00  0.00    -0.327 N 
HETATM   23  C5  UNL     1      24.841   5.230  50.010  1.00  0.00     0.245 C 
HETATM   24  O1  UNL     1      23.920   5.479  50.829  1.00  0.00    -0.268 OA
HETATM   25  H8  UNL     1      25.895   3.799  48.851  1.00  0.00     0.169 HD
BRANCH  23  26
HETATM   26  C4  UNL     1      25.577   6.428  49.628  1.00  0.00     0.072 C 
HETATM   27  C3  UNL     1      26.623   6.155  48.843  1.00  0.00     0.008 C 
BRANCH  27  28
HETATM   28  C2  UNL     1      27.543   7.204  48.311  1.00  0.00     0.299 C 
BRANCH  28  29
HETATM   29  N1  UNL     1      28.776   6.556  47.992  1.00  0.00     0.089 N 
HETATM   30  C1  UNL     1      28.720   5.159  48.286  1.00  0.00     0.310 C 
BRANCH  29  31
HETATM   31  C21 UNL     1      29.931   7.229  48.492  1.00  0.00     0.303 C 
BRANCH  31  32
HETATM   32  C22 UNL     1      31.149   6.344  48.576  1.00  0.00     0.252 C 
HETATM   33  F2  UNL     1      31.515   6.157  49.911  1.00  0.00    -0.254 F 
ENDBRANCH  31  32
ENDBRANCH  29  31
ENDBRANCH  28  29
ENDBRANCH  27  28
ENDBRANCH  23  26
ENDBRANCH   1  22
TORSDOF 8
ENDMDL
MODEL 4
REMARK VINA RESULT:      -8.7      1.763      1.964
REMARK  8 active torsions:
REMARK  status: ('A' for Active; 'I' for Inactive)
REMARK    1  A    between atoms: N1_2  and  C2_3 
REMARK    2  A    between atoms: N1_2  and  C21_29 
REMARK    3  A    between atoms: C2_3  and  C3_4 
REMARK    4  A    between atoms: C4_5  and  C5_6 
REMARK       I    between atoms: C5_6  and  N2_8 
REMARK    5  A    between atoms: N2_8  and  C6_9 
REMARK    6  A    between atoms: C13_18  and  N5_19 
REMARK    7  A    between atoms: N5_19  and  C14_20 
REMARK    8  A    between atoms: C21_29  and  C22_30 
ROOT
HETATM    1  C6  UNL     1      24.939   3.909  50.186  1.00  0.00     0.019 A 
HETATM    2  C7  UNL     1      25.314   3.287  51.317  1.00  0.00     0.041 A 
HETATM    3  C8  UNL     1      24.339   2.243  51.678  1.00  0.00     0.019 A 
HETATM    4  C9  UNL     1      23.377   2.298  50.689  1.00  0.00     0.052 A 
HETATM    5  N3  UNL     1      22.297   1.461  50.697  1.00  0.00    -0.263 NA
HETATM    6  C10 UNL     1      22.216   0.578  51.718  1.00  0.00     0.142 A 
HETATM    7  C11 UNL     1      23.137   0.467  52.739  1.00  0.00     0.089 A 
HETATM    8  C12 UNL     1      23.024  -0.475  53.801  1.00  0.00     0.103 C 
HETATM    9  N4  UNL     1      22.948  -1.246  54.667  1.00  0.00    -0.191 NA
HETATM   10  C13 UNL     1      24.220   1.329  52.703  1.00  0.00     0.067 A 
HETATM   11  C20 UNL     1      23.667   3.342  49.671  1.00  0.00     0.117 A 
ENDROOT
BRANCH  10  12
HETATM   12  N5  UNL     1      25.202   1.273  53.707  1.00  0.00    -0.354 N 
HETATM   13  H11 UNL     1      24.789   1.591  54.614  1.00  0.00     0.166 HD
BRANCH  12  14
HETATM   14  C14 UNL     1      26.563   0.870  53.634  1.00  0.00     0.034 A 
HETATM   15  C15 UNL     1      27.560   1.802  53.834  1.00  0.00     0.032 A 
HETATM   16  C16 UNL     1      28.876   1.424  53.775  1.00  0.00     0.046 A 
HETATM   17  C17 UNL     1      29.140   0.085  53.509  1.00  0.00     0.138 A 
HETATM   18  F1  UNL     1      30.450  -0.316  53.446  1.00  0.00    -0.204 F 
HETATM   19  C18 UNL     1      28.170  -0.888  53.301  1.00  0.00     0.074 A 
HETATM   20 CL1  UNL     1      28.613  -2.554  52.973  1.00  0.00    -0.081 Cl
HETATM   21  C19 UNL     1      26.864  -0.453  53.372  1.00  0.00     0.056 A 
ENDBRANCH  12  14
ENDBRANCH  10  12
BRANCH   1  22
HETATM   22  N2  UNL     1      25.800   4.948  49.724  1.00  0.00    -0.327 N 
HETATM   23  C5  UNL     1      26.956   4.386  49.119  1.00  0.00     0.245 C 
HETATM   24  O1  UNL     1      27.150   3.146  49.024  1.00  0.00    -0.268 OA
HETATM   25  H8  UNL     1      25.712   5.979  49.763  1.00  0.00     0.169 HD
BRANCH  23  26
HETATM   26  C4  UNL     1      28.047   5.159  48.540  1.00  0.00     0.072 C 
HETATM   27  C3  UNL     1      27.667   6.391  48.189  1.00  0.00     0.008 C 
BRANCH  27  28
HETATM   28  C2  UNL     1      28.592   7.388  47.573  1.00  0.00     0.299 C 
BRANCH  28  29
HETATM   29  N1  UNL     1      29.525   7.774  48.583  1.00  0.00     0.089 N 
HETATM   30  C1  UNL     1      29.173   9.032  49.161  1.00  0.00     0.310 C 
BRANCH  29  31
HETATM   31  C21 UNL     1      30.891   7.658  48.186  1.00  0.00     0.303 C 
BRANCH  31  32
HETATM   32  C22 UNL     1      31.859   7.764  49.338  1.00  0.00     0.252 C 
HETATM   33  F2  UNL     1      31.668   6.701  50.225  1.00  0.00    -0.254 F 
ENDBRANCH  31  32
ENDBRANCH  29  31
ENDBRANCH  28  29
ENDBRANCH  27  28
ENDBRANCH  23  26
ENDBRANCH   1  22
TORSDOF 8
ENDMDL
MODEL 5
REMARK VINA RESULT:      -8.6      2.393      3.003
REMARK  8 active torsions:
REMARK  status: ('A' for Active; 'I' for Inactive)
REMARK    1  A    between atoms: N1_2  and  C2_3 
REMARK    2  A    between atoms: N1_2  and  C21_29 
REMARK    3  A    between atoms: C2_3  and  C3_4 
REMARK    4  A    between atoms: C4_5  and  C5_6 
REMARK       I    between atoms: C5_6  and  N2_8 
REMARK    5  A    between atoms: N2_8  and  C6_9 
REMARK    6  A    between atoms: C13_18  and  N5_19 
REMARK    7  A    between atoms: N5_19  and  C14_20 
REMARK    8  A    between atoms: C21_29  and  C22_30 
ROOT
HETATM    1  C6  UNL     1      24.794   4.067  49.792  1.00  0.00     0.019 A 
HETATM    2  C7  UNL     1      25.022   3.395  50.934  1.00  0.00     0.041 A 
HETATM    3  C8  UNL     1      23.981   2.374  51.148  1.00  0.00     0.019 A 
HETATM    4  C9  UNL     1      23.137   2.495  50.062  1.00  0.00     0.052 A 
HETATM    5  N3  UNL     1      22.038   1.696  49.921  1.00  0.00    -0.263 NA
HETATM    6  C10 UNL     1      21.816   0.784  50.895  1.00  0.00     0.142 A 
HETATM    7  C11 UNL     1      22.615   0.608  52.006  1.00  0.00     0.089 A 
HETATM    8  C12 UNL     1      22.356  -0.364  53.015  1.00  0.00     0.103 C 
HETATM    9  N4  UNL     1      22.161  -1.159  53.838  1.00  0.00    -0.191 NA
HETATM   10  C13 UNL     1      23.721   1.432  52.120  1.00  0.00     0.067 A 
HETATM   11  C20 UNL     1      23.570   3.561  49.120  1.00  0.00     0.117 A 
ENDROOT
BRANCH  10  12
HETATM   12  N5  UNL     1      24.584   1.309  53.223  1.00  0.00    -0.354 N 
HETATM   13  H11 UNL     1      24.117   1.700  54.074  1.00  0.00     0.166 HD
BRANCH  12  14
HETATM   14  C14 UNL     1      25.895   0.766  53.303  1.00  0.00     0.034 A 
HETATM   15  C15 UNL     1      26.127  -0.520  52.864  1.00  0.00     0.032 A 
HETATM   16  C16 UNL     1      27.389  -1.052  52.929  1.00  0.00     0.046 A 
HETATM   17  C17 UNL     1      28.392  -0.242  53.449  1.00  0.00     0.138 A 
HETATM   18  F1  UNL     1      29.663  -0.752  53.523  1.00  0.00    -0.204 F 
HETATM   19  C18 UNL     1      28.206   1.059  53.903  1.00  0.00     0.074 A 
HETATM   20 CL1  UNL     1      29.544   1.997  54.541  1.00  0.00    -0.081 Cl
HETATM   21  C19 UNL     1      26.918   1.543  53.815  1.00  0.00     0.056 A 
ENDBRANCH  12  14
ENDBRANCH  10  12
BRANCH   1  22
HETATM   22  N2  UNL     1      25.733   5.089  49.465  1.00  0.00    -0.327 N 
HETATM   23  C5  UNL     1      26.952   4.506  49.028  1.00  0.00     0.245 C 
HETATM   24  O1  UNL     1      27.133   3.263  48.953  1.00  0.00    -0.268 OA
HETATM   25  H8  UNL     1      25.660   6.122  49.497  1.00  0.00     0.169 HD
BRANCH  23  26
HETATM   26  C4  UNL     1      28.130   5.259  48.616  1.00  0.00     0.072 C 
HETATM   27  C3  UNL     1      27.829   6.502  48.226  1.00  0.00     0.008 C 
BRANCH  27  28
HETATM   28  C2  UNL     1      28.852   7.482  47.756  1.00  0.00     0.299 C 
BRANCH  28  29
HETATM   29  N1  UNL     1      29.196   8.298  48.878  1.00  0.00     0.089 N 
HETATM   30  C1  UNL     1      28.061   9.016  49.365  1.00  0.00     0.310 C 
BRANCH  29  31
HETATM   31  C21 UNL     1      30.368   9.088  48.682  1.00  0.00     0.303 C 
BRANCH  31  32
HETATM   32  C22 UNL     1      30.108  10.572  48.760  1.00  0.00     0.252 C 
HETATM   33  F2  UNL     1      30.916  11.149  49.742  1.00  0.00    -0.254 F 
ENDBRANCH  31  32
ENDBRANCH  29  31
ENDBRANCH  28  29
ENDBRANCH  27  28
ENDBRANCH  23  26
ENDBRANCH   1  22
TORSDOF 8
ENDMDL
MODEL 6
REMARK VINA RESULT:      -8.3      2.665      3.439
REMARK  8 active torsions:
REMARK  status: ('A' for Active; 'I' for Inactive)
REMARK    1  A    between atoms: N1_2  and  C2_3 
REMARK    2  A    between atoms: N1_2  and  C21_29 
REMARK    3  A    between atoms: C2_3  and  C3_4 
REMARK    4  A    between atoms: C4_5  and  C5_6 
REMARK       I    between atoms: C5_6  and  N2_8 
REMARK    5  A    between atoms: N2_8  and  C6_9 
REMARK    6  A    between atoms: C13_18  and  N5_19 
REMARK    7  A    between atoms: N5_19  and  C14_20 
REMARK    8  A    between atoms: C21_29  and  C22_30 
ROOT
HETATM    1  C6  UNL     1      24.419   3.558  51.043  1.00  0.00     0.019 A 
HETATM    2  C7  UNL     1      24.749   2.688  52.014  1.00  0.00     0.041 A 
HETATM    3  C8  UNL     1      23.626   1.774  52.289  1.00  0.00     0.019 A 
HETATM    4  C9  UNL     1      22.628   2.166  51.419  1.00  0.00     0.052 A 
HETATM    5  N3  UNL     1      21.417   1.534  51.393  1.00  0.00    -0.263 NA
HETATM    6  C10 UNL     1      21.244   0.508  52.257  1.00  0.00     0.142 A 
HETATM    7  C11 UNL     1      22.194   0.063  53.152  1.00  0.00     0.089 A 
HETATM    8  C12 UNL     1      21.982  -1.023  54.049  1.00  0.00     0.103 C 
HETATM    9  N4  UNL     1      21.824  -1.912  54.778  1.00  0.00    -0.191 NA
HETATM   10  C13 UNL     1      23.411   0.724  53.155  1.00  0.00     0.067 A 
HETATM   11  C20 UNL     1      23.035   3.313  50.565  1.00  0.00     0.117 A 
ENDROOT
BRANCH  10  12
HETATM   12  N5  UNL     1      24.430   0.324  54.037  1.00  0.00    -0.354 N 
HETATM   13  H11 UNL     1      24.066   0.342  55.018  1.00  0.00     0.166 HD
BRANCH  12  14
HETATM   14  C14 UNL     1      25.771  -0.063  53.770  1.00  0.00     0.034 A 
HETATM   15  C15 UNL     1      26.017  -1.195  53.023  1.00  0.00     0.032 A 
HETATM   16  C16 UNL     1      27.305  -1.575  52.752  1.00  0.00     0.046 A 
HETATM   17  C17 UNL     1      28.322  -0.774  53.260  1.00  0.00     0.138 A 
HETATM   18  F1  UNL     1      29.620  -1.134  53.002  1.00  0.00    -0.204 F 
HETATM   19  C18 UNL     1      28.123   0.374  54.018  1.00  0.00     0.074 A 
HETATM   20 CL1  UNL     1      29.480   1.314  54.612  1.00  0.00    -0.081 Cl
HETATM   21  C19 UNL     1      26.808   0.709  54.260  1.00  0.00     0.056 A 
ENDBRANCH  12  14
ENDBRANCH  10  12
BRANCH   1  22
HETATM   22  N2  UNL     1      25.423   4.504  50.679  1.00  0.00    -0.327 N 
HETATM   23  C5  UNL     1      26.302   3.933  49.720  1.00  0.00     0.245 C 
HETATM   24  O1  UNL     1      26.176   2.760  49.282  1.00  0.00    -0.268 OA
HETATM   25  H8  UNL     1      25.592   5.477  50.989  1.00  0.00     0.169 HD
BRANCH  23  26
HETATM   26  C4  UNL     1      27.444   4.620  49.130  1.00  0.00     0.072 C 
HETATM   27  C3  UNL     1      27.113   5.809  48.616  1.00  0.00     0.008 C 
BRANCH  27  28
HETATM   28  C2  UNL     1      28.095   6.716  47.954  1.00  0.00     0.299 C 
BRANCH  28  29
HETATM   29  N1  UNL     1      27.343   7.694  47.233  1.00  0.00     0.089 N 
HETATM   30  C1  UNL     1      28.056   8.928  47.135  1.00  0.00     0.310 C 
BRANCH  29  31
HETATM   31  C21 UNL     1      25.989   7.816  47.663  1.00  0.00     0.303 C 
BRANCH  31  32
HETATM   32  C22 UNL     1      25.067   8.345  46.593  1.00  0.00     0.252 C 
HETATM   33  F2  UNL     1      24.061   7.413  46.324  1.00  0.00    -0.254 F 
ENDBRANCH  31  32
ENDBRANCH  29  31
ENDBRANCH  28  29
ENDBRANCH  27  28
ENDBRANCH  23  26
ENDBRANCH   1  22
TORSDOF 8
ENDMDL
MODEL 7
REMARK VINA RESULT:      -8.3      2.039      2.908
REMARK  8 active torsions:
REMARK  status: ('A' for Active; 'I' for Inactive)
REMARK    1  A    between atoms: N1_2  and  C2_3 
REMARK    2  A    between atoms: N1_2  and  C21_29 
REMARK    3  A    between atoms: C2_3  and  C3_4 
REMARK    4  A    between atoms: C4_5  and  C5_6 
REMARK       I    between atoms: C5_6  and  N2_8 
REMARK    5  A    between atoms: N2_8  and  C6_9 
REMARK    6  A    between atoms: C13_18  and  N5_19 
REMARK    7  A    between atoms: N5_19  and  C14_20 
REMARK    8  A    between atoms: C21_29  and  C22_30 
ROOT
HETATM    1  C6  UNL     1      22.529   3.016  50.289  1.00  0.00     0.019 A 
HETATM    2  C7  UNL     1      23.308   2.070  50.843  1.00  0.00     0.041 A 
HETATM    3  C8  UNL     1      22.615   1.432  51.976  1.00  0.00     0.019 A 
HETATM    4  C9  UNL     1      21.389   2.064  52.044  1.00  0.00     0.052 A 
HETATM    5  N3  UNL     1      20.465   1.728  52.992  1.00  0.00    -0.263 NA
HETATM    6  C10 UNL     1      20.808   0.747  53.859  1.00  0.00     0.142 A 
HETATM    7  C11 UNL     1      22.012   0.074  53.851  1.00  0.00     0.089 A 
HETATM    8  C12 UNL     1      22.343  -0.957  54.777  1.00  0.00     0.103 C 
HETATM    9  N4  UNL     1      22.620  -1.804  55.520  1.00  0.00    -0.191 NA
HETATM   10  C13 UNL     1      22.927   0.438  52.878  1.00  0.00     0.067 A 
HETATM   11  C20 UNL     1      21.228   3.108  50.997  1.00  0.00     0.117 A 
ENDROOT
BRANCH  10  12
HETATM   12  N5  UNL     1      24.174  -0.207  52.803  1.00  0.00    -0.354 N 
HETATM   13  H11 UNL     1      24.040  -1.181  52.444  1.00  0.00     0.166 HD
BRANCH  12  14
HETATM   14  C14 UNL     1      25.472   0.270  53.130  1.00  0.00     0.034 A 
HETATM   15  C15 UNL     1      25.632   1.572  53.555  1.00  0.00     0.032 A 
HETATM   16  C16 UNL     1      26.877   2.041  53.881  1.00  0.00     0.046 A 
HETATM   17  C17 UNL     1      27.941   1.153  53.762  1.00  0.00     0.138 A 
HETATM   18  F1  UNL     1      29.196   1.600  54.083  1.00  0.00    -0.204 F 
HETATM   19  C18 UNL     1      27.828  -0.166  53.338  1.00  0.00     0.074 A 
HETATM   20 CL1  UNL     1      29.238  -1.204  53.223  1.00  0.00    -0.081 Cl
HETATM   21  C19 UNL     1      26.553  -0.585  53.023  1.00  0.00     0.056 A 
ENDBRANCH  12  14
ENDBRANCH  10  12
BRANCH   1  22
HETATM   22  N2  UNL     1      23.085   3.716  49.177  1.00  0.00    -0.327 N 
HETATM   23  C5  UNL     1      23.683   4.928  49.616  1.00  0.00     0.245 C 
HETATM   24  O1  UNL     1      23.698   5.291  50.820  1.00  0.00    -0.268 OA
HETATM   25  H8  UNL     1      23.114   3.485  48.167  1.00  0.00     0.169 HD
BRANCH  23  26
HETATM   26  C4  UNL     1      24.343   5.889  48.742  1.00  0.00     0.072 C 
HETATM   27  C3  UNL     1      25.663   5.942  48.948  1.00  0.00     0.008 C 
BRANCH  27  28
HETATM   28  C2  UNL     1      26.575   6.845  48.186  1.00  0.00     0.299 C 
BRANCH  28  29
HETATM   29  N1  UNL     1      27.810   6.147  48.017  1.00  0.00     0.089 N 
HETATM   30  C1  UNL     1      27.767   4.860  48.636  1.00  0.00     0.310 C 
BRANCH  29  31
HETATM   31  C21 UNL     1      28.963   6.925  48.330  1.00  0.00     0.303 C 
BRANCH  31  32
HETATM   32  C22 UNL     1      30.261   6.198  48.080  1.00  0.00     0.252 C 
HETATM   33  F2  UNL     1      30.828   5.799  49.293  1.00  0.00    -0.254 F 
ENDBRANCH  31  32
ENDBRANCH  29  31
ENDBRANCH  28  29
ENDBRANCH  27  28
ENDBRANCH  23  26
ENDBRANCH   1  22
TORSDOF 8
ENDMDL
MODEL 8
REMARK VINA RESULT:      -8.0      3.705      5.437
REMARK  8 active torsions:
REMARK  status: ('A' for Active; 'I' for Inactive)
REMARK    1  A    between atoms: N1_2  and  C2_3 
REMARK    2  A    between atoms: N1_2  and  C21_29 
REMARK    3  A    between atoms: C2_3  and  C3_4 
REMARK    4  A    between atoms: C4_5  and  C5_6 
REMARK       I    between atoms: C5_6  and  N2_8 
REMARK    5  A    between atoms: N2_8  and  C6_9 
REMARK    6  A    between atoms: C13_18  and  N5_19 
REMARK    7  A    between atoms: N5_19  and  C14_20 
REMARK    8  A    between atoms: C21_29  and  C22_30 
ROOT
HETATM    1  C6  UNL     1      25.321   3.166  51.346  1.00  0.00     0.019 A 
HETATM    2  C7  UNL     1      24.088   2.842  51.774  1.00  0.00     0.041 A 
HETATM    3  C8  UNL     1      24.114   1.557  52.494  1.00  0.00     0.019 A 
HETATM    4  C9  UNL     1      25.435   1.156  52.457  1.00  0.00     0.052 A 
HETATM    5  N3  UNL     1      25.841  -0.014  53.033  1.00  0.00    -0.263 NA
HETATM    6  C10 UNL     1      24.889  -0.760  53.640  1.00  0.00     0.142 A 
HETATM    7  C11 UNL     1      23.554  -0.423  53.715  1.00  0.00     0.089 A 
HETATM    8  C12 UNL     1      22.575  -1.229  54.364  1.00  0.00     0.103 C 
HETATM    9  N4  UNL     1      21.770  -1.872  54.899  1.00  0.00    -0.191 NA
HETATM   10  C13 UNL     1      23.174   0.769  53.122  1.00  0.00     0.067 A 
HETATM   11  C20 UNL     1      26.304   2.125  51.737  1.00  0.00     0.117 A 
ENDROOT
BRANCH  10  12
HETATM   12  N5  UNL     1      21.830   1.181  53.162  1.00  0.00    -0.354 N 
HETATM   13  H11 UNL     1      21.682   1.800  53.993  1.00  0.00     0.166 HD
BRANCH  12  14
HETATM   14  C14 UNL     1      20.754   0.881  52.283  1.00  0.00     0.034 A 
HETATM   15  C15 UNL     1      20.807   1.304  50.972  1.00  0.00     0.032 A 
HETATM   16  C16 UNL     1      19.780   1.013  50.113  1.00  0.00     0.046 A 
HETATM   17  C17 UNL     1      18.711   0.288  50.627  1.00  0.00     0.138 A 
HETATM   18  F1  UNL     1      17.671  -0.015  49.786  1.00  0.00    -0.204 F 
HETATM   19  C18 UNL     1      18.613  -0.159  51.939  1.00  0.00     0.074 A 
HETATM   20 CL1  UNL     1      17.216  -1.070  52.485  1.00  0.00    -0.081 Cl
HETATM   21  C19 UNL     1      19.674   0.162  52.759  1.00  0.00     0.056 A 
ENDBRANCH  12  14
ENDBRANCH  10  12
BRANCH   1  22
HETATM   22  N2  UNL     1      25.435   4.394  50.629  1.00  0.00    -0.327 N 
HETATM   23  C5  UNL     1      26.434   4.278  49.625  1.00  0.00     0.245 C 
HETATM   24  O1  UNL     1      27.095   3.226  49.430  1.00  0.00    -0.268 OA
HETATM   25  H8  UNL     1      24.932   5.294  50.727  1.00  0.00     0.169 HD
BRANCH  23  26
HETATM   26  C4  UNL     1      26.813   5.345  48.708  1.00  0.00     0.072 C 
HETATM   27  C3  UNL     1      28.138   5.445  48.563  1.00  0.00     0.008 C 
BRANCH  27  28
HETATM   28  C2  UNL     1      28.791   6.455  47.680  1.00  0.00     0.299 C 
BRANCH  28  29
HETATM   29  N1  UNL     1      29.717   7.183  48.489  1.00  0.00     0.089 N 
HETATM   30  C1  UNL     1      29.387   8.572  48.533  1.00  0.00     0.310 C 
BRANCH  29  31
HETATM   31  C21 UNL     1      31.085   6.900  48.202  1.00  0.00     0.303 C 
BRANCH  31  32
HETATM   32  C22 UNL     1      31.806   6.219  49.338  1.00  0.00     0.252 C 
HETATM   33  F2  UNL     1      32.167   4.921  48.968  1.00  0.00    -0.254 F 
ENDBRANCH  31  32
ENDBRANCH  29  31
ENDBRANCH  28  29
ENDBRANCH  27  28
ENDBRANCH  23  26
ENDBRANCH   1  22
TORSDOF 8
ENDMDL
MODEL 9
REMARK VINA RESULT:      -8.0      1.955      2.143
REMARK  8 active torsions:
REMARK  status: ('A' for Active; 'I' for Inactive)
REMARK    1  A    between atoms: N1_2  and  C2_3 
REMARK    2  A    between atoms: N1_2  and  C21_29 
REMARK    3  A    between atoms: C2_3  and  C3_4 
REMARK    4  A    between atoms: C4_5  and  C5_6 
REMARK       I    between atoms: C5_6  and  N2_8 
REMARK    5  A    between atoms: N2_8  and  C6_9 
REMARK    6  A    between atoms: C13_18  and  N5_19 
REMARK    7  A    between atoms: N5_19  and  C14_20 
REMARK    8  A    between atoms: C21_29  and  C22_30 
ROOT
HETATM    1  C6  UNL     1      26.395   4.367  49.325  1.00  0.00     0.019 A 
HETATM    2  C7  UNL     1      26.262   3.195  49.971  1.00  0.00     0.041 A 
HETATM    3  C8  UNL     1      24.958   3.130  50.655  1.00  0.00     0.019 A 
HETATM    4  C9  UNL     1      24.345   4.333  50.367  1.00  0.00     0.052 A 
HETATM    5  N3  UNL     1      23.101   4.631  50.845  1.00  0.00    -0.263 NA
HETATM    6  C10 UNL     1      22.499   3.694  51.612  1.00  0.00     0.142 A 
HETATM    7  C11 UNL     1      23.050   2.473  51.940  1.00  0.00     0.089 A 
HETATM    8  C12 UNL     1      22.390   1.504  52.750  1.00  0.00     0.103 C 
HETATM    9  N4  UNL     1      21.859   0.703  53.400  1.00  0.00    -0.191 NA
HETATM   10  C13 UNL     1      24.313   2.200  51.441  1.00  0.00     0.067 A 
HETATM   11  C20 UNL     1      25.188   5.211  49.512  1.00  0.00     0.117 A 
ENDROOT
BRANCH  10  12
HETATM   12  N5  UNL     1      24.938   0.974  51.730  1.00  0.00    -0.354 N 
HETATM   13  H11 UNL     1      24.535   0.227  51.118  1.00  0.00     0.166 HD
BRANCH  12  14
HETATM   14  C14 UNL     1      25.958   0.666  52.671  1.00  0.00     0.034 A 
HETATM   15  C15 UNL     1      26.058   1.403  53.832  1.00  0.00     0.032 A 
HETATM   16  C16 UNL     1      27.032   1.110  54.750  1.00  0.00     0.046 A 
HETATM   17  C17 UNL     1      27.888   0.056  54.452  1.00  0.00     0.138 A 
HETATM   18  F1  UNL     1      28.871  -0.256  55.357  1.00  0.00    -0.204 F 
HETATM   19  C18 UNL     1      27.826  -0.714  53.296  1.00  0.00     0.074 A 
HETATM   20 CL1  UNL     1      28.958  -2.024  53.017  1.00  0.00    -0.081 Cl
HETATM   21  C19 UNL     1      26.828  -0.375  52.407  1.00  0.00     0.056 A 
ENDBRANCH  12  14
ENDBRANCH  10  12
BRANCH   1  22
HETATM   22  N2  UNL     1      27.619   4.560  48.619  1.00  0.00    -0.327 N 
HETATM   23  C5  UNL     1      27.864   5.949  48.445  1.00  0.00     0.245 C 
HETATM   24  O1  UNL     1      27.089   6.844  48.870  1.00  0.00    -0.268 OA
HETATM   25  H8  UNL     1      28.307   3.884  48.242  1.00  0.00     0.169 HD
BRANCH  23  26
HETATM   26  C4  UNL     1      29.026   6.506  47.764  1.00  0.00     0.072 C 
HETATM   27  C3  UNL     1      30.124   5.764  47.939  1.00  0.00     0.008 C 
BRANCH  27  28
HETATM   28  C2  UNL     1      31.449   6.111  47.348  1.00  0.00     0.299 C 
BRANCH  28  29
HETATM   29  N1  UNL     1      32.449   5.592  48.227  1.00  0.00     0.089 N 
HETATM   30  C1  UNL     1      32.160   5.915  49.588  1.00  0.00     0.310 C 
BRANCH  29  31
HETATM   31  C21 UNL     1      33.786   5.872  47.815  1.00  0.00     0.303 C 
BRANCH  31  32
HETATM   32  C22 UNL     1      34.809   4.959  48.443  1.00  0.00     0.252 C 
HETATM   33  F2  UNL     1      35.578   5.667  49.370  1.00  0.00    -0.254 F 
ENDBRANCH  31  32
ENDBRANCH  29  31
ENDBRANCH  28  29
ENDBRANCH  27  28
ENDBRANCH  23  26
ENDBRANCH   1  22
TORSDOF 8
ENDMDL
