MODEL 1
REMARK VINA RESULT:      -7.2      0.000      0.000
REMARK  5 active torsions:
REMARK  status: ('A' for Active; 'I' for Inactive)
REMARK    1  A    between atoms: C2_2  and  C4_4 
REMARK    2  A    between atoms: C4_4  and  C5_5 
REMARK    3  A    between atoms: C5_5  and  C7_7 
REMARK    4  A    between atoms: C7_7  and  N1_8 
REMARK    5  A    between atoms: C13_16  and  C14_17 
REMARK       I    between atoms: C14_17  and  N4_19 
ROOT
HETATM    1  N1  UNL     1      24.138   2.125  52.546  1.00  0.00     0.113 N 
HETATM    2  C8  UNL     1      24.012   3.562  52.871  1.00  0.00     0.396 C 
HETATM    3  N2  UNL     1      22.819   4.032  52.211  1.00  0.00    -0.360 N 
HETATM    4  C9  UNL     1      23.216   3.728  50.900  1.00  0.00     0.203 C 
HETATM    5  N3  UNL     1      23.694   3.464  49.716  1.00  0.00    -0.257 NA
HETATM    6  C10 UNL     1      25.105   3.509  49.477  1.00  0.00     0.114 C 
HETATM    7  C11 UNL     1      26.283   3.146  50.052  1.00  0.00     0.003 C 
HETATM    8  C12 UNL     1      25.829   2.516  51.316  1.00  0.00     0.058 C 
HETATM    9  C13 UNL     1      26.533   1.975  52.273  1.00  0.00     0.024 C 
HETATM   10  C16 UNL     1      25.352   1.604  53.133  1.00  0.00     0.315 C 
HETATM   11  H14 UNL     1      21.875   4.461  52.267  1.00  0.00     0.162 HD
ENDROOT
BRANCH   1  12
HETATM   12  C7  UNL     1      22.961   1.454  53.097  1.00  0.00     0.308 C 
BRANCH  12  13
HETATM   13  C5  UNL     1      22.369   0.410  52.286  1.00  0.00    -0.061 C 
HETATM   14  C6  UNL     1      21.604   0.417  51.227  1.00  0.00     0.016 C 
BRANCH  13  15
HETATM   15  C4  UNL     1      22.789  -0.877  52.874  1.00  0.00     0.039 C 
BRANCH  15  16
HETATM   16  C2  UNL     1      22.152  -1.234  54.143  1.00  0.00    -0.049 C 
HETATM   17  C1  UNL     1      20.834  -1.465  54.284  1.00  0.00     0.038 C 
HETATM   18  C3  UNL     1      22.963  -1.338  55.387  1.00  0.00     0.011 C 
ENDBRANCH  15  16
ENDBRANCH  13  15
ENDBRANCH  12  13
ENDBRANCH   1  12
BRANCH   9  19
HETATM   19  C14 UNL     1      27.824   1.576  52.891  1.00  0.00     0.245 C 
HETATM   20  O1  UNL     1      28.658   2.532  53.018  1.00  0.00    -0.268 OA
HETATM   21  N4  UNL     1      28.119   0.269  53.304  1.00  0.00    -0.362 N 
HETATM   22  C15 UNL     1      29.465   0.283  53.854  1.00  0.00     0.149 C 
HETATM   23  H19 UNL     1      27.364  -0.426  53.150  1.00  0.00     0.162 HD
ENDBRANCH   9  19
TORSDOF 5
ENDMDL
MODEL 2
REMARK VINA RESULT:      -6.6      1.119      2.207
REMARK  5 active torsions:
REMARK  status: ('A' for Active; 'I' for Inactive)
REMARK    1  A    between atoms: C2_2  and  C4_4 
REMARK    2  A    between atoms: C4_4  and  C5_5 
REMARK    3  A    between atoms: C5_5  and  C7_7 
REMARK    4  A    between atoms: C7_7  and  N1_8 
REMARK    5  A    between atoms: C13_16  and  C14_17 
REMARK       I    between atoms: C14_17  and  N4_19 
ROOT
HETATM    1  N1  UNL     1      23.777   2.423  52.449  1.00  0.00     0.113 N 
HETATM    2  C8  UNL     1      23.703   3.884  52.665  1.00  0.00     0.396 C 
HETATM    3  N2  UNL     1      22.574   4.357  51.902  1.00  0.00    -0.360 N 
HETATM    4  C9  UNL     1      23.030   3.942  50.642  1.00  0.00     0.203 C 
HETATM    5  N3  UNL     1      23.561   3.572  49.511  1.00  0.00    -0.257 NA
HETATM    6  C10 UNL     1      24.985   3.536  49.355  1.00  0.00     0.114 C 
HETATM    7  C11 UNL     1      26.109   3.163  50.024  1.00  0.00     0.003 C 
HETATM    8  C12 UNL     1      25.552   2.648  51.300  1.00  0.00     0.058 C 
HETATM    9  C13 UNL     1      26.173   2.146  52.333  1.00  0.00     0.024 C 
HETATM   10  C16 UNL     1      24.928   1.892  53.144  1.00  0.00     0.315 C 
HETATM   11  H14 UNL     1      21.650   4.831  51.871  1.00  0.00     0.162 HD
ENDROOT
BRANCH   1  12
HETATM   12  C7  UNL     1      22.538   1.847  52.973  1.00  0.00     0.308 C 
BRANCH  12  13
HETATM   13  C5  UNL     1      22.341   0.428  52.761  1.00  0.00    -0.061 C 
HETATM   14  C6  UNL     1      22.340  -0.610  53.555  1.00  0.00     0.016 C 
BRANCH  13  15
HETATM   15  C4  UNL     1      22.098   0.241  51.317  1.00  0.00     0.039 C 
BRANCH  15  16
HETATM   16  C2  UNL     1      20.762   0.610  50.844  1.00  0.00    -0.049 C 
HETATM   17  C1  UNL     1      19.624   0.320  51.501  1.00  0.00     0.038 C 
HETATM   18  C3  UNL     1      20.595   1.329  49.551  1.00  0.00     0.011 C 
ENDBRANCH  15  16
ENDBRANCH  13  15
ENDBRANCH  12  13
ENDBRANCH   1  12
BRANCH   9  19
HETATM   19  C14 UNL     1      27.405   1.736  53.054  1.00  0.00     0.245 C 
HETATM   20  O1  UNL     1      27.741   0.520  52.863  1.00  0.00    -0.268 OA
HETATM   21  N4  UNL     1      28.148   2.593  53.878  1.00  0.00    -0.362 N 
HETATM   22  C15 UNL     1      29.271   1.829  54.396  1.00  0.00     0.149 C 
HETATM   23  H19 UNL     1      27.779   3.561  53.959  1.00  0.00     0.162 HD
ENDBRANCH   9  19
TORSDOF 5
ENDMDL
MODEL 3
REMARK VINA RESULT:      -6.5      2.478      4.108
REMARK  5 active torsions:
REMARK  status: ('A' for Active; 'I' for Inactive)
REMARK    1  A    between atoms: C2_2  and  C4_4 
REMARK    2  A    between atoms: C4_4  and  C5_5 
REMARK    3  A    between atoms: C5_5  and  C7_7 
REMARK    4  A    between atoms: C7_7  and  N1_8 
REMARK    5  A    between atoms: C13_16  and  C14_17 
REMARK       I    between atoms: C14_17  and  N4_19 
ROOT
HETATM    1  N1  UNL     1      23.809   2.612  51.641  1.00  0.00     0.113 N 
HETATM    2  C8  UNL     1      22.599   3.438  51.839  1.00  0.00     0.396 C 
HETATM    3  N2  UNL     1      21.540   2.535  52.219  1.00  0.00    -0.360 N 
HETATM    4  C9  UNL     1      21.564   1.743  51.062  1.00  0.00     0.203 C 
HETATM    5  N3  UNL     1      21.621   1.099  49.930  1.00  0.00    -0.257 NA
HETATM    6  C10 UNL     1      22.042   1.769  48.736  1.00  0.00     0.114 C 
HETATM    7  C11 UNL     1      22.977   2.656  48.299  1.00  0.00     0.003 C 
HETATM    8  C12 UNL     1      23.735   2.943  49.542  1.00  0.00     0.058 C 
HETATM    9  C13 UNL     1      24.761   3.729  49.724  1.00  0.00     0.024 C 
HETATM   10  C16 UNL     1      24.899   3.452  51.200  1.00  0.00     0.315 C 
HETATM   11  H14 UNL     1      20.825   2.236  52.911  1.00  0.00     0.162 HD
ENDROOT
BRANCH   1  12
HETATM   12  C7  UNL     1      24.118   1.987  52.928  1.00  0.00     0.308 C 
BRANCH  12  13
HETATM   13  C5  UNL     1      24.337   0.555  52.919  1.00  0.00    -0.061 C 
HETATM   14  C6  UNL     1      23.635  -0.465  53.337  1.00  0.00     0.016 C 
BRANCH  13  15
HETATM   15  C4  UNL     1      25.649   0.327  52.283  1.00  0.00     0.039 C 
BRANCH  15  16
HETATM   16  C2  UNL     1      26.617  -0.432  53.078  1.00  0.00    -0.049 C 
HETATM   17  C1  UNL     1      27.219   0.042  54.184  1.00  0.00     0.038 C 
HETATM   18  C3  UNL     1      27.012  -1.807  52.666  1.00  0.00     0.011 C 
ENDBRANCH  15  16
ENDBRANCH  13  15
ENDBRANCH  12  13
ENDBRANCH   1  12
BRANCH   9  19
HETATM   19  C14 UNL     1      25.782   4.693  49.237  1.00  0.00     0.245 C 
HETATM   20  O1  UNL     1      25.358   5.891  49.130  1.00  0.00    -0.268 OA
HETATM   21  N4  UNL     1      27.100   4.336  48.919  1.00  0.00    -0.362 N 
HETATM   22  C15 UNL     1      27.782   5.545  48.486  1.00  0.00     0.149 C 
HETATM   23  H19 UNL     1      27.331   3.332  49.045  1.00  0.00     0.162 HD
ENDBRANCH   9  19
TORSDOF 5
ENDMDL
MODEL 4
REMARK VINA RESULT:      -6.4      2.013      5.038
REMARK  5 active torsions:
REMARK  status: ('A' for Active; 'I' for Inactive)
REMARK    1  A    between atoms: C2_2  and  C4_4 
REMARK    2  A    between atoms: C4_4  and  C5_5 
REMARK    3  A    between atoms: C5_5  and  C7_7 
REMARK    4  A    between atoms: C7_7  and  N1_8 
REMARK    5  A    between atoms: C13_16  and  C14_17 
REMARK       I    between atoms: C14_17  and  N4_19 
ROOT
HETATM    1  N1  UNL     1      22.861   1.575  52.120  1.00  0.00     0.113 N 
HETATM    2  C8  UNL     1      22.071   0.616  51.317  1.00  0.00     0.396 C 
HETATM    3  N2  UNL     1      20.683   0.957  51.515  1.00  0.00    -0.360 N 
HETATM    4  C9  UNL     1      20.655   0.768  52.904  1.00  0.00     0.203 C 
HETATM    5  N3  UNL     1      20.710   0.512  54.182  1.00  0.00    -0.257 NA
HETATM    6  C10 UNL     1      21.627  -0.465  54.687  1.00  0.00     0.114 C 
HETATM    7  C11 UNL     1      22.911  -0.887  54.529  1.00  0.00     0.003 C 
HETATM    8  C12 UNL     1      23.412   0.035  53.480  1.00  0.00     0.058 C 
HETATM    9  C13 UNL     1      24.594   0.101  52.930  1.00  0.00     0.024 C 
HETATM   10  C16 UNL     1      24.265   1.251  52.011  1.00  0.00     0.315 C 
HETATM   11  H14 UNL     1      19.770   1.254  51.120  1.00  0.00     0.162 HD
ENDROOT
BRANCH   1  12
HETATM   12  C7  UNL     1      22.589   2.910  51.587  1.00  0.00     0.308 C 
BRANCH  12  13
HETATM   13  C5  UNL     1      23.287   3.280  50.373  1.00  0.00    -0.061 C 
HETATM   14  C6  UNL     1      23.178   2.912  49.124  1.00  0.00     0.016 C 
BRANCH  13  15
HETATM   15  C4  UNL     1      24.302   4.282  50.752  1.00  0.00     0.039 C 
BRANCH  15  16
HETATM   16  C2  UNL     1      25.482   4.351  49.887  1.00  0.00    -0.049 C 
HETATM   17  C1  UNL     1      25.730   5.359  49.032  1.00  0.00     0.038 C 
HETATM   18  C3  UNL     1      26.486   3.252  49.900  1.00  0.00     0.011 C 
ENDBRANCH  15  16
ENDBRANCH  13  15
ENDBRANCH  12  13
ENDBRANCH   1  12
BRANCH   9  19
HETATM   19  C14 UNL     1      25.997  -0.361  52.769  1.00  0.00     0.245 C 
HETATM   20  O1  UNL     1      26.601   0.147  51.767  1.00  0.00    -0.268 OA
HETATM   21  N4  UNL     1      26.620  -1.274  53.631  1.00  0.00    -0.362 N 
HETATM   22  C15 UNL     1      27.977  -1.469  53.146  1.00  0.00     0.149 C 
HETATM   23  H19 UNL     1      26.030  -1.622  54.412  1.00  0.00     0.162 HD
ENDBRANCH   9  19
TORSDOF 5
ENDMDL
MODEL 5
REMARK VINA RESULT:      -6.3      2.646      6.470
REMARK  5 active torsions:
REMARK  status: ('A' for Active; 'I' for Inactive)
REMARK    1  A    between atoms: C2_2  and  C4_4 
REMARK    2  A    between atoms: C4_4  and  C5_5 
REMARK    3  A    between atoms: C5_5  and  C7_7 
REMARK    4  A    between atoms: C7_7  and  N1_8 
REMARK    5  A    between atoms: C13_16  and  C14_17 
REMARK       I    between atoms: C14_17  and  N4_19 
ROOT
HETATM    1  N1  UNL     1      24.619   1.696  51.955  1.00  0.00     0.113 N 
HETATM    2  C8  UNL     1      24.577   2.596  53.127  1.00  0.00     0.396 C 
HETATM    3  N2  UNL     1      25.932   2.715  53.605  1.00  0.00    -0.360 N 
HETATM    4  C9  UNL     1      26.140   1.355  53.879  1.00  0.00     0.203 C 
HETATM    5  N3  UNL     1      26.220   0.083  54.155  1.00  0.00    -0.257 NA
HETATM    6  C10 UNL     1      25.047  -0.655  54.516  1.00  0.00     0.114 C 
HETATM    7  C11 UNL     1      23.741  -0.796  54.165  1.00  0.00     0.003 C 
HETATM    8  C12 UNL     1      23.616   0.170  53.046  1.00  0.00     0.058 C 
HETATM    9  C13 UNL     1      22.575   0.460  52.313  1.00  0.00     0.024 C 
HETATM   10  C16 UNL     1      23.277   1.487  51.460  1.00  0.00     0.315 C 
HETATM   11  H14 UNL     1      26.756   3.310  53.821  1.00  0.00     0.162 HD
ENDROOT
BRANCH   1  12
HETATM   12  C7  UNL     1      25.454   2.344  50.943  1.00  0.00     0.308 C 
BRANCH  12  13
HETATM   13  C5  UNL     1      24.789   3.260  50.041  1.00  0.00    -0.061 C 
HETATM   14  C6  UNL     1      23.890   3.109  49.104  1.00  0.00     0.016 C 
BRANCH  13  15
HETATM   15  C4  UNL     1      25.314   4.608  50.336  1.00  0.00     0.039 C 
BRANCH  15  16
HETATM   16  C2  UNL     1      26.091   5.235  49.265  1.00  0.00    -0.049 C 
HETATM   17  C1  UNL     1      25.718   6.357  48.622  1.00  0.00     0.038 C 
HETATM   18  C3  UNL     1      27.368   4.622  48.806  1.00  0.00     0.011 C 
ENDBRANCH  15  16
ENDBRANCH  13  15
ENDBRANCH  12  13
ENDBRANCH   1  12
BRANCH   9  19
HETATM   19  C14 UNL     1      21.149   0.295  51.931  1.00  0.00     0.245 C 
HETATM   20  O1  UNL     1      20.913   0.499  50.694  1.00  0.00    -0.268 OA
HETATM   21  N4  UNL     1      20.136  -0.053  52.836  1.00  0.00    -0.362 N 
HETATM   22  C15 UNL     1      18.891  -0.116  52.087  1.00  0.00     0.149 C 
HETATM   23  H19 UNL     1      20.445  -0.193  53.817  1.00  0.00     0.162 HD
ENDBRANCH   9  19
TORSDOF 5
ENDMDL
MODEL 6
REMARK VINA RESULT:      -6.3      3.357      5.918
REMARK  5 active torsions:
REMARK  status: ('A' for Active; 'I' for Inactive)
REMARK    1  A    between atoms: C2_2  and  C4_4 
REMARK    2  A    between atoms: C4_4  and  C5_5 
REMARK    3  A    between atoms: C5_5  and  C7_7 
REMARK    4  A    between atoms: C7_7  and  N1_8 
REMARK    5  A    between atoms: C13_16  and  C14_17 
REMARK       I    between atoms: C14_17  and  N4_19 
ROOT
HETATM    1  N1  UNL     1      22.401   1.403  51.394  1.00  0.00     0.113 N 
HETATM    2  C8  UNL     1      22.223   1.581  49.937  1.00  0.00     0.396 C 
HETATM    3  N2  UNL     1      23.072   2.680  49.548  1.00  0.00    -0.360 N 
HETATM    4  C9  UNL     1      22.480   3.654  50.364  1.00  0.00     0.203 C 
HETATM    5  N3  UNL     1      21.831   4.502  51.113  1.00  0.00    -0.257 NA
HETATM    6  C10 UNL     1      20.440   4.306  51.390  1.00  0.00     0.114 C 
HETATM    7  C11 UNL     1      19.557   3.321  51.710  1.00  0.00     0.003 C 
HETATM    8  C12 UNL     1      20.433   2.125  51.757  1.00  0.00     0.058 C 
HETATM    9  C13 UNL     1      20.128   0.884  52.024  1.00  0.00     0.024 C 
HETATM   10  C16 UNL     1      21.529   0.350  51.860  1.00  0.00     0.315 C 
HETATM   11  H14 UNL     1      23.862   3.042  48.978  1.00  0.00     0.162 HD
ENDROOT
BRANCH   1  12
HETATM   12  C7  UNL     1      23.805   1.058  51.618  1.00  0.00     0.308 C 
BRANCH  12  13
HETATM   13  C5  UNL     1      24.424   1.596  52.812  1.00  0.00    -0.061 C 
HETATM   14  C6  UNL     1      24.509   2.797  53.319  1.00  0.00     0.016 C 
BRANCH  13  15
HETATM   15  C4  UNL     1      25.053   0.461  53.515  1.00  0.00     0.039 C 
BRANCH  15  16
HETATM   16  C2  UNL     1      26.285  -0.056  52.914  1.00  0.00    -0.049 C 
HETATM   17  C1  UNL     1      26.512  -1.358  52.664  1.00  0.00     0.038 C 
HETATM   18  C3  UNL     1      27.394   0.873  52.560  1.00  0.00     0.011 C 
ENDBRANCH  15  16
ENDBRANCH  13  15
ENDBRANCH  12  13
ENDBRANCH   1  12
BRANCH   9  19
HETATM   19  C14 UNL     1      19.159  -0.184  52.380  1.00  0.00     0.245 C 
HETATM   20  O1  UNL     1      18.315  -0.449  51.461  1.00  0.00    -0.268 OA
HETATM   21  N4  UNL     1      19.155  -0.854  53.611  1.00  0.00    -0.362 N 
HETATM   22  C15 UNL     1      18.068  -1.819  53.575  1.00  0.00     0.149 C 
HETATM   23  H19 UNL     1      19.889  -0.554  54.283  1.00  0.00     0.162 HD
ENDBRANCH   9  19
TORSDOF 5
ENDMDL
MODEL 7
REMARK VINA RESULT:      -6.2      2.113      2.693
REMARK  5 active torsions:
REMARK  status: ('A' for Active; 'I' for Inactive)
REMARK    1  A    between atoms: C2_2  and  C4_4 
REMARK    2  A    between atoms: C4_4  and  C5_5 
REMARK    3  A    between atoms: C5_5  and  C7_7 
REMARK    4  A    between atoms: C7_7  and  N1_8 
REMARK    5  A    between atoms: C13_16  and  C14_17 
REMARK       I    between atoms: C14_17  and  N4_19 
ROOT
HETATM    1  N1  UNL     1      23.669   3.060  50.919  1.00  0.00     0.113 N 
HETATM    2  C8  UNL     1      23.657   4.304  51.718  1.00  0.00     0.396 C 
HETATM    3  N2  UNL     1      22.845   5.252  50.995  1.00  0.00    -0.360 N 
HETATM    4  C9  UNL     1      23.613   5.280  49.822  1.00  0.00     0.203 C 
HETATM    5  N3  UNL     1      24.419   5.283  48.798  1.00  0.00    -0.257 NA
HETATM    6  C10 UNL     1      25.817   5.028  48.974  1.00  0.00     0.114 C 
HETATM    7  C11 UNL     1      26.661   4.208  49.658  1.00  0.00     0.003 C 
HETATM    8  C12 UNL     1      25.715   3.358  50.421  1.00  0.00     0.058 C 
HETATM    9  C13 UNL     1      25.962   2.381  51.251  1.00  0.00     0.024 C 
HETATM   10  C16 UNL     1      24.517   2.083  51.563  1.00  0.00     0.315 C 
HETATM   11  H14 UNL     1      22.013   5.874  50.959  1.00  0.00     0.162 HD
ENDROOT
BRANCH   1  12
HETATM   12  C7  UNL     1      22.287   2.584  50.843  1.00  0.00     0.308 C 
BRANCH  12  13
HETATM   13  C5  UNL     1      21.962   1.708  49.737  1.00  0.00    -0.061 C 
HETATM   14  C6  UNL     1      22.095   1.807  48.441  1.00  0.00     0.016 C 
BRANCH  13  15
HETATM   15  C4  UNL     1      21.366   0.489  50.318  1.00  0.00     0.039 C 
BRANCH  15  16
HETATM   16  C2  UNL     1      20.034   0.650  50.904  1.00  0.00    -0.049 C 
HETATM   17  C1  UNL     1      19.742   0.395  52.192  1.00  0.00     0.038 C 
HETATM   18  C3  UNL     1      18.892   1.097  50.060  1.00  0.00     0.011 C 
ENDBRANCH  15  16
ENDBRANCH  13  15
ENDBRANCH  12  13
ENDBRANCH   1  12
BRANCH   9  19
HETATM   19  C14 UNL     1      26.891   1.485  51.988  1.00  0.00     0.245 C 
HETATM   20  O1  UNL     1      27.918   2.075  52.461  1.00  0.00    -0.268 OA
HETATM   21  N4  UNL     1      26.674   0.111  52.161  1.00  0.00    -0.362 N 
HETATM   22  C15 UNL     1      27.793  -0.409  52.930  1.00  0.00     0.149 C 
HETATM   23  H19 UNL     1      25.804  -0.259  51.732  1.00  0.00     0.162 HD
ENDBRANCH   9  19
TORSDOF 5
ENDMDL
MODEL 8
REMARK VINA RESULT:      -6.2      2.519      5.173
REMARK  5 active torsions:
REMARK  status: ('A' for Active; 'I' for Inactive)
REMARK    1  A    between atoms: C2_2  and  C4_4 
REMARK    2  A    between atoms: C4_4  and  C5_5 
REMARK    3  A    between atoms: C5_5  and  C7_7 
REMARK    4  A    between atoms: C7_7  and  N1_8 
REMARK    5  A    between atoms: C13_16  and  C14_17 
REMARK       I    between atoms: C14_17  and  N4_19 
ROOT
HETATM    1  N1  UNL     1      23.338   2.479  51.347  1.00  0.00     0.113 N 
HETATM    2  C8  UNL     1      23.815   3.562  52.233  1.00  0.00     0.396 C 
HETATM    3  N2  UNL     1      24.475   4.526  51.388  1.00  0.00    -0.360 N 
HETATM    4  C9  UNL     1      25.460   3.667  50.880  1.00  0.00     0.203 C 
HETATM    5  N3  UNL     1      26.369   2.810  50.507  1.00  0.00    -0.257 NA
HETATM    6  C10 UNL     1      26.764   1.745  51.380  1.00  0.00     0.114 C 
HETATM    7  C11 UNL     1      26.230   0.833  52.236  1.00  0.00     0.003 C 
HETATM    8  C12 UNL     1      24.781   1.138  52.150  1.00  0.00     0.058 C 
HETATM    9  C13 UNL     1      23.776   0.570  52.759  1.00  0.00     0.024 C 
HETATM   10  C16 UNL     1      22.715   1.445  52.142  1.00  0.00     0.315 C 
HETATM   11  H14 UNL     1      24.542   5.495  51.019  1.00  0.00     0.162 HD
ENDROOT
BRANCH   1  12
HETATM   12  C7  UNL     1      22.378   3.074  50.417  1.00  0.00     0.308 C 
BRANCH  12  13
HETATM   13  C5  UNL     1      22.213   2.412  49.140  1.00  0.00    -0.061 C 
HETATM   14  C6  UNL     1      21.526   1.372  48.747  1.00  0.00     0.016 C 
BRANCH  13  15
HETATM   15  C4  UNL     1      23.034   3.155  48.165  1.00  0.00     0.039 C 
BRANCH  15  16
HETATM   16  C2  UNL     1      22.557   4.497  47.824  1.00  0.00    -0.049 C 
HETATM   17  C1  UNL     1      21.381   4.747  47.221  1.00  0.00     0.038 C 
HETATM   18  C3  UNL     1      23.398   5.690  48.120  1.00  0.00     0.011 C 
ENDBRANCH  15  16
ENDBRANCH  13  15
ENDBRANCH  12  13
ENDBRANCH   1  12
BRANCH   9  19
HETATM   19  C14 UNL     1      23.201  -0.435  53.691  1.00  0.00     0.245 C 
HETATM   20  O1  UNL     1      24.021  -0.856  54.573  1.00  0.00    -0.268 OA
HETATM   21  N4  UNL     1      21.878  -0.892  53.624  1.00  0.00    -0.362 N 
HETATM   22  C15 UNL     1      21.700  -1.858  54.696  1.00  0.00     0.149 C 
HETATM   23  H19 UNL     1      21.303  -0.479  52.864  1.00  0.00     0.162 HD
ENDBRANCH   9  19
TORSDOF 5
ENDMDL
MODEL 9
REMARK VINA RESULT:      -6.1      2.936      4.284
REMARK  5 active torsions:
REMARK  status: ('A' for Active; 'I' for Inactive)
REMARK    1  A    between atoms: C2_2  and  C4_4 
REMARK    2  A    between atoms: C4_4  and  C5_5 
REMARK    3  A    between atoms: C5_5  and  C7_7 
REMARK    4  A    between atoms: C7_7  and  N1_8 
REMARK    5  A    between atoms: C13_16  and  C14_17 
REMARK       I    between atoms: C14_17  and  N4_19 
ROOT
HETATM    1  N1  UNL     1      23.850   4.550  51.144  1.00  0.00     0.113 N 
HETATM    2  C8  UNL     1      23.217   5.844  51.477  1.00  0.00     0.396 C 
HETATM    3  N2  UNL     1      21.864   5.550  51.880  1.00  0.00    -0.360 N 
HETATM    4  C9  UNL     1      21.452   4.953  50.680  1.00  0.00     0.203 C 
HETATM    5  N3  UNL     1      21.144   4.466  49.510  1.00  0.00    -0.257 NA
HETATM    6  C10 UNL     1      21.801   4.943  48.330  1.00  0.00     0.114 C 
HETATM    7  C11 UNL     1      23.037   5.290  47.880  1.00  0.00     0.003 C 
HETATM    8  C12 UNL     1      23.879   5.057  49.078  1.00  0.00     0.058 C 
HETATM    9  C13 UNL     1      25.166   5.217  49.232  1.00  0.00     0.024 C 
HETATM   10  C16 UNL     1      25.198   4.780  50.674  1.00  0.00     0.315 C 
HETATM   11  H14 UNL     1      21.119   5.582  52.603  1.00  0.00     0.162 HD
ENDROOT
BRANCH   1  12
HETATM   12  C7  UNL     1      23.852   3.744  52.365  1.00  0.00     0.308 C 
BRANCH  12  13
HETATM   13  C5  UNL     1      23.928   2.308  52.196  1.00  0.00    -0.061 C 
HETATM   14  C6  UNL     1      23.295   1.457  51.433  1.00  0.00     0.016 C 
BRANCH  13  15
HETATM   15  C4  UNL     1      24.965   1.822  53.126  1.00  0.00     0.039 C 
BRANCH  15  16
HETATM   16  C2  UNL     1      25.394   0.435  52.932  1.00  0.00    -0.049 C 
HETATM   17  C1  UNL     1      24.847  -0.618  53.566  1.00  0.00     0.038 C 
HETATM   18  C3  UNL     1      26.516   0.119  52.006  1.00  0.00     0.011 C 
ENDBRANCH  15  16
ENDBRANCH  13  15
ENDBRANCH  12  13
ENDBRANCH   1  12
BRANCH   9  19
HETATM   19  C14 UNL     1      26.513   5.591  48.730  1.00  0.00     0.245 C 
HETATM   20  O1  UNL     1      26.540   6.686  48.076  1.00  0.00    -0.268 OA
HETATM   21  N4  UNL     1      27.666   4.823  48.945  1.00  0.00    -0.362 N 
HETATM   22  C15 UNL     1      28.772   5.516  48.306  1.00  0.00     0.149 C 
HETATM   23  H19 UNL     1      27.523   3.951  49.490  1.00  0.00     0.162 HD
ENDBRANCH   9  19
TORSDOF 5
ENDMDL
