MODEL 1
REMARK VINA RESULT:      -8.2      0.000      0.000
REMARK  6 active torsions:
REMARK  status: ('A' for Active; 'I' for Inactive)
REMARK    1  A    between atoms: N1_1  and  S1_2 
REMARK    2  A    between atoms: S1_2  and  C1_5 
REMARK    3  A    between atoms: C6_10  and  C7_11 
REMARK    4  A    between atoms: C7_11  and  C8_12 
REMARK    5  A    between atoms: C8_12  and  C9_13 
REMARK    6  A    between atoms: C9_13  and  O4_15 
ROOT
HETATM    1  C1  UNL     1      21.785   1.231  51.708  1.00  0.00     0.056 C 
HETATM    2  C2  UNL     1      22.150   0.116  52.374  1.00  0.00     0.023 C 
HETATM    3  C3  UNL     1      23.430  -0.193  53.065  1.00  0.00     0.029 C 
HETATM    4  C4  UNL     1      24.522   0.504  53.462  1.00  0.00     0.043 A 
HETATM    5  C5  UNL     1      25.785   1.178  53.962  1.00  0.00     0.173 A 
HETATM    6  C6  UNL     1      26.924   1.300  52.947  1.00  0.00    -0.035 C 
HETATM    7  C10 UNL     1      27.014   2.200  51.982  1.00  0.00     0.088 C 
HETATM    8  N2  UNL     1      26.714   3.291  51.134  1.00  0.00    -0.395 N 
HETATM    9  C11 UNL     1      25.956   3.167  49.932  1.00  0.00     0.147 C 
HETATM   10  C12 UNL     1      24.511   2.878  50.115  1.00  0.00     0.005 C 
HETATM   11  C13 UNL     1      23.680   2.741  51.139  1.00  0.00     0.013 C 
HETATM   12  C14 UNL     1      22.233   2.436  51.014  1.00  0.00     0.096 C 
HETATM   13  C15 UNL     1      24.208   2.915  52.525  1.00  0.00     0.255 C 
HETATM   14  O5  UNL     1      24.466   3.501  53.553  1.00  0.00    -0.267 OA
HETATM   15  N3  UNL     1      24.816   1.828  53.217  1.00  0.00    -0.301 N 
HETATM   16  H12 UNL     1      27.055   4.269  51.387  1.00  0.00     0.159 HD
ENDROOT
BRANCH   1  17
HETATM   17  S1  UNL     1      20.040   1.267  51.630  1.00  0.00     0.235 S 
HETATM   18  O1  UNL     1      19.433   0.164  52.445  1.00  0.00    -0.206 OA
HETATM   19  O2  UNL     1      19.608   1.034  50.185  1.00  0.00    -0.206 OA
BRANCH  17  20
HETATM   20  N1  UNL     1      19.376   2.751  52.203  1.00  0.00    -0.225 NA
HETATM   21  H1  UNL     1      18.382   2.703  52.443  1.00  0.00     0.136 HD
HETATM   22  H2  UNL     1      19.999   3.068  52.986  1.00  0.00     0.136 HD
ENDBRANCH  17  20
ENDBRANCH   1  17
BRANCH   6  23
HETATM   23  C7  UNL     1      27.913   0.239  53.209  1.00  0.00     0.048 C 
BRANCH  23  24
HETATM   24  C8  UNL     1      27.549  -1.128  52.755  1.00  0.00     0.114 C 
BRANCH  24  25
HETATM   25  C9  UNL     1      28.474  -2.201  53.138  1.00  0.00     0.139 C 
HETATM   26  O3  UNL     1      29.609  -1.658  53.371  1.00  0.00    -0.650 OA
BRANCH  25  27
HETATM   27  O4  UNL     1      28.615  -3.566  53.351  1.00  0.00    -0.776 OA
HETATM   28  H10 UNL     1      27.875  -4.173  53.026  1.00  0.00     0.167 HD
ENDBRANCH  25  27
ENDBRANCH  24  25
ENDBRANCH  23  24
ENDBRANCH   6  23
TORSDOF 6
ENDMDL
MODEL 2
REMARK VINA RESULT:      -7.9      1.584      1.998
REMARK  6 active torsions:
REMARK  status: ('A' for Active; 'I' for Inactive)
REMARK    1  A    between atoms: N1_1  and  S1_2 
REMARK    2  A    between atoms: S1_2  and  C1_5 
REMARK    3  A    between atoms: C6_10  and  C7_11 
REMARK    4  A    between atoms: C7_11  and  C8_12 
REMARK    5  A    between atoms: C8_12  and  C9_13 
REMARK    6  A    between atoms: C9_13  and  O4_15 
ROOT
HETATM    1  C1  UNL     1      21.524   1.847  51.389  1.00  0.00     0.056 C 
HETATM    2  C2  UNL     1      21.726   0.636  51.948  1.00  0.00     0.023 C 
HETATM    3  C3  UNL     1      22.942   0.094  52.611  1.00  0.00     0.029 C 
HETATM    4  C4  UNL     1      24.111   0.597  53.074  1.00  0.00     0.043 A 
HETATM    5  C5  UNL     1      25.446   1.045  53.638  1.00  0.00     0.173 A 
HETATM    6  C6  UNL     1      26.607   1.104  52.642  1.00  0.00    -0.035 C 
HETATM    7  C10 UNL     1      26.832   2.070  51.766  1.00  0.00     0.088 C 
HETATM    8  N2  UNL     1      26.694   3.264  51.023  1.00  0.00    -0.395 N 
HETATM    9  C11 UNL     1      25.944   3.356  49.813  1.00  0.00     0.147 C 
HETATM   10  C12 UNL     1      24.470   3.250  49.964  1.00  0.00     0.005 C 
HETATM   11  C13 UNL     1      23.613   3.132  50.968  1.00  0.00     0.013 C 
HETATM   12  C14 UNL     1      22.140   3.039  50.812  1.00  0.00     0.096 C 
HETATM   13  C15 UNL     1      24.140   3.104  52.366  1.00  0.00     0.255 C 
HETATM   14  O5  UNL     1      24.458   3.553  53.445  1.00  0.00    -0.267 OA
HETATM   15  N3  UNL     1      24.585   1.886  52.954  1.00  0.00    -0.301 N 
HETATM   16  H12 UNL     1      27.160   4.160  51.367  1.00  0.00     0.159 HD
ENDROOT
BRANCH   1  17
HETATM   17  S1  UNL     1      19.801   2.125  51.310  1.00  0.00     0.235 S 
HETATM   18  O1  UNL     1      19.395   2.668  49.973  1.00  0.00    -0.206 OA
HETATM   19  O2  UNL     1      19.427   3.182  52.345  1.00  0.00    -0.206 OA
BRANCH  17  20
HETATM   20  N1  UNL     1      18.880   0.694  51.582  1.00  0.00    -0.225 NA
HETATM   21  H1  UNL     1      18.277   0.730  52.408  1.00  0.00     0.136 HD
HETATM   22  H2  UNL     1      18.377   0.494  50.683  1.00  0.00     0.136 HD
ENDBRANCH  17  20
ENDBRANCH   1  17
BRANCH   6  23
HETATM   23  C7  UNL     1      27.440  -0.100  52.806  1.00  0.00     0.048 C 
BRANCH  23  24
HETATM   24  C8  UNL     1      28.846   0.125  53.229  1.00  0.00     0.114 C 
BRANCH  24  25
HETATM   25  C9  UNL     1      29.048   1.122  54.288  1.00  0.00     0.139 C 
HETATM   26  O3  UNL     1      28.569   0.630  55.368  1.00  0.00    -0.650 OA
BRANCH  25  27
HETATM   27  O4  UNL     1      29.547   2.381  54.591  1.00  0.00    -0.776 OA
HETATM   28  H10 UNL     1      29.110   2.893  55.346  1.00  0.00     0.167 HD
ENDBRANCH  25  27
ENDBRANCH  24  25
ENDBRANCH  23  24
ENDBRANCH   6  23
TORSDOF 6
ENDMDL
MODEL 3
REMARK VINA RESULT:      -7.6      2.874      6.519
REMARK  6 active torsions:
REMARK  status: ('A' for Active; 'I' for Inactive)
REMARK    1  A    between atoms: N1_1  and  S1_2 
REMARK    2  A    between atoms: S1_2  and  C1_5 
REMARK    3  A    between atoms: C6_10  and  C7_11 
REMARK    4  A    between atoms: C7_11  and  C8_12 
REMARK    5  A    between atoms: C8_12  and  C9_13 
REMARK    6  A    between atoms: C9_13  and  O4_15 
ROOT
HETATM    1  C1  UNL     1      25.206   1.014  53.408  1.00  0.00     0.056 C 
HETATM    2  C2  UNL     1      24.398  -0.024  53.703  1.00  0.00     0.023 C 
HETATM    3  C3  UNL     1      23.022  -0.315  53.221  1.00  0.00     0.029 C 
HETATM    4  C4  UNL     1      22.208   0.150  52.243  1.00  0.00     0.043 A 
HETATM    5  C5  UNL     1      21.216   0.578  51.179  1.00  0.00     0.173 A 
HETATM    6  C6  UNL     1      20.316   1.762  51.542  1.00  0.00    -0.035 C 
HETATM    7  C10 UNL     1      20.661   3.040  51.512  1.00  0.00     0.088 C 
HETATM    8  N2  UNL     1      21.421   4.219  51.342  1.00  0.00    -0.395 N 
HETATM    9  C11 UNL     1      22.218   4.796  52.374  1.00  0.00     0.147 C 
HETATM   10  C12 UNL     1      23.438   4.032  52.742  1.00  0.00     0.005 C 
HETATM   11  C13 UNL     1      24.044   2.930  52.324  1.00  0.00     0.013 C 
HETATM   12  C14 UNL     1      25.295   2.384  52.908  1.00  0.00     0.096 C 
HETATM   13  C15 UNL     1      23.456   2.174  51.178  1.00  0.00     0.255 C 
HETATM   14  O5  UNL     1      23.307   1.841  50.023  1.00  0.00    -0.267 OA
HETATM   15  N3  UNL     1      22.430   1.209  51.390  1.00  0.00    -0.301 N 
HETATM   16  H12 UNL     1      21.420   4.719  50.400  1.00  0.00     0.159 HD
ENDROOT
BRANCH   1  17
HETATM   17  S1  UNL     1      26.849   0.541  53.771  1.00  0.00     0.235 S 
HETATM   18  O1  UNL     1      27.480  -0.176  52.616  1.00  0.00    -0.206 OA
HETATM   19  O2  UNL     1      26.830  -0.439  54.940  1.00  0.00    -0.206 OA
BRANCH  17  20
HETATM   20  N1  UNL     1      27.861   1.884  54.154  1.00  0.00    -0.225 NA
HETATM   21  H1  UNL     1      27.599   2.756  53.687  1.00  0.00     0.136 HD
HETATM   22  H2  UNL     1      27.888   1.941  55.201  1.00  0.00     0.136 HD
ENDBRANCH  17  20
ENDBRANCH   1  17
BRANCH   6  23
HETATM   23  C7  UNL     1      18.994   1.252  51.945  1.00  0.00     0.048 C 
BRANCH  23  24
HETATM   24  C8  UNL     1      18.802  -0.219  51.859  1.00  0.00     0.114 C 
BRANCH  24  25
HETATM   25  C9  UNL     1      18.386  -0.887  53.098  1.00  0.00     0.139 C 
HETATM   26  O3  UNL     1      19.441  -1.366  53.643  1.00  0.00    -0.650 OA
BRANCH  25  27
HETATM   27  O4  UNL     1      17.313  -1.209  53.918  1.00  0.00    -0.776 OA
HETATM   28  H10 UNL     1      16.424  -1.403  53.477  1.00  0.00     0.167 HD
ENDBRANCH  25  27
ENDBRANCH  24  25
ENDBRANCH  23  24
ENDBRANCH   6  23
TORSDOF 6
ENDMDL
MODEL 4
REMARK VINA RESULT:      -7.5      3.543      5.101
REMARK  6 active torsions:
REMARK  status: ('A' for Active; 'I' for Inactive)
REMARK    1  A    between atoms: N1_1  and  S1_2 
REMARK    2  A    between atoms: S1_2  and  C1_5 
REMARK    3  A    between atoms: C6_10  and  C7_11 
REMARK    4  A    between atoms: C7_11  and  C8_12 
REMARK    5  A    between atoms: C8_12  and  C9_13 
REMARK    6  A    between atoms: C9_13  and  O4_15 
ROOT
HETATM    1  C1  UNL     1      22.211   0.236  53.082  1.00  0.00     0.056 C 
HETATM    2  C2  UNL     1      23.482   0.490  53.454  1.00  0.00     0.023 C 
HETATM    3  C3  UNL     1      24.431   1.510  52.936  1.00  0.00     0.029 C 
HETATM    4  C4  UNL     1      24.353   2.610  52.148  1.00  0.00     0.043 A 
HETATM    5  C5  UNL     1      24.387   3.862  51.294  1.00  0.00     0.173 A 
HETATM    6  C6  UNL     1      24.561   3.640  49.789  1.00  0.00    -0.035 C 
HETATM    7  C10 UNL     1      23.613   3.277  48.941  1.00  0.00     0.088 C 
HETATM    8  N2  UNL     1      22.355   2.901  48.418  1.00  0.00    -0.395 N 
HETATM    9  C11 UNL     1      21.909   1.548  48.340  1.00  0.00     0.147 C 
HETATM   10  C12 UNL     1      21.591   0.903  49.639  1.00  0.00     0.005 C 
HETATM   11  C13 UNL     1      21.562   1.270  50.913  1.00  0.00     0.013 C 
HETATM   12  C14 UNL     1      21.198   0.375  52.039  1.00  0.00     0.096 C 
HETATM   13  C15 UNL     1      21.903   2.681  51.264  1.00  0.00     0.255 C 
HETATM   14  O5  UNL     1      21.694   3.847  51.520  1.00  0.00    -0.267 OA
HETATM   15  N3  UNL     1      23.257   3.079  51.457  1.00  0.00    -0.301 N 
HETATM   16  H12 UNL     1      21.683   3.648  48.063  1.00  0.00     0.159 HD
ENDROOT
BRANCH   1  17
HETATM   17  S1  UNL     1      21.428  -0.626  54.384  1.00  0.00     0.235 S 
HETATM   18  O1  UNL     1      20.391  -1.576  53.866  1.00  0.00    -0.206 OA
HETATM   19  O2  UNL     1      20.698   0.381  55.269  1.00  0.00    -0.206 OA
BRANCH  17  20
HETATM   20  N1  UNL     1      22.533  -1.544  55.337  1.00  0.00    -0.225 NA
HETATM   21  H1  UNL     1      22.118  -2.361  55.793  1.00  0.00     0.136 HD
HETATM   22  H2  UNL     1      23.348  -1.760  54.713  1.00  0.00     0.136 HD
ENDBRANCH  17  20
ENDBRANCH   1  17
BRANCH   6  23
HETATM   23  C7  UNL     1      25.969   3.887  49.430  1.00  0.00     0.048 C 
BRANCH  23  24
HETATM   24  C8  UNL     1      26.282   5.233  48.881  1.00  0.00     0.114 C 
BRANCH  24  25
HETATM   25  C9  UNL     1      27.705   5.533  48.688  1.00  0.00     0.139 C 
HETATM   26  O3  UNL     1      27.778   6.525  47.883  1.00  0.00    -0.650 OA
BRANCH  25  27
HETATM   27  O4  UNL     1      29.004   5.177  49.026  1.00  0.00    -0.776 OA
HETATM   28  H10 UNL     1      29.132   4.531  49.794  1.00  0.00     0.167 HD
ENDBRANCH  25  27
ENDBRANCH  24  25
ENDBRANCH  23  24
ENDBRANCH   6  23
TORSDOF 6
ENDMDL
MODEL 5
REMARK VINA RESULT:      -7.5      8.263      9.765
REMARK  6 active torsions:
REMARK  status: ('A' for Active; 'I' for Inactive)
REMARK    1  A    between atoms: N1_1  and  S1_2 
REMARK    2  A    between atoms: S1_2  and  C1_5 
REMARK    3  A    between atoms: C6_10  and  C7_11 
REMARK    4  A    between atoms: C7_11  and  C8_12 
REMARK    5  A    between atoms: C8_12  and  C9_13 
REMARK    6  A    between atoms: C9_13  and  O4_15 
ROOT
HETATM    1  C1  UNL     1      28.306   8.125  48.793  1.00  0.00     0.056 C 
HETATM    2  C2  UNL     1      27.987   6.856  48.466  1.00  0.00     0.023 C 
HETATM    3  C3  UNL     1      28.878   5.730  48.080  1.00  0.00     0.029 C 
HETATM    4  C4  UNL     1      30.208   5.475  48.117  1.00  0.00     0.043 A 
HETATM    5  C5  UNL     1      31.671   5.074  48.120  1.00  0.00     0.173 A 
HETATM    6  C6  UNL     1      32.482   5.497  46.893  1.00  0.00    -0.035 C 
HETATM    7  C10 UNL     1      32.977   6.703  46.665  1.00  0.00     0.088 C 
HETATM    8  N2  UNL     1      33.305   8.069  46.823  1.00  0.00    -0.395 N 
HETATM    9  C11 UNL     1      32.475   9.135  46.365  1.00  0.00     0.147 C 
HETATM   10  C12 UNL     1      31.207   9.327  47.114  1.00  0.00     0.005 C 
HETATM   11  C13 UNL     1      30.625   8.782  48.173  1.00  0.00     0.013 C 
HETATM   12  C14 UNL     1      29.303   9.189  48.710  1.00  0.00     0.096 C 
HETATM   13  C15 UNL     1      31.335   7.689  48.904  1.00  0.00     0.255 C 
HETATM   14  O5  UNL     1      32.042   7.194  49.754  1.00  0.00    -0.267 OA
HETATM   15  N3  UNL     1      31.224   6.334  48.478  1.00  0.00    -0.301 N 
HETATM   16  H12 UNL     1      34.211   8.343  47.313  1.00  0.00     0.159 HD
ENDROOT
BRANCH   1  17
HETATM   17  S1  UNL     1      26.973   8.802  49.697  1.00  0.00     0.235 S 
HETATM   18  O1  UNL     1      25.978   7.746  50.078  1.00  0.00    -0.206 OA
HETATM   19  O2  UNL     1      26.235   9.801  48.811  1.00  0.00    -0.206 OA
BRANCH  17  20
HETATM   20  N1  UNL     1      27.478   9.576  51.152  1.00  0.00    -0.225 NA
HETATM   21  H1  UNL     1      28.274  10.209  51.038  1.00  0.00     0.136 HD
HETATM   22  H2  UNL     1      26.620  10.024  51.558  1.00  0.00     0.136 HD
ENDBRANCH  17  20
ENDBRANCH   1  17
BRANCH   6  23
HETATM   23  C7  UNL     1      32.621   4.341  45.990  1.00  0.00     0.048 C 
BRANCH  23  24
HETATM   24  C8  UNL     1      33.156   3.094  46.595  1.00  0.00     0.114 C 
BRANCH  24  25
HETATM   25  C9  UNL     1      34.435   3.220  47.302  1.00  0.00     0.139 C 
HETATM   26  O3  UNL     1      35.355   3.286  46.415  1.00  0.00    -0.650 OA
BRANCH  25  27
HETATM   27  O4  UNL     1      35.051   3.296  48.544  1.00  0.00    -0.776 OA
HETATM   28  H10 UNL     1      35.507   4.164  48.792  1.00  0.00     0.167 HD
ENDBRANCH  25  27
ENDBRANCH  24  25
ENDBRANCH  23  24
ENDBRANCH   6  23
TORSDOF 6
ENDMDL
MODEL 6
REMARK VINA RESULT:      -7.5      2.995      6.750
REMARK  6 active torsions:
REMARK  status: ('A' for Active; 'I' for Inactive)
REMARK    1  A    between atoms: N1_1  and  S1_2 
REMARK    2  A    between atoms: S1_2  and  C1_5 
REMARK    3  A    between atoms: C6_10  and  C7_11 
REMARK    4  A    between atoms: C7_11  and  C8_12 
REMARK    5  A    between atoms: C8_12  and  C9_13 
REMARK    6  A    between atoms: C9_13  and  O4_15 
ROOT
HETATM    1  C1  UNL     1      26.150   0.777  52.984  1.00  0.00     0.056 C 
HETATM    2  C2  UNL     1      26.904   1.295  51.993  1.00  0.00     0.023 C 
HETATM    3  C3  UNL     1      26.576   2.374  51.025  1.00  0.00     0.029 C 
HETATM    4  C4  UNL     1      25.611   3.317  50.898  1.00  0.00     0.043 A 
HETATM    5  C5  UNL     1      24.595   4.417  50.657  1.00  0.00     0.173 A 
HETATM    6  C6  UNL     1      23.338   4.008  49.886  1.00  0.00    -0.035 C 
HETATM    7  C10 UNL     1      22.292   3.369  50.384  1.00  0.00     0.088 C 
HETATM    8  N2  UNL     1      21.432   2.711  51.291  1.00  0.00    -0.395 N 
HETATM    9  C11 UNL     1      21.469   1.305  51.533  1.00  0.00     0.147 C 
HETATM   10  C12 UNL     1      22.662   0.814  52.268  1.00  0.00     0.005 C 
HETATM   11  C13 UNL     1      23.734   1.355  52.831  1.00  0.00     0.013 C 
HETATM   12  C14 UNL     1      24.803   0.587  53.516  1.00  0.00     0.096 C 
HETATM   13  C15 UNL     1      23.894   2.839  52.798  1.00  0.00     0.255 C 
HETATM   14  O5  UNL     1      23.815   3.977  53.207  1.00  0.00    -0.267 OA
HETATM   15  N3  UNL     1      24.486   3.486  51.676  1.00  0.00    -0.301 N 
HETATM   16  H12 UNL     1      20.712   3.273  51.842  1.00  0.00     0.159 HD
ENDROOT
BRANCH   1  17
HETATM   17  S1  UNL     1      27.219  -0.004  54.125  1.00  0.00     0.235 S 
HETATM   18  O1  UNL     1      27.858  -1.222  53.530  1.00  0.00    -0.206 OA
HETATM   19  O2  UNL     1      26.399  -0.478  55.321  1.00  0.00    -0.206 OA
BRANCH  17  20
HETATM   20  N1  UNL     1      28.490   1.029  54.663  1.00  0.00    -0.225 NA
HETATM   21  H1  UNL     1      28.172   1.913  55.068  1.00  0.00     0.136 HD
HETATM   22  H2  UNL     1      29.089   0.448  55.300  1.00  0.00     0.136 HD
ENDBRANCH  17  20
ENDBRANCH   1  17
BRANCH   6  23
HETATM   23  C7  UNL     1      23.478   4.436  48.482  1.00  0.00     0.048 C 
BRANCH  23  24
HETATM   24  C8  UNL     1      22.223   4.527  47.693  1.00  0.00     0.114 C 
BRANCH  24  25
HETATM   25  C9  UNL     1      22.137   3.652  46.518  1.00  0.00     0.139 C 
HETATM   26  O3  UNL     1      22.216   2.445  46.937  1.00  0.00    -0.650 OA
BRANCH  25  27
HETATM   27  O4  UNL     1      22.006   3.604  45.136  1.00  0.00    -0.776 OA
HETATM   28  H10 UNL     1      22.159   2.715  44.679  1.00  0.00     0.167 HD
ENDBRANCH  25  27
ENDBRANCH  24  25
ENDBRANCH  23  24
ENDBRANCH   6  23
TORSDOF 6
ENDMDL
MODEL 7
REMARK VINA RESULT:      -7.4      2.192      2.779
REMARK  6 active torsions:
REMARK  status: ('A' for Active; 'I' for Inactive)
REMARK    1  A    between atoms: N1_1  and  S1_2 
REMARK    2  A    between atoms: S1_2  and  C1_5 
REMARK    3  A    between atoms: C6_10  and  C7_11 
REMARK    4  A    between atoms: C7_11  and  C8_12 
REMARK    5  A    between atoms: C8_12  and  C9_13 
REMARK    6  A    between atoms: C9_13  and  O4_15 
ROOT
HETATM    1  C1  UNL     1      21.792   3.044  49.198  1.00  0.00     0.056 C 
HETATM    2  C2  UNL     1      21.455   1.828  49.676  1.00  0.00     0.023 C 
HETATM    3  C3  UNL     1      22.094   1.030  50.756  1.00  0.00     0.029 C 
HETATM    4  C4  UNL     1      23.005   1.255  51.733  1.00  0.00     0.043 A 
HETATM    5  C5  UNL     1      24.002   1.391  52.867  1.00  0.00     0.173 A 
HETATM    6  C6  UNL     1      25.470   1.164  52.497  1.00  0.00    -0.035 C 
HETATM    7  C10 UNL     1      26.267   2.038  51.903  1.00  0.00     0.088 C 
HETATM    8  N2  UNL     1      26.738   3.220  51.289  1.00  0.00    -0.395 N 
HETATM    9  C11 UNL     1      26.655   3.464  49.886  1.00  0.00     0.147 C 
HETATM   10  C12 UNL     1      25.287   3.704  49.358  1.00  0.00     0.005 C 
HETATM   11  C13 UNL     1      24.066   3.804  49.864  1.00  0.00     0.013 C 
HETATM   12  C14 UNL     1      22.841   4.051  49.065  1.00  0.00     0.096 C 
HETATM   13  C15 UNL     1      23.885   3.676  51.342  1.00  0.00     0.255 C 
HETATM   14  O5  UNL     1      23.769   4.056  52.486  1.00  0.00    -0.267 OA
HETATM   15  N3  UNL     1      23.744   2.398  51.953  1.00  0.00    -0.301 N 
HETATM   16  H12 UNL     1      27.177   3.988  51.883  1.00  0.00     0.159 HD
ENDROOT
BRANCH   1  17
HETATM   17  S1  UNL     1      20.394   3.713  48.391  1.00  0.00     0.235 S 
HETATM   18  O1  UNL     1      20.789   4.746  47.379  1.00  0.00    -0.206 OA
HETATM   19  O2  UNL     1      19.522   4.420  49.424  1.00  0.00    -0.206 OA
BRANCH  17  20
HETATM   20  N1  UNL     1      19.464   2.518  47.565  1.00  0.00    -0.225 NA
HETATM   21  H1  UNL     1      18.956   1.879  48.182  1.00  0.00     0.136 HD
HETATM   22  H2  UNL     1      18.861   3.037  46.882  1.00  0.00     0.136 HD
ENDBRANCH  17  20
ENDBRANCH   1  17
BRANCH   6  23
HETATM   23  C7  UNL     1      25.861  -0.198  52.903  1.00  0.00     0.048 C 
BRANCH  23  24
HETATM   24  C8  UNL     1      27.248  -0.612  52.568  1.00  0.00     0.114 C 
BRANCH  24  25
HETATM   25  C9  UNL     1      28.209  -0.594  53.677  1.00  0.00     0.139 C 
HETATM   26  O3  UNL     1      27.537  -0.484  54.761  1.00  0.00    -0.650 OA
BRANCH  25  27
HETATM   27  O4  UNL     1      29.552  -0.648  54.025  1.00  0.00    -0.776 OA
HETATM   28  H10 UNL     1      30.151  -1.270  53.499  1.00  0.00     0.167 HD
ENDBRANCH  25  27
ENDBRANCH  24  25
ENDBRANCH  23  24
ENDBRANCH   6  23
TORSDOF 6
ENDMDL
MODEL 8
REMARK VINA RESULT:      -7.2      2.525      4.234
REMARK  6 active torsions:
REMARK  status: ('A' for Active; 'I' for Inactive)
REMARK    1  A    between atoms: N1_1  and  S1_2 
REMARK    2  A    between atoms: S1_2  and  C1_5 
REMARK    3  A    between atoms: C6_10  and  C7_11 
REMARK    4  A    between atoms: C7_11  and  C8_12 
REMARK    5  A    between atoms: C8_12  and  C9_13 
REMARK    6  A    between atoms: C9_13  and  O4_15 
ROOT
HETATM    1  C1  UNL     1      19.213   2.908  51.758  1.00  0.00     0.056 C 
HETATM    2  C2  UNL     1      20.185   3.841  51.806  1.00  0.00     0.023 C 
HETATM    3  C3  UNL     1      21.660   3.664  51.861  1.00  0.00     0.029 C 
HETATM    4  C4  UNL     1      22.532   2.643  51.675  1.00  0.00     0.043 A 
HETATM    5  C5  UNL     1      23.601   1.585  51.480  1.00  0.00     0.173 A 
HETATM    6  C6  UNL     1      23.941   0.744  52.712  1.00  0.00    -0.035 C 
HETATM    7  C10 UNL     1      23.238  -0.277  53.176  1.00  0.00     0.088 C 
HETATM    8  N2  UNL     1      22.230  -1.257  53.313  1.00  0.00    -0.395 N 
HETATM    9  C11 UNL     1      21.031  -1.053  54.060  1.00  0.00     0.147 C 
HETATM   10  C12 UNL     1      20.061  -0.101  53.464  1.00  0.00     0.005 C 
HETATM   11  C13 UNL     1      19.975   0.614  52.351  1.00  0.00     0.013 C 
HETATM   12  C14 UNL     1      18.847   1.517  52.014  1.00  0.00     0.096 C 
HETATM   13  C15 UNL     1      21.072   0.511  51.342  1.00  0.00     0.255 C 
HETATM   14  O5  UNL     1      21.642   0.102  50.354  1.00  0.00    -0.267 OA
HETATM   15  N3  UNL     1      22.243   1.314  51.452  1.00  0.00    -0.301 N 
HETATM   16  H12 UNL     1      22.343  -2.205  52.839  1.00  0.00     0.159 HD
ENDROOT
BRANCH   1  17
HETATM   17  S1  UNL     1      17.769   3.664  51.127  1.00  0.00     0.235 S 
HETATM   18  O1  UNL     1      16.873   4.140  52.231  1.00  0.00    -0.206 OA
HETATM   19  O2  UNL     1      16.978   2.626  50.336  1.00  0.00    -0.206 OA
BRANCH  17  20
HETATM   20  N1  UNL     1      18.111   5.023  50.124  1.00  0.00    -0.225 NA
HETATM   21  H1  UNL     1      18.742   4.823  49.344  1.00  0.00     0.136 HD
HETATM   22  H2  UNL     1      17.182   5.421  49.843  1.00  0.00     0.136 HD
ENDBRANCH  17  20
ENDBRANCH   1  17
BRANCH   6  23
HETATM   23  C7  UNL     1      25.183   1.259  53.314  1.00  0.00     0.048 C 
BRANCH  23  24
HETATM   24  C8  UNL     1      26.447   0.621  52.864  1.00  0.00     0.114 C 
BRANCH  24  25
HETATM   25  C9  UNL     1      27.098  -0.271  53.831  1.00  0.00     0.139 C 
HETATM   26  O3  UNL     1      26.585  -1.433  53.681  1.00  0.00    -0.650 OA
BRANCH  25  27
HETATM   27  O4  UNL     1      28.045  -0.362  54.843  1.00  0.00    -0.776 OA
HETATM   28  H10 UNL     1      28.991  -0.075  54.631  1.00  0.00     0.167 HD
ENDBRANCH  25  27
ENDBRANCH  24  25
ENDBRANCH  23  24
ENDBRANCH   6  23
TORSDOF 6
ENDMDL
MODEL 9
REMARK VINA RESULT:      -6.8      2.051      2.650
REMARK  6 active torsions:
REMARK  status: ('A' for Active; 'I' for Inactive)
REMARK    1  A    between atoms: N1_1  and  S1_2 
REMARK    2  A    between atoms: S1_2  and  C1_5 
REMARK    3  A    between atoms: C6_10  and  C7_11 
REMARK    4  A    between atoms: C7_11  and  C8_12 
REMARK    5  A    between atoms: C8_12  and  C9_13 
REMARK    6  A    between atoms: C9_13  and  O4_15 
ROOT
HETATM    1  C1  UNL     1      19.953   0.710  51.161  1.00  0.00     0.056 C 
HETATM    2  C2  UNL     1      20.554  -0.122  52.037  1.00  0.00     0.023 C 
HETATM    3  C3  UNL     1      21.879   0.004  52.700  1.00  0.00     0.029 C 
HETATM    4  C4  UNL     1      22.805   0.979  52.862  1.00  0.00     0.043 A 
HETATM    5  C5  UNL     1      23.903   1.993  53.118  1.00  0.00     0.173 A 
HETATM    6  C6  UNL     1      24.978   2.102  52.034  1.00  0.00    -0.035 C 
HETATM    7  C10 UNL     1      24.864   2.752  50.887  1.00  0.00     0.088 C 
HETATM    8  N2  UNL     1      24.329   3.531  49.836  1.00  0.00    -0.395 N 
HETATM    9  C11 UNL     1      23.598   2.980  48.742  1.00  0.00     0.147 C 
HETATM   10  C12 UNL     1      22.249   2.456  49.073  1.00  0.00     0.005 C 
HETATM   11  C13 UNL     1      21.479   2.396  50.151  1.00  0.00     0.013 C 
HETATM   12  C14 UNL     1      20.128   1.785  50.188  1.00  0.00     0.096 C 
HETATM   13  C15 UNL     1      21.978   2.991  51.427  1.00  0.00     0.255 C 
HETATM   14  O5  UNL     1      22.119   3.840  52.279  1.00  0.00    -0.267 OA
HETATM   15  N3  UNL     1      22.810   2.241  52.307  1.00  0.00    -0.301 N 
HETATM   16  H12 UNL     1      24.460   4.589  49.841  1.00  0.00     0.159 HD
ENDROOT
BRANCH   1  17
HETATM   17  S1  UNL     1      18.239   0.373  51.185  1.00  0.00     0.235 S 
HETATM   18  O1  UNL     1      17.467   1.506  51.790  1.00  0.00    -0.206 OA
HETATM   19  O2  UNL     1      17.990  -0.848  52.066  1.00  0.00    -0.206 OA
BRANCH  17  20
HETATM   20  N1  UNL     1      17.591   0.096  49.612  1.00  0.00    -0.225 NA
HETATM   21  H1  UNL     1      17.546  -0.890  49.342  1.00  0.00     0.136 HD
HETATM   22  H2  UNL     1      16.671   0.599  49.581  1.00  0.00     0.136 HD
ENDBRANCH  17  20
ENDBRANCH   1  17
BRANCH   6  23
HETATM   23  C7  UNL     1      26.172   1.354  52.467  1.00  0.00     0.048 C 
BRANCH  23  24
HETATM   24  C8  UNL     1      26.527   1.457  53.906  1.00  0.00     0.114 C 
BRANCH  24  25
HETATM   25  C9  UNL     1      27.099   0.250  54.515  1.00  0.00     0.139 C 
HETATM   26  O3  UNL     1      26.124  -0.447  54.963  1.00  0.00    -0.650 OA
BRANCH  25  27
HETATM   27  O4  UNL     1      28.269  -0.440  54.801  1.00  0.00    -0.776 OA
HETATM   28  H10 UNL     1      28.918  -0.604  54.043  1.00  0.00     0.167 HD
ENDBRANCH  25  27
ENDBRANCH  24  25
ENDBRANCH  23  24
ENDBRANCH   6  23
TORSDOF 6
ENDMDL
