MODEL 1
REMARK VINA RESULT:      -8.7      0.000      0.000
REMARK  2 active torsions:
REMARK  status: ('A' for Active; 'I' for Inactive)
REMARK    1  A    between atoms: C5_6  and  C6_7 
REMARK    2  A    between atoms: C6_7  and  C7_8 
REMARK       I    between atoms: C7_8  and  N2_9 
ROOT
HETATM    1  N1  UNL     1      20.524  -0.329  54.164  1.00  0.00    -0.192 NA
HETATM    2  C1  UNL     1      21.463   0.221  53.685  1.00  0.00     0.095 C 
HETATM    3  C2  UNL     1      22.656   0.892  53.090  1.00  0.00     0.028 C 
HETATM    4  C3  UNL     1      23.932   0.637  52.891  1.00  0.00     0.065 C 
HETATM    5  C4  UNL     1      24.965  -0.400  53.112  1.00  0.00    -0.008 C 
HETATM    6  C5  UNL     1      26.211  -0.201  52.690  1.00  0.00    -0.053 C 
HETATM    7  C8  UNL     1      26.607   0.977  51.906  1.00  0.00     0.005 C 
HETATM    8  C9  UNL     1      26.438   2.118  51.282  1.00  0.00    -0.007 C 
HETATM    9  C10 UNL     1      26.720   3.364  50.483  1.00  0.00     0.141 C 
HETATM   10  N3  UNL     1      25.906   3.311  49.343  1.00  0.00    -0.417 N 
HETATM   11  C11 UNL     1      24.546   3.582  49.425  1.00  0.00     0.135 C 
HETATM   12  C12 UNL     1      23.649   2.752  50.202  1.00  0.00     0.115 A 
HETATM   13  C13 UNL     1      22.764   1.965  50.674  1.00  0.00     0.109 A 
HETATM   14 CL1  UNL     1      22.664   2.065  48.938  1.00  0.00    -0.194 Cl
HETATM   15  C14 UNL     1      21.692   1.053  50.840  1.00  0.00     0.113 A 
HETATM   16  F1  UNL     1      21.398  -0.166  50.339  1.00  0.00    -0.212 F 
HETATM   17  C15 UNL     1      21.383   2.083  51.625  1.00  0.00     0.078 A 
HETATM   18  C16 UNL     1      22.058   2.172  52.767  1.00  0.00     0.012 C 
HETATM   19  H11 UNL     1      26.193   2.550  48.684  1.00  0.00     0.153 HD
ENDROOT
BRANCH   6  20
HETATM   20  C6  UNL     1      27.429  -1.038  52.776  1.00  0.00     0.140 C 
BRANCH  20  21
HETATM   21  C7  UNL     1      28.345  -0.488  53.840  1.00  0.00     0.219 C 
HETATM   22  N2  UNL     1      29.704  -0.219  53.547  1.00  0.00    -0.370 N 
HETATM   23  H5  UNL     1      30.457  -0.906  53.296  1.00  0.00     0.159 HD
HETATM   24  H6  UNL     1      30.691  -0.016  53.336  1.00  0.00     0.159 HD
HETATM   25  O1  UNL     1      27.992  -0.244  55.007  1.00  0.00    -0.273 OA
ENDBRANCH  20  21
ENDBRANCH   6  20
TORSDOF 2
ENDMDL
MODEL 2
REMARK VINA RESULT:      -8.6      2.177      4.563
REMARK  2 active torsions:
REMARK  status: ('A' for Active; 'I' for Inactive)
REMARK    1  A    between atoms: C5_6  and  C6_7 
REMARK    2  A    between atoms: C6_7  and  C7_8 
REMARK       I    between atoms: C7_8  and  N2_9 
ROOT
HETATM    1  N1  UNL     1      27.167   5.103  48.734  1.00  0.00    -0.192 NA
HETATM    2  C1  UNL     1      26.583   4.272  49.352  1.00  0.00     0.095 C 
HETATM    3  C2  UNL     1      25.871   3.227  50.144  1.00  0.00     0.028 C 
HETATM    4  C3  UNL     1      26.101   2.449  51.181  1.00  0.00     0.065 C 
HETATM    5  C4  UNL     1      27.140   2.108  52.178  1.00  0.00    -0.008 C 
HETATM    6  C5  UNL     1      26.890   1.202  53.119  1.00  0.00    -0.053 C 
HETATM    7  C8  UNL     1      25.571   0.578  53.292  1.00  0.00     0.005 C 
HETATM    8  C9  UNL     1      24.306   0.349  53.033  1.00  0.00    -0.007 C 
HETATM    9  C10 UNL     1      22.912  -0.217  53.112  1.00  0.00     0.141 C 
HETATM   10  N3  UNL     1      22.046   0.860  53.342  1.00  0.00    -0.417 N 
HETATM   11  C11 UNL     1      21.712   1.738  52.319  1.00  0.00     0.135 C 
HETATM   12  C12 UNL     1      22.706   2.571  51.674  1.00  0.00     0.115 A 
HETATM   13  C13 UNL     1      23.461   3.485  51.205  1.00  0.00     0.109 A 
HETATM   14 CL1  UNL     1      22.181   4.155  52.177  1.00  0.00    -0.194 Cl
HETATM   15  C14 UNL     1      24.067   4.722  50.871  1.00  0.00     0.113 A 
HETATM   16  F1  UNL     1      24.545   5.765  51.582  1.00  0.00    -0.212 F 
HETATM   17  C15 UNL     1      23.831   4.135  49.700  1.00  0.00     0.078 A 
HETATM   18  C16 UNL     1      24.652   3.144  49.365  1.00  0.00     0.012 C 
HETATM   19  H11 UNL     1      22.176   1.278  54.294  1.00  0.00     0.153 HD
ENDROOT
BRANCH   6  20
HETATM   20  C6  UNL     1      27.722   0.665  54.220  1.00  0.00     0.140 C 
BRANCH  20  21
HETATM   21  C7  UNL     1      29.101   1.270  54.153  1.00  0.00     0.219 C 
HETATM   22  N2  UNL     1      30.142   0.607  53.458  1.00  0.00    -0.370 N 
HETATM   23  H5  UNL     1      30.590  -0.313  53.693  1.00  0.00     0.159 HD
HETATM   24  H6  UNL     1      30.899   0.131  52.947  1.00  0.00     0.159 HD
HETATM   25  O1  UNL     1      29.416   2.349  54.683  1.00  0.00    -0.273 OA
ENDBRANCH  20  21
ENDBRANCH   6  20
TORSDOF 2
ENDMDL
MODEL 3
REMARK VINA RESULT:      -8.1      2.004      4.383
REMARK  2 active torsions:
REMARK  status: ('A' for Active; 'I' for Inactive)
REMARK    1  A    between atoms: C5_6  and  C6_7 
REMARK    2  A    between atoms: C6_7  and  C7_8 
REMARK       I    between atoms: C7_8  and  N2_9 
ROOT
HETATM    1  N1  UNL     1      24.710   4.124  49.311  1.00  0.00    -0.192 NA
HETATM    2  C1  UNL     1      24.329   3.224  49.988  1.00  0.00     0.095 C 
HETATM    3  C2  UNL     1      23.872   2.097  50.852  1.00  0.00     0.028 C 
HETATM    4  C3  UNL     1      24.288   1.437  51.913  1.00  0.00     0.065 C 
HETATM    5  C4  UNL     1      25.405   1.367  52.881  1.00  0.00    -0.008 C 
HETATM    6  C5  UNL     1      25.376   0.477  53.870  1.00  0.00    -0.053 C 
HETATM    7  C8  UNL     1      24.220  -0.393  54.123  1.00  0.00     0.005 C 
HETATM    8  C9  UNL     1      23.022  -0.889  53.926  1.00  0.00    -0.007 C 
HETATM    9  C10 UNL     1      21.777  -1.723  54.085  1.00  0.00     0.141 C 
HETATM   10  N3  UNL     1      20.716  -0.834  54.303  1.00  0.00    -0.417 N 
HETATM   11  C11 UNL     1      20.177  -0.097  53.257  1.00  0.00     0.135 C 
HETATM   12  C12 UNL     1      20.957   0.888  52.536  1.00  0.00     0.115 A 
HETATM   13  C13 UNL     1      21.494   1.911  51.997  1.00  0.00     0.109 A 
HETATM   14 CL1  UNL     1      20.133   2.355  52.990  1.00  0.00    -0.194 Cl
HETATM   15  C14 UNL     1      21.821   3.227  51.586  1.00  0.00     0.113 A 
HETATM   16  F1  UNL     1      22.096   4.381  52.230  1.00  0.00    -0.212 F 
HETATM   17  C15 UNL     1      21.676   2.545  50.452  1.00  0.00     0.078 A 
HETATM   18  C16 UNL     1      22.672   1.727  50.128  1.00  0.00     0.012 C 
HETATM   19  H11 UNL     1      20.785  -0.351  55.230  1.00  0.00     0.153 HD
ENDROOT
BRANCH   6  20
HETATM   20  C6  UNL     1      26.334   0.178  54.959  1.00  0.00     0.140 C 
BRANCH  20  21
HETATM   21  C7  UNL     1      27.688  -0.124  54.371  1.00  0.00     0.219 C 
HETATM   22  N2  UNL     1      27.865  -1.233  53.509  1.00  0.00    -0.370 N 
HETATM   23  H5  UNL     1      27.774  -2.253  53.744  1.00  0.00     0.159 HD
HETATM   24  H6  UNL     1      27.996  -2.036  52.876  1.00  0.00     0.159 HD
HETATM   25  O1  UNL     1      28.711   0.548  54.592  1.00  0.00    -0.273 OA
ENDBRANCH  20  21
ENDBRANCH   6  20
TORSDOF 2
ENDMDL
MODEL 4
REMARK VINA RESULT:      -7.9      2.633      4.672
REMARK  2 active torsions:
REMARK  status: ('A' for Active; 'I' for Inactive)
REMARK    1  A    between atoms: C5_6  and  C6_7 
REMARK    2  A    between atoms: C6_7  and  C7_8 
REMARK       I    between atoms: C7_8  and  N2_9 
ROOT
HETATM    1  N1  UNL     1      20.724   5.013  50.477  1.00  0.00    -0.192 NA
HETATM    2  C1  UNL     1      21.559   4.365  51.023  1.00  0.00     0.095 C 
HETATM    3  C2  UNL     1      22.590   3.531  51.708  1.00  0.00     0.028 C 
HETATM    4  C3  UNL     1      22.731   2.294  52.136  1.00  0.00     0.065 C 
HETATM    5  C4  UNL     1      22.017   1.001  52.228  1.00  0.00    -0.008 C 
HETATM    6  C5  UNL     1      22.618  -0.055  52.771  1.00  0.00    -0.053 C 
HETATM    7  C8  UNL     1      24.022  -0.037  53.203  1.00  0.00     0.005 C 
HETATM    8  C9  UNL     1      25.213   0.476  53.401  1.00  0.00    -0.007 C 
HETATM    9  C10 UNL     1      26.658   0.617  53.802  1.00  0.00     0.141 C 
HETATM   10  N3  UNL     1      27.374   0.942  52.642  1.00  0.00    -0.417 N 
HETATM   11  C11 UNL     1      27.320   2.222  52.106  1.00  0.00     0.135 C 
HETATM   12  C12 UNL     1      26.086   2.786  51.598  1.00  0.00     0.115 A 
HETATM   13  C13 UNL     1      25.109   3.274  50.941  1.00  0.00     0.109 A 
HETATM   14 CL1  UNL     1      26.458   2.912  49.901  1.00  0.00    -0.194 Cl
HETATM   15  C14 UNL     1      24.256   3.768  49.922  1.00  0.00     0.113 A 
HETATM   16  F1  UNL     1      23.798   3.281  48.750  1.00  0.00    -0.212 F 
HETATM   17  C15 UNL     1      24.303   4.744  50.827  1.00  0.00     0.078 A 
HETATM   18  C16 UNL     1      23.593   4.552  51.934  1.00  0.00     0.012 C 
HETATM   19  H11 UNL     1      27.404   0.149  51.958  1.00  0.00     0.153 HD
ENDROOT
BRANCH   6  20
HETATM   20  C6  UNL     1      22.158  -1.444  53.000  1.00  0.00     0.140 C 
BRANCH  20  21
HETATM   21  C7  UNL     1      21.405  -1.518  54.303  1.00  0.00     0.219 C 
HETATM   22  N2  UNL     1      19.989  -1.519  54.314  1.00  0.00    -0.370 N 
HETATM   23  H5  UNL     1      19.341  -0.746  54.018  1.00  0.00     0.159 HD
HETATM   24  H6  UNL     1      18.959  -1.527  54.324  1.00  0.00     0.159 HD
HETATM   25  O1  UNL     1      21.946  -1.578  55.421  1.00  0.00    -0.273 OA
ENDBRANCH  20  21
ENDBRANCH   6  20
TORSDOF 2
ENDMDL
MODEL 5
REMARK VINA RESULT:      -7.7      2.836      5.472
REMARK  2 active torsions:
REMARK  status: ('A' for Active; 'I' for Inactive)
REMARK    1  A    between atoms: C5_6  and  C6_7 
REMARK    2  A    between atoms: C6_7  and  C7_8 
REMARK       I    between atoms: C7_8  and  N2_9 
ROOT
HETATM    1  N1  UNL     1      28.078  -0.282  54.585  1.00  0.00    -0.192 NA
HETATM    2  C1  UNL     1      27.126  -0.172  53.880  1.00  0.00     0.095 C 
HETATM    3  C2  UNL     1      25.918  -0.045  53.014  1.00  0.00     0.028 C 
HETATM    4  C3  UNL     1      24.638  -0.348  53.058  1.00  0.00     0.065 C 
HETATM    5  C4  UNL     1      23.615  -0.976  53.924  1.00  0.00    -0.008 C 
HETATM    6  C5  UNL     1      22.350  -1.046  53.519  1.00  0.00    -0.053 C 
HETATM    7  C8  UNL     1      21.878  -0.427  52.273  1.00  0.00     0.005 C 
HETATM    8  C9  UNL     1      21.976   0.254  51.157  1.00  0.00    -0.007 C 
HETATM    9  C10 UNL     1      21.614   0.932  49.861  1.00  0.00     0.141 C 
HETATM   10  N3  UNL     1      21.919   2.291  50.011  1.00  0.00    -0.417 N 
HETATM   11  C11 UNL     1      23.234   2.735  49.962  1.00  0.00     0.135 C 
HETATM   12  C12 UNL     1      24.217   2.324  50.944  1.00  0.00     0.115 A 
HETATM   13  C13 UNL     1      25.079   2.190  51.873  1.00  0.00     0.109 A 
HETATM   14 CL1  UNL     1      24.534   3.839  51.744  1.00  0.00    -0.194 Cl
HETATM   15  C14 UNL     1      25.978   2.408  52.947  1.00  0.00     0.113 A 
HETATM   16  F1  UNL     1      25.867   2.939  54.183  1.00  0.00    -0.212 F 
HETATM   17  C15 UNL     1      26.716   1.832  52.001  1.00  0.00     0.078 A 
HETATM   18  C16 UNL     1      26.543   0.524  51.836  1.00  0.00     0.012 C 
HETATM   19  H11 UNL     1      21.290   2.767  50.700  1.00  0.00     0.153 HD
ENDROOT
BRANCH   6  20
HETATM   20  C6  UNL     1      21.139  -1.613  54.155  1.00  0.00     0.140 C 
BRANCH  20  21
HETATM   21  C7  UNL     1      20.047  -0.573  54.177  1.00  0.00     0.219 C 
HETATM   22  N2  UNL     1      18.734  -0.903  53.764  1.00  0.00    -0.370 N 
HETATM   23  H5  UNL     1      18.410  -1.179  52.803  1.00  0.00     0.159 HD
HETATM   24  H6  UNL     1      17.776  -1.142  53.470  1.00  0.00     0.159 HD
HETATM   25  O1  UNL     1      20.212   0.605  54.541  1.00  0.00    -0.273 OA
ENDBRANCH  20  21
ENDBRANCH   6  20
TORSDOF 2
ENDMDL
MODEL 6
REMARK VINA RESULT:      -7.4      3.392      5.329
REMARK  2 active torsions:
REMARK  status: ('A' for Active; 'I' for Inactive)
REMARK    1  A    between atoms: C5_6  and  C6_7 
REMARK    2  A    between atoms: C6_7  and  C7_8 
REMARK       I    between atoms: C7_8  and  N2_9 
ROOT
HETATM    1  N1  UNL     1      19.797   3.016  47.976  1.00  0.00    -0.192 NA
HETATM    2  C1  UNL     1      20.847   2.742  48.463  1.00  0.00     0.095 C 
HETATM    3  C2  UNL     1      22.173   2.422  49.068  1.00  0.00     0.028 C 
HETATM    4  C3  UNL     1      23.346   2.997  49.231  1.00  0.00     0.065 C 
HETATM    5  C4  UNL     1      24.084   4.247  48.944  1.00  0.00    -0.008 C 
HETATM    6  C5  UNL     1      25.343   4.387  49.352  1.00  0.00    -0.053 C 
HETATM    7  C8  UNL     1      26.026   3.386  50.183  1.00  0.00     0.005 C 
HETATM    8  C9  UNL     1      26.152   2.272  50.863  1.00  0.00    -0.007 C 
HETATM    9  C10 UNL     1      26.742   1.178  51.714  1.00  0.00     0.141 C 
HETATM   10  N3  UNL     1      25.948   1.082  52.865  1.00  0.00    -0.417 N 
HETATM   11  C11 UNL     1      24.699   0.477  52.820  1.00  0.00     0.135 C 
HETATM   12  C12 UNL     1      23.617   1.016  52.022  1.00  0.00     0.115 A 
HETATM   13  C13 UNL     1      22.560   1.532  51.529  1.00  0.00     0.109 A 
HETATM   14 CL1  UNL     1      22.499   1.497  53.269  1.00  0.00    -0.194 Cl
HETATM   15  C14 UNL     1      21.293   2.138  51.341  1.00  0.00     0.113 A 
HETATM   16  F1  UNL     1      20.706   3.268  51.789  1.00  0.00    -0.212 F 
HETATM   17  C15 UNL     1      21.248   1.026  50.610  1.00  0.00     0.078 A 
HETATM   18  C16 UNL     1      21.917   1.051  49.461  1.00  0.00     0.012 C 
HETATM   19  H11 UNL     1      26.039   1.923  53.482  1.00  0.00     0.153 HD
ENDROOT
BRANCH   6  20
HETATM   20  C6  UNL     1      26.312   5.497  49.204  1.00  0.00     0.140 C 
BRANCH  20  21
HETATM   21  C7  UNL     1      25.666   6.791  49.628  1.00  0.00     0.219 C 
HETATM   22  N2  UNL     1      25.879   7.307  50.930  1.00  0.00    -0.370 N 
HETATM   23  H5  UNL     1      25.577   6.891  51.846  1.00  0.00     0.159 HD
HETATM   24  H6  UNL     1      26.038   7.688  51.873  1.00  0.00     0.159 HD
HETATM   25  O1  UNL     1      24.924   7.473  48.899  1.00  0.00    -0.273 OA
ENDBRANCH  20  21
ENDBRANCH   6  20
TORSDOF 2
ENDMDL
MODEL 7
REMARK VINA RESULT:      -7.1      2.166      2.658
REMARK  2 active torsions:
REMARK  status: ('A' for Active; 'I' for Inactive)
REMARK    1  A    between atoms: C5_6  and  C6_7 
REMARK    2  A    between atoms: C6_7  and  C7_8 
REMARK       I    between atoms: C7_8  and  N2_9 
ROOT
HETATM    1  N1  UNL     1      18.742   2.702  52.234  1.00  0.00    -0.192 NA
HETATM    2  C1  UNL     1      19.928   2.722  52.160  1.00  0.00     0.095 C 
HETATM    3  C2  UNL     1      21.418   2.723  52.077  1.00  0.00     0.028 C 
HETATM    4  C3  UNL     1      22.421   1.919  52.362  1.00  0.00     0.065 C 
HETATM    5  C4  UNL     1      22.725   0.583  52.921  1.00  0.00    -0.008 C 
HETATM    6  C5  UNL     1      23.985   0.165  53.003  1.00  0.00    -0.053 C 
HETATM    7  C8  UNL     1      25.116   0.934  52.463  1.00  0.00     0.005 C 
HETATM    8  C9  UNL     1      25.709   1.934  51.857  1.00  0.00    -0.007 C 
HETATM    9  C10 UNL     1      26.780   2.811  51.263  1.00  0.00     0.141 C 
HETATM   10  N3  UNL     1      26.485   2.950  49.900  1.00  0.00    -0.417 N 
HETATM   11  C11 UNL     1      25.461   3.786  49.475  1.00  0.00     0.135 C 
HETATM   12  C12 UNL     1      24.078   3.542  49.832  1.00  0.00     0.115 A 
HETATM   13  C13 UNL     1      22.832   3.289  49.913  1.00  0.00     0.109 A 
HETATM   14 CL1  UNL     1      23.399   3.172  48.270  1.00  0.00    -0.194 Cl
HETATM   15  C14 UNL     1      21.482   2.959  49.635  1.00  0.00     0.113 A 
HETATM   16  F1  UNL     1      20.865   1.926  49.022  1.00  0.00    -0.212 F 
HETATM   17  C15 UNL     1      21.420   4.121  50.280  1.00  0.00     0.078 A 
HETATM   18  C16 UNL     1      21.617   4.075  51.594  1.00  0.00     0.012 C 
HETATM   19  H11 UNL     1      26.606   2.053  49.373  1.00  0.00     0.153 HD
ENDROOT
BRANCH   6  20
HETATM   20  C6  UNL     1      24.579  -1.092  53.513  1.00  0.00     0.140 C 
BRANCH  20  21
HETATM   21  C7  UNL     1      24.699  -1.021  55.014  1.00  0.00     0.219 C 
HETATM   22  N2  UNL     1      23.643  -1.476  55.841  1.00  0.00    -0.370 N 
HETATM   23  H5  UNL     1      22.677  -1.075  55.930  1.00  0.00     0.159 HD
HETATM   24  H6  UNL     1      22.880  -1.812  56.445  1.00  0.00     0.159 HD
HETATM   25  O1  UNL     1      25.692  -0.573  55.614  1.00  0.00    -0.273 OA
ENDBRANCH  20  21
ENDBRANCH   6  20
TORSDOF 2
ENDMDL
MODEL 8
REMARK VINA RESULT:      -7.0      5.897      8.653
REMARK  2 active torsions:
REMARK  status: ('A' for Active; 'I' for Inactive)
REMARK    1  A    between atoms: C5_6  and  C6_7 
REMARK    2  A    between atoms: C6_7  and  C7_8 
REMARK       I    between atoms: C7_8  and  N2_9 
ROOT
HETATM    1  N1  UNL     1      25.456  10.760  45.344  1.00  0.00    -0.192 NA
HETATM    2  C1  UNL     1      25.678   9.723  45.881  1.00  0.00     0.095 C 
HETATM    3  C2  UNL     1      25.981   8.425  46.552  1.00  0.00     0.028 C 
HETATM    4  C3  UNL     1      27.035   7.741  46.943  1.00  0.00     0.065 C 
HETATM    5  C4  UNL     1      28.514   7.788  46.971  1.00  0.00    -0.008 C 
HETATM    6  C5  UNL     1      29.203   6.796  47.529  1.00  0.00    -0.053 C 
HETATM    7  C8  UNL     1      28.560   5.676  48.229  1.00  0.00     0.005 C 
HETATM    8  C9  UNL     1      27.563   4.967  48.701  1.00  0.00    -0.007 C 
HETATM    9  C10 UNL     1      26.789   3.875  49.393  1.00  0.00     0.141 C 
HETATM   10  N3  UNL     1      26.049   4.484  50.415  1.00  0.00    -0.417 N 
HETATM   11  C11 UNL     1      24.904   5.215  50.128  1.00  0.00     0.135 C 
HETATM   12  C12 UNL     1      24.951   6.426  49.333  1.00  0.00     0.115 A 
HETATM   13  C13 UNL     1      24.927   7.599  48.834  1.00  0.00     0.109 A 
HETATM   14 CL1  UNL     1      24.496   7.616  50.521  1.00  0.00    -0.194 Cl
HETATM   15  C14 UNL     1      24.801   8.995  48.627  1.00  0.00     0.113 A 
HETATM   16  F1  UNL     1      25.330  10.091  49.212  1.00  0.00    -0.212 F 
HETATM   17  C15 UNL     1      24.017   8.445  47.704  1.00  0.00     0.078 A 
HETATM   18  C16 UNL     1      24.633   7.904  46.657  1.00  0.00     0.012 C 
HETATM   19  H11 UNL     1      26.659   4.851  51.183  1.00  0.00     0.153 HD
ENDROOT
BRANCH   6  20
HETATM   20  C6  UNL     1      30.658   6.573  47.692  1.00  0.00     0.140 C 
BRANCH  20  21
HETATM   21  C7  UNL     1      31.093   7.057  49.052  1.00  0.00     0.219 C 
HETATM   22  N2  UNL     1      31.586   6.144  50.015  1.00  0.00    -0.370 N 
HETATM   23  H5  UNL     1      31.064   5.367  50.493  1.00  0.00     0.159 HD
HETATM   24  H6  UNL     1      31.950   5.483  50.716  1.00  0.00     0.159 HD
HETATM   25  O1  UNL     1      31.051   8.246  49.416  1.00  0.00    -0.273 OA
ENDBRANCH  20  21
ENDBRANCH   6  20
TORSDOF 2
ENDMDL
MODEL 9
REMARK VINA RESULT:      -6.9      3.883      6.614
REMARK  2 active torsions:
REMARK  status: ('A' for Active; 'I' for Inactive)
REMARK    1  A    between atoms: C5_6  and  C6_7 
REMARK    2  A    between atoms: C6_7  and  C7_8 
REMARK       I    between atoms: C7_8  and  N2_9 
ROOT
HETATM    1  N1  UNL     1      20.932   5.926  50.382  1.00  0.00    -0.192 NA
HETATM    2  C1  UNL     1      21.078   4.942  51.033  1.00  0.00     0.095 C 
HETATM    3  C2  UNL     1      21.240   3.696  51.839  1.00  0.00     0.028 C 
HETATM    4  C3  UNL     1      20.648   2.529  51.976  1.00  0.00     0.065 C 
HETATM    5  C4  UNL     1      19.509   1.729  51.472  1.00  0.00    -0.008 C 
HETATM    6  C5  UNL     1      19.302   0.498  51.932  1.00  0.00    -0.053 C 
HETATM    7  C8  UNL     1      20.225  -0.170  52.861  1.00  0.00     0.005 C 
HETATM    8  C9  UNL     1      21.288  -0.292  53.619  1.00  0.00    -0.007 C 
HETATM    9  C10 UNL     1      22.308  -0.870  54.565  1.00  0.00     0.141 C 
HETATM   10  N3  UNL     1      23.533  -0.888  53.884  1.00  0.00    -0.417 N 
HETATM   11  C11 UNL     1      24.261   0.280  53.695  1.00  0.00     0.135 C 
HETATM   12  C12 UNL     1      23.747   1.379  52.904  1.00  0.00     0.115 A 
HETATM   13  C13 UNL     1      23.473   2.295  52.060  1.00  0.00     0.109 A 
HETATM   14 CL1  UNL     1      24.861   1.367  51.564  1.00  0.00    -0.194 Cl
HETATM   15  C14 UNL     1      23.463   3.168  50.944  1.00  0.00     0.113 A 
HETATM   16  F1  UNL     1      23.430   2.996  49.606  1.00  0.00    -0.212 F 
HETATM   17  C15 UNL     1      23.493   3.974  52.004  1.00  0.00     0.078 A 
HETATM   18  C16 UNL     1      22.352   4.108  52.672  1.00  0.00     0.012 C 
HETATM   19  H11 UNL     1      23.540  -1.577  53.096  1.00  0.00     0.153 HD
ENDROOT
BRANCH   6  20
HETATM   20  C6  UNL     1      18.263  -0.511  51.625  1.00  0.00     0.140 C 
BRANCH  20  21
HETATM   21  C7  UNL     1      17.299  -0.610  52.779  1.00  0.00     0.219 C 
HETATM   22  N2  UNL     1      17.518  -1.547  53.818  1.00  0.00    -0.370 N 
HETATM   23  H5  UNL     1      17.503  -2.595  53.754  1.00  0.00     0.159 HD
HETATM   24  H6  UNL     1      17.678  -2.223  54.579  1.00  0.00     0.159 HD
HETATM   25  O1  UNL     1      16.279   0.091  52.899  1.00  0.00    -0.273 OA
ENDBRANCH  20  21
ENDBRANCH   6  20
TORSDOF 2
ENDMDL
