MODEL 1
REMARK VINA RESULT:      -7.7      0.000      0.000
REMARK  4 active torsions:
REMARK  status: ('A' for Active; 'I' for Inactive)
REMARK    1  A    between atoms: N1_1  and  C1_2 
REMARK    2  A    between atoms: N2_8  and  C6_9 
REMARK    3  A    between atoms: N4_14  and  C10_15 
REMARK    4  A    between atoms: C10_15  and  C11_16 
ROOT
HETATM    1  C6  UNL     1      23.779   2.890  52.448  1.00  0.00     0.144 C 
HETATM    2  C7  UNL     1      22.586   1.870  52.581  1.00  0.00     0.162 C 
HETATM    3  N3  UNL     1      22.705   0.487  52.761  1.00  0.00    -0.283 N 
HETATM    4  C8  UNL     1      24.105   0.174  53.069  1.00  0.00     0.049 C 
HETATM    5  C9  UNL     1      24.950  -0.279  53.974  1.00  0.00     0.117 C 
HETATM    6  N4  UNL     1      25.988   0.720  54.211  1.00  0.00    -0.360 N 
HETATM    7  C15 UNL     1      26.010   2.008  53.512  1.00  0.00     0.096 C 
HETATM    8  C16 UNL     1      24.983   2.058  52.696  1.00  0.00    -0.034 C 
HETATM    9  C17 UNL     1      24.820   0.791  51.813  1.00  0.00     0.098 C 
ENDROOT
BRANCH   1  10
HETATM   10  N2  UNL     1      23.679   3.571  51.218  1.00  0.00    -0.352 N 
HETATM   11  C1  UNL     1      23.772   5.020  51.285  1.00  0.00     0.115 A 
HETATM   12  C2  UNL     1      23.664   5.947  50.351  1.00  0.00     0.054 A 
HETATM   13 BR1  UNL     1      23.812   7.798  50.722  1.00  0.00    -0.047 Br
HETATM   14  C3  UNL     1      23.439   5.487  48.990  1.00  0.00     0.020 A 
HETATM   15  C4  UNL     1      23.382   4.172  48.929  1.00  0.00    -0.006 A 
HETATM   16  C5  UNL     1      23.493   3.059  49.902  1.00  0.00     0.152 A 
BRANCH  11  17
HETATM   17  N1  UNL     1      24.012   5.692  52.550  1.00  0.00    -0.384 N 
HETATM   18  H1  UNL     1      24.591   5.913  53.377  1.00  0.00     0.157 HD
HETATM   19  H2  UNL     1      23.132   6.224  52.672  1.00  0.00     0.157 HD
ENDBRANCH  11  17
ENDBRANCH   1  10
BRANCH   6  20
HETATM   20  C10 UNL     1      26.971   0.339  55.189  1.00  0.00     0.166 C 
BRANCH  20  21
HETATM   21  C11 UNL     1      28.260   0.146  54.452  1.00  0.00    -0.040 A 
HETATM   22  C12 UNL     1      29.379   0.816  54.242  1.00  0.00     0.009 A 
HETATM   23  C13 UNL     1      29.910  -0.264  53.424  1.00  0.00     0.001 A 
HETATM   24  C14 UNL     1      28.796  -0.945  53.625  1.00  0.00     0.009 A 
ENDBRANCH  20  21
ENDBRANCH   6  20
TORSDOF 4
ENDMDL
MODEL 2
REMARK VINA RESULT:      -6.9      1.677      2.295
REMARK  4 active torsions:
REMARK  status: ('A' for Active; 'I' for Inactive)
REMARK    1  A    between atoms: N1_1  and  C1_2 
REMARK    2  A    between atoms: N2_8  and  C6_9 
REMARK    3  A    between atoms: N4_14  and  C10_15 
REMARK    4  A    between atoms: C10_15  and  C11_16 
ROOT
HETATM    1  C6  UNL     1      22.734   3.294  51.858  1.00  0.00     0.144 C 
HETATM    2  C7  UNL     1      21.240   3.135  52.332  1.00  0.00     0.162 C 
HETATM    3  N3  UNL     1      20.605   1.929  52.653  1.00  0.00    -0.283 N 
HETATM    4  C8  UNL     1      21.621   0.874  52.735  1.00  0.00     0.049 C 
HETATM    5  C9  UNL     1      22.245   0.016  53.518  1.00  0.00     0.117 C 
HETATM    6  N4  UNL     1      23.685   0.244  53.436  1.00  0.00    -0.360 N 
HETATM    7  C15 UNL     1      24.265   1.293  52.594  1.00  0.00     0.096 C 
HETATM    8  C16 UNL     1      23.290   1.923  51.980  1.00  0.00    -0.034 C 
HETATM    9  C17 UNL     1      22.260   0.979  51.304  1.00  0.00     0.098 C 
ENDROOT
BRANCH   1  10
HETATM   10  N2  UNL     1      22.762   3.916  50.594  1.00  0.00    -0.352 N 
HETATM   11  C1  UNL     1      24.022   4.536  50.219  1.00  0.00     0.115 A 
HETATM   12  C2  UNL     1      24.369   5.237  49.155  1.00  0.00     0.054 A 
HETATM   13 BR1  UNL     1      26.105   5.957  48.923  1.00  0.00    -0.047 Br
HETATM   14  C3  UNL     1      23.352   5.429  48.132  1.00  0.00     0.020 A 
HETATM   15  C4  UNL     1      22.219   4.843  48.463  1.00  0.00    -0.006 A 
HETATM   16  C5  UNL     1      21.735   4.042  49.614  1.00  0.00     0.152 A 
BRANCH  11  17
HETATM   17  N1  UNL     1      25.181   4.451  51.090  1.00  0.00    -0.384 N 
HETATM   18  H1  UNL     1      26.142   4.144  51.311  1.00  0.00     0.157 HD
HETATM   19  H2  UNL     1      24.857   4.981  51.918  1.00  0.00     0.157 HD
ENDBRANCH  11  17
ENDBRANCH   1  10
BRANCH   6  20
HETATM   20  C10 UNL     1      24.476  -0.633  54.256  1.00  0.00     0.166 C 
BRANCH  20  21
HETATM   21  C11 UNL     1      25.837  -0.691  53.636  1.00  0.00    -0.040 A 
HETATM   22  C12 UNL     1      26.420  -1.275  52.604  1.00  0.00     0.009 A 
HETATM   23  C13 UNL     1      27.697  -0.662  52.938  1.00  0.00     0.001 A 
HETATM   24  C14 UNL     1      27.126  -0.072  53.973  1.00  0.00     0.009 A 
ENDBRANCH  20  21
ENDBRANCH   6  20
TORSDOF 4
ENDMDL
MODEL 3
REMARK VINA RESULT:      -6.9      1.782      2.158
REMARK  4 active torsions:
REMARK  status: ('A' for Active; 'I' for Inactive)
REMARK    1  A    between atoms: N1_1  and  C1_2 
REMARK    2  A    between atoms: N2_8  and  C6_9 
REMARK    3  A    between atoms: N4_14  and  C10_15 
REMARK    4  A    between atoms: C10_15  and  C11_16 
ROOT
HETATM    1  C6  UNL     1      24.486   3.419  51.836  1.00  0.00     0.144 C 
HETATM    2  C7  UNL     1      23.147   3.388  52.666  1.00  0.00     0.162 C 
HETATM    3  N3  UNL     1      22.387   2.249  52.953  1.00  0.00    -0.283 N 
HETATM    4  C8  UNL     1      23.167   1.061  52.588  1.00  0.00     0.049 C 
HETATM    5  C9  UNL     1      23.781  -0.019  53.027  1.00  0.00     0.117 C 
HETATM    6  N4  UNL     1      25.176   0.007  52.595  1.00  0.00    -0.360 N 
HETATM    7  C15 UNL     1      25.730   1.108  51.804  1.00  0.00     0.096 C 
HETATM    8  C16 UNL     1      24.778   1.986  51.584  1.00  0.00    -0.034 C 
HETATM    9  C17 UNL     1      23.453   1.360  51.072  1.00  0.00     0.098 C 
ENDROOT
BRANCH   1  10
HETATM   10  N2  UNL     1      24.331   4.274  50.726  1.00  0.00    -0.352 N 
HETATM   11  C1  UNL     1      25.556   4.662  50.047  1.00  0.00     0.115 A 
HETATM   12  C2  UNL     1      25.772   5.478  49.031  1.00  0.00     0.054 A 
HETATM   13 BR1  UNL     1      27.502   5.825  48.345  1.00  0.00    -0.047 Br
HETATM   14  C3  UNL     1      24.605   6.106  48.431  1.00  0.00     0.020 A 
HETATM   15  C4  UNL     1      23.494   5.730  49.032  1.00  0.00    -0.006 A 
HETATM   16  C5  UNL     1      23.148   4.831  50.160  1.00  0.00     0.152 A 
BRANCH  11  17
HETATM   17  N1  UNL     1      26.841   4.138  50.474  1.00  0.00    -0.384 N 
HETATM   18  H1  UNL     1      27.456   3.645  51.143  1.00  0.00     0.157 HD
HETATM   19  H2  UNL     1      27.449   4.408  49.680  1.00  0.00     0.157 HD
ENDBRANCH  11  17
ENDBRANCH   1  10
BRANCH   6  20
HETATM   20  C10 UNL     1      25.954  -1.125  53.020  1.00  0.00     0.166 C 
BRANCH  20  21
HETATM   21  C11 UNL     1      27.194  -0.580  53.657  1.00  0.00    -0.040 A 
HETATM   22  C12 UNL     1      28.499  -0.618  53.454  1.00  0.00     0.009 A 
HETATM   23  C13 UNL     1      28.738   0.218  54.621  1.00  0.00     0.001 A 
HETATM   24  C14 UNL     1      27.436   0.265  54.836  1.00  0.00     0.009 A 
ENDBRANCH  20  21
ENDBRANCH   6  20
TORSDOF 4
ENDMDL
MODEL 4
REMARK VINA RESULT:      -6.9      3.566      4.735
REMARK  4 active torsions:
REMARK  status: ('A' for Active; 'I' for Inactive)
REMARK    1  A    between atoms: N1_1  and  C1_2 
REMARK    2  A    between atoms: N2_8  and  C6_9 
REMARK    3  A    between atoms: N4_14  and  C10_15 
REMARK    4  A    between atoms: C10_15  and  C11_16 
ROOT
HETATM    1  C6  UNL     1      24.113   4.270  50.973  1.00  0.00     0.144 C 
HETATM    2  C7  UNL     1      23.427   5.062  52.150  1.00  0.00     0.162 C 
HETATM    3  N3  UNL     1      22.114   4.886  52.601  1.00  0.00    -0.283 N 
HETATM    4  C8  UNL     1      21.566   3.672  51.985  1.00  0.00     0.049 C 
HETATM    5  C9  UNL     1      21.123   2.448  52.189  1.00  0.00     0.117 C 
HETATM    6  N4  UNL     1      21.895   1.511  51.377  1.00  0.00    -0.360 N 
HETATM    7  C15 UNL     1      22.985   1.948  50.501  1.00  0.00     0.096 C 
HETATM    8  C16 UNL     1      23.100   3.252  50.596  1.00  0.00    -0.034 C 
HETATM    9  C17 UNL     1      21.754   4.014  50.462  1.00  0.00     0.098 C 
ENDROOT
BRANCH   1  10
HETATM   10  N2  UNL     1      24.547   5.178  49.987  1.00  0.00    -0.352 N 
HETATM   11  C1  UNL     1      25.939   5.063  49.586  1.00  0.00     0.115 A 
HETATM   12  C2  UNL     1      26.670   5.777  48.748  1.00  0.00     0.054 A 
HETATM   13 BR1  UNL     1      28.499   5.415  48.420  1.00  0.00    -0.047 Br
HETATM   14  C3  UNL     1      26.001   6.867  48.055  1.00  0.00     0.020 A 
HETATM   15  C4  UNL     1      24.732   6.951  48.400  1.00  0.00    -0.006 A 
HETATM   16  C5  UNL     1      23.830   6.209  49.314  1.00  0.00     0.152 A 
BRANCH  11  17
HETATM   17  N1  UNL     1      26.791   4.028  50.144  1.00  0.00    -0.384 N 
HETATM   18  H1  UNL     1      27.663   3.474  50.175  1.00  0.00     0.157 HD
HETATM   19  H2  UNL     1      26.200   3.665  50.913  1.00  0.00     0.157 HD
ENDBRANCH  11  17
ENDBRANCH   1  10
BRANCH   6  20
HETATM   20  C10 UNL     1      21.504   0.135  51.520  1.00  0.00     0.166 C 
BRANCH  20  21
HETATM   21  C11 UNL     1      22.038  -0.330  52.839  1.00  0.00    -0.040 A 
HETATM   22  C12 UNL     1      23.208  -0.424  53.445  1.00  0.00     0.009 A 
HETATM   23  C13 UNL     1      22.583  -0.985  54.634  1.00  0.00     0.001 A 
HETATM   24  C14 UNL     1      21.407  -0.896  54.040  1.00  0.00     0.009 A 
ENDBRANCH  20  21
ENDBRANCH   6  20
TORSDOF 4
ENDMDL
MODEL 5
REMARK VINA RESULT:      -6.7      2.814      3.923
REMARK  4 active torsions:
REMARK  status: ('A' for Active; 'I' for Inactive)
REMARK    1  A    between atoms: N1_1  and  C1_2 
REMARK    2  A    between atoms: N2_8  and  C6_9 
REMARK    3  A    between atoms: N4_14  and  C10_15 
REMARK    4  A    between atoms: C10_15  and  C11_16 
ROOT
HETATM    1  C6  UNL     1      23.547   1.319  51.690  1.00  0.00     0.144 C 
HETATM    2  C7  UNL     1      24.450   2.210  50.756  1.00  0.00     0.162 C 
HETATM    3  N3  UNL     1      25.558   2.963  51.163  1.00  0.00    -0.283 N 
HETATM    4  C8  UNL     1      25.901   2.586  52.538  1.00  0.00     0.049 C 
HETATM    5  C9  UNL     1      26.797   2.025  53.326  1.00  0.00     0.117 C 
HETATM    6  N4  UNL     1      26.176   0.928  54.062  1.00  0.00    -0.360 N 
HETATM    7  C15 UNL     1      24.768   0.566  53.888  1.00  0.00     0.096 C 
HETATM    8  C16 UNL     1      24.234   1.377  53.005  1.00  0.00    -0.034 C 
HETATM    9  C17 UNL     1      24.539   2.877  53.265  1.00  0.00     0.098 C 
ENDROOT
BRANCH   1  10
HETATM   10  N2  UNL     1      22.211   1.763  51.614  1.00  0.00    -0.352 N 
HETATM   11  C1  UNL     1      21.202   0.820  52.063  1.00  0.00     0.115 A 
HETATM   12  C2  UNL     1      19.883   0.890  52.073  1.00  0.00     0.054 A 
HETATM   13 BR1  UNL     1      18.787  -0.518  52.708  1.00  0.00    -0.047 Br
HETATM   14  C3  UNL     1      19.285   2.122  51.584  1.00  0.00     0.020 A 
HETATM   15  C4  UNL     1      20.204   2.985  51.203  1.00  0.00    -0.006 A 
HETATM   16  C5  UNL     1      21.686   3.006  51.155  1.00  0.00     0.152 A 
BRANCH  11  17
HETATM   17  N1  UNL     1      21.580  -0.473  52.607  1.00  0.00    -0.384 N 
HETATM   18  H1  UNL     1      21.501  -1.237  53.298  1.00  0.00     0.157 HD
HETATM   19  H2  UNL     1      22.315  -0.771  51.941  1.00  0.00     0.157 HD
ENDBRANCH  11  17
ENDBRANCH   1  10
BRANCH   6  20
HETATM   20  C10 UNL     1      27.062   0.232  54.956  1.00  0.00     0.166 C 
BRANCH  20  21
HETATM   21  C11 UNL     1      28.148  -0.360  54.112  1.00  0.00    -0.040 A 
HETATM   22  C12 UNL     1      28.257  -1.223  53.118  1.00  0.00     0.009 A 
HETATM   23  C13 UNL     1      29.701  -1.049  53.083  1.00  0.00     0.001 A 
HETATM   24  C14 UNL     1      29.607  -0.183  54.076  1.00  0.00     0.009 A 
ENDBRANCH  20  21
ENDBRANCH   6  20
TORSDOF 4
ENDMDL
MODEL 6
REMARK VINA RESULT:      -6.6      2.947      3.988
REMARK  4 active torsions:
REMARK  status: ('A' for Active; 'I' for Inactive)
REMARK    1  A    between atoms: N1_1  and  C1_2 
REMARK    2  A    between atoms: N2_8  and  C6_9 
REMARK    3  A    between atoms: N4_14  and  C10_15 
REMARK    4  A    between atoms: C10_15  and  C11_16 
ROOT
HETATM    1  C6  UNL     1      25.524   5.590  50.113  1.00  0.00     0.144 C 
HETATM    2  C7  UNL     1      24.207   5.762  50.960  1.00  0.00     0.162 C 
HETATM    3  N3  UNL     1      23.335   4.735  51.339  1.00  0.00    -0.283 N 
HETATM    4  C8  UNL     1      23.978   3.447  51.052  1.00  0.00     0.049 C 
HETATM    5  C9  UNL     1      24.483   2.341  51.561  1.00  0.00     0.117 C 
HETATM    6  N4  UNL     1      25.863   2.187  51.110  1.00  0.00    -0.360 N 
HETATM    7  C15 UNL     1      26.515   3.163  50.234  1.00  0.00     0.096 C 
HETATM    8  C16 UNL     1      25.657   4.119  49.963  1.00  0.00    -0.034 C 
HETATM    9  C17 UNL     1      24.262   3.605  49.515  1.00  0.00     0.098 C 
ENDROOT
BRANCH   1  10
HETATM   10  N2  UNL     1      25.438   6.376  48.945  1.00  0.00    -0.352 N 
HETATM   11  C1  UNL     1      26.701   6.844  48.400  1.00  0.00     0.115 A 
HETATM   12  C2  UNL     1      26.973   7.629  47.374  1.00  0.00     0.054 A 
HETATM   13 BR1  UNL     1      28.740   8.102  46.885  1.00  0.00    -0.047 Br
HETATM   14  C3  UNL     1      25.842   8.118  46.601  1.00  0.00     0.020 A 
HETATM   15  C4  UNL     1      24.700   7.669  47.081  1.00  0.00    -0.006 A 
HETATM   16  C5  UNL     1      24.293   6.794  48.208  1.00  0.00     0.152 A 
BRANCH  11  17
HETATM   17  N1  UNL     1      27.962   6.461  49.010  1.00  0.00    -0.384 N 
HETATM   18  H1  UNL     1      28.927   6.092  48.970  1.00  0.00     0.157 HD
HETATM   19  H2  UNL     1      27.784   6.675  50.007  1.00  0.00     0.157 HD
ENDBRANCH  11  17
ENDBRANCH   1  10
BRANCH   6  20
HETATM   20  C10 UNL     1      26.525   1.011  51.607  1.00  0.00     0.166 C 
BRANCH  20  21
HETATM   21  C11 UNL     1      27.474   1.469  52.670  1.00  0.00    -0.040 A 
HETATM   22  C12 UNL     1      27.560   2.447  53.554  1.00  0.00     0.009 A 
HETATM   23  C13 UNL     1      28.835   1.941  54.040  1.00  0.00     0.001 A 
HETATM   24  C14 UNL     1      28.762   0.957  53.161  1.00  0.00     0.009 A 
ENDBRANCH  20  21
ENDBRANCH   6  20
TORSDOF 4
ENDMDL
MODEL 7
REMARK VINA RESULT:      -6.6      7.802      9.377
REMARK  4 active torsions:
REMARK  status: ('A' for Active; 'I' for Inactive)
REMARK    1  A    between atoms: N1_1  and  C1_2 
REMARK    2  A    between atoms: N2_8  and  C6_9 
REMARK    3  A    between atoms: N4_14  and  C10_15 
REMARK    4  A    between atoms: C10_15  and  C11_16 
ROOT
HETATM    1  C6  UNL     1      30.256   7.295  47.605  1.00  0.00     0.144 C 
HETATM    2  C7  UNL     1      30.764   8.533  46.774  1.00  0.00     0.162 C 
HETATM    3  N3  UNL     1      31.948   9.245  47.003  1.00  0.00    -0.283 N 
HETATM    4  C8  UNL     1      32.764   8.497  47.966  1.00  0.00     0.049 C 
HETATM    5  C9  UNL     1      33.882   7.826  48.162  1.00  0.00     0.117 C 
HETATM    6  N4  UNL     1      33.564   6.489  48.655  1.00  0.00    -0.360 N 
HETATM    7  C15 UNL     1      32.186   6.038  48.864  1.00  0.00     0.096 C 
HETATM    8  C16 UNL     1      31.372   7.018  48.544  1.00  0.00    -0.034 C 
HETATM    9  C17 UNL     1      31.759   8.386  49.168  1.00  0.00     0.098 C 
ENDROOT
BRANCH   1  10
HETATM   10  N2  UNL     1      28.986   7.583  48.145  1.00  0.00    -0.352 N 
HETATM   11  C1  UNL     1      28.155   6.433  48.460  1.00  0.00     0.115 A 
HETATM   12  C2  UNL     1      26.917   6.346  48.914  1.00  0.00     0.054 A 
HETATM   13 BR1  UNL     1      26.053   4.690  49.224  1.00  0.00    -0.047 Br
HETATM   14  C3  UNL     1      26.229   7.597  49.192  1.00  0.00     0.020 A 
HETATM   15  C4  UNL     1      26.995   8.637  48.932  1.00  0.00    -0.006 A 
HETATM   16  C5  UNL     1      28.376   8.839  48.430  1.00  0.00     0.152 A 
BRANCH  11  17
HETATM   17  N1  UNL     1      28.652   5.081  48.273  1.00  0.00    -0.384 N 
HETATM   18  H1  UNL     1      28.942   4.153  48.623  1.00  0.00     0.157 HD
HETATM   19  H2  UNL     1      28.780   5.047  47.246  1.00  0.00     0.157 HD
ENDBRANCH  11  17
ENDBRANCH   1  10
BRANCH   6  20
HETATM   20  C10 UNL     1      34.709   5.656  48.903  1.00  0.00     0.166 C 
BRANCH  20  21
HETATM   21  C11 UNL     1      34.689   4.576  47.866  1.00  0.00    -0.040 A 
HETATM   22  C12 UNL     1      34.719   3.256  47.824  1.00  0.00     0.009 A 
HETATM   23  C13 UNL     1      34.654   3.268  46.371  1.00  0.00     0.001 A 
HETATM   24  C14 UNL     1      34.622   4.589  46.398  1.00  0.00     0.009 A 
ENDBRANCH  20  21
ENDBRANCH   6  20
TORSDOF 4
ENDMDL
MODEL 8
REMARK VINA RESULT:      -6.4      3.748      5.889
REMARK  4 active torsions:
REMARK  status: ('A' for Active; 'I' for Inactive)
REMARK    1  A    between atoms: N1_1  and  C1_2 
REMARK    2  A    between atoms: N2_8  and  C6_9 
REMARK    3  A    between atoms: N4_14  and  C10_15 
REMARK    4  A    between atoms: C10_15  and  C11_16 
ROOT
HETATM    1  C6  UNL     1      26.167   6.377  49.432  1.00  0.00     0.144 C 
HETATM    2  C7  UNL     1      25.202   7.399  50.144  1.00  0.00     0.162 C 
HETATM    3  N3  UNL     1      23.828   7.225  50.346  1.00  0.00    -0.283 N 
HETATM    4  C8  UNL     1      23.481   5.835  50.030  1.00  0.00     0.049 C 
HETATM    5  C9  UNL     1      23.049   4.682  50.500  1.00  0.00     0.117 C 
HETATM    6  N4  UNL     1      24.020   3.637  50.189  1.00  0.00    -0.360 N 
HETATM    7  C15 UNL     1      25.264   3.913  49.467  1.00  0.00     0.096 C 
HETATM    8  C16 UNL     1      25.306   5.194  49.182  1.00  0.00    -0.034 C 
HETATM    9  C17 UNL     1      23.998   5.741  48.549  1.00  0.00     0.098 C 
ENDROOT
BRANCH   1  10
HETATM   10  N2  UNL     1      26.780   7.003  48.328  1.00  0.00    -0.352 N 
HETATM   11  C1  UNL     1      28.187   6.699  48.127  1.00  0.00     0.115 A 
HETATM   12  C2  UNL     1      29.061   7.147  47.243  1.00  0.00     0.054 A 
HETATM   13 BR1  UNL     1      30.870   6.589  47.217  1.00  0.00    -0.047 Br
HETATM   14  C3  UNL     1      28.571   8.096  46.256  1.00  0.00     0.020 A 
HETATM   15  C4  UNL     1      27.289   8.348  46.424  1.00  0.00    -0.006 A 
HETATM   16  C5  UNL     1      26.235   7.902  47.367  1.00  0.00     0.152 A 
BRANCH  11  17
HETATM   17  N1  UNL     1      28.877   5.759  48.993  1.00  0.00    -0.384 N 
HETATM   18  H1  UNL     1      29.634   5.498  49.646  1.00  0.00     0.157 HD
HETATM   19  H2  UNL     1      28.290   4.912  48.890  1.00  0.00     0.157 HD
ENDBRANCH  11  17
ENDBRANCH   1  10
BRANCH   6  20
HETATM   20  C10 UNL     1      23.659   2.327  50.660  1.00  0.00     0.166 C 
BRANCH  20  21
HETATM   21  C11 UNL     1      24.541   2.032  51.833  1.00  0.00    -0.040 A 
HETATM   22  C12 UNL     1      25.481   1.164  52.159  1.00  0.00     0.009 A 
HETATM   23  C13 UNL     1      25.636   1.775  53.471  1.00  0.00     0.001 A 
HETATM   24  C14 UNL     1      24.697   2.650  53.158  1.00  0.00     0.009 A 
ENDBRANCH  20  21
ENDBRANCH   6  20
TORSDOF 4
ENDMDL
MODEL 9
REMARK VINA RESULT:      -6.4      2.441      4.480
REMARK  4 active torsions:
REMARK  status: ('A' for Active; 'I' for Inactive)
REMARK    1  A    between atoms: N1_1  and  C1_2 
REMARK    2  A    between atoms: N2_8  and  C6_9 
REMARK    3  A    between atoms: N4_14  and  C10_15 
REMARK    4  A    between atoms: C10_15  and  C11_16 
ROOT
HETATM    1  C6  UNL     1      25.034   2.572  50.506  1.00  0.00     0.144 C 
HETATM    2  C7  UNL     1      26.526   2.633  51.008  1.00  0.00     0.162 C 
HETATM    3  N3  UNL     1      26.960   2.402  52.318  1.00  0.00    -0.283 N 
HETATM    4  C8  UNL     1      25.846   1.837  53.088  1.00  0.00     0.049 C 
HETATM    5  C9  UNL     1      25.387   0.783  53.733  1.00  0.00     0.117 C 
HETATM    6  N4  UNL     1      24.104   0.386  53.161  1.00  0.00    -0.360 N 
HETATM    7  C15 UNL     1      23.493   1.099  52.036  1.00  0.00     0.096 C 
HETATM    8  C16 UNL     1      24.282   2.090  51.691  1.00  0.00    -0.034 C 
HETATM    9  C17 UNL     1      24.762   2.957  52.887  1.00  0.00     0.098 C 
ENDROOT
BRANCH   1  10
HETATM   10  N2  UNL     1      24.675   3.816  49.947  1.00  0.00    -0.352 N 
HETATM   11  C1  UNL     1      23.588   3.789  48.983  1.00  0.00     0.115 A 
HETATM   12  C2  UNL     1      23.050   4.743  48.246  1.00  0.00     0.054 A 
HETATM   13 BR1  UNL     1      21.629   4.425  47.035  1.00  0.00    -0.047 Br
HETATM   14  C3  UNL     1      23.588   6.085  48.410  1.00  0.00     0.020 A 
HETATM   15  C4  UNL     1      24.554   6.110  49.305  1.00  0.00    -0.006 A 
HETATM   16  C5  UNL     1      25.220   5.112  50.177  1.00  0.00     0.152 A 
BRANCH  11  17
HETATM   17  N1  UNL     1      22.894   2.550  48.678  1.00  0.00    -0.384 N 
HETATM   18  H1  UNL     1      22.123   1.874  48.805  1.00  0.00     0.157 HD
HETATM   19  H2  UNL     1      23.509   2.142  47.951  1.00  0.00     0.157 HD
ENDBRANCH  11  17
ENDBRANCH   1  10
BRANCH   6  20
HETATM   20  C10 UNL     1      23.503  -0.763  53.782  1.00  0.00     0.166 C 
BRANCH  20  21
HETATM   21  C11 UNL     1      22.038  -0.478  53.891  1.00  0.00    -0.040 A 
HETATM   22  C12 UNL     1      21.208   0.080  54.755  1.00  0.00     0.009 A 
HETATM   23  C13 UNL     1      20.074  -0.172  53.879  1.00  0.00     0.001 A 
HETATM   24  C14 UNL     1      20.892  -0.732  53.006  1.00  0.00     0.009 A 
ENDBRANCH  20  21
ENDBRANCH   6  20
TORSDOF 4
ENDMDL
