MODEL 1
REMARK VINA RESULT:      -8.0      0.000      0.000
REMARK  6 active torsions:
REMARK  status: ('A' for Active; 'I' for Inactive)
REMARK       I    between atoms: C1_2  and  N1_3 
REMARK    1  A    between atoms: C1_2  and  C6_9 
REMARK    2  A    between atoms: N1_3  and  O2_4 
REMARK    3  A    between atoms: O2_4  and  C2_5 
REMARK    4  A    between atoms: C2_5  and  C3_6 
REMARK    5  A    between atoms: C11_16  and  N2_17 
REMARK    6  A    between atoms: N2_17  and  C12_18 
ROOT
HETATM    1  C6  UNL     1      25.037   2.021  52.635  1.00  0.00     0.064 A 
HETATM    2  C7  UNL     1      24.590   0.751  52.901  1.00  0.00     0.022 A 
HETATM    3  C8  UNL     1      23.248   0.504  52.915  1.00  0.00     0.046 A 
HETATM    4  C9  UNL     1      22.350   1.518  52.662  1.00  0.00     0.157 A 
HETATM    5  F1  UNL     1      21.014   1.239  52.683  1.00  0.00    -0.203 F 
HETATM    6  C10 UNL     1      22.813   2.780  52.397  1.00  0.00     0.182 A 
HETATM    7  F2  UNL     1      21.861   3.720  52.160  1.00  0.00    -0.200 F 
HETATM    8  C11 UNL     1      24.165   3.054  52.379  1.00  0.00     0.090 A 
ENDROOT
BRANCH   1   9
HETATM    9  C1  UNL     1      26.456   2.308  52.616  1.00  0.00     0.277 C 
HETATM   10  O1  UNL     1      27.262   2.562  51.692  1.00  0.00    -0.265 OA
HETATM   11  N1  UNL     1      27.195   2.335  53.822  1.00  0.00    -0.231 N 
HETATM   12  H1  UNL     1      26.815   2.161  54.789  1.00  0.00     0.197 HD
BRANCH  11  13
HETATM   13  O2  UNL     1      28.469   2.557  54.145  1.00  0.00    -0.277 OA
BRANCH  13  14
HETATM   14  C2  UNL     1      29.174   1.477  54.608  1.00  0.00     0.205 C 
BRANCH  14  15
HETATM   15  C3  UNL     1      29.412   0.524  53.431  1.00  0.00     0.012 A 
HETATM   16  C4  UNL     1      28.602  -0.774  53.516  1.00  0.00     0.007 A 
HETATM   17  C5  UNL     1      30.053  -0.806  53.746  1.00  0.00     0.007 A 
ENDBRANCH  14  15
ENDBRANCH  13  14
ENDBRANCH  11  13
ENDBRANCH   1   9
BRANCH   8  18
HETATM   18  N2  UNL     1      24.528   4.397  52.092  1.00  0.00    -0.350 N 
HETATM   19  H11 UNL     1      24.930   5.162  52.676  1.00  0.00     0.166 HD
BRANCH  18  20
HETATM   20  C12 UNL     1      24.380   4.974  50.789  1.00  0.00     0.071 A 
HETATM   21  C13 UNL     1      23.634   5.741  50.021  1.00  0.00     0.036 A 
HETATM   22  I1  UNL     1      21.820   6.747  50.486  1.00  0.00    -0.042 I 
HETATM   23  C14 UNL     1      24.508   5.608  48.853  1.00  0.00     0.047 A 
HETATM   24  C15 UNL     1      25.255   4.839  49.623  1.00  0.00     0.063 A 
HETATM   25 CL1  UNL     1      26.752   4.053  49.126  1.00  0.00    -0.082 Cl
ENDBRANCH  18  20
ENDBRANCH   8  18
TORSDOF 6
ENDMDL
MODEL 2
REMARK VINA RESULT:      -8.0      2.639      4.149
REMARK  6 active torsions:
REMARK  status: ('A' for Active; 'I' for Inactive)
REMARK       I    between atoms: C1_2  and  N1_3 
REMARK    1  A    between atoms: C1_2  and  C6_9 
REMARK    2  A    between atoms: N1_3  and  O2_4 
REMARK    3  A    between atoms: O2_4  and  C2_5 
REMARK    4  A    between atoms: C2_5  and  C3_6 
REMARK    5  A    between atoms: C11_16  and  N2_17 
REMARK    6  A    between atoms: N2_17  and  C12_18 
ROOT
HETATM    1  C6  UNL     1      25.774   2.655  51.955  1.00  0.00     0.064 A 
HETATM    2  C7  UNL     1      26.487   3.009  50.836  1.00  0.00     0.022 A 
HETATM    3  C8  UNL     1      25.827   3.208  49.659  1.00  0.00     0.046 A 
HETATM    4  C9  UNL     1      24.459   3.056  49.591  1.00  0.00     0.157 A 
HETATM    5  F1  UNL     1      23.828   3.261  48.399  1.00  0.00    -0.203 F 
HETATM    6  C10 UNL     1      23.763   2.702  50.717  1.00  0.00     0.182 A 
HETATM    7  F2  UNL     1      22.419   2.573  50.563  1.00  0.00    -0.200 F 
HETATM    8  C11 UNL     1      24.408   2.496  51.918  1.00  0.00     0.090 A 
ENDROOT
BRANCH   1   9
HETATM    9  C1  UNL     1      26.452   2.438  53.216  1.00  0.00     0.277 C 
HETATM   10  O1  UNL     1      26.044   2.164  54.367  1.00  0.00    -0.265 OA
HETATM   11  N1  UNL     1      27.862   2.527  53.292  1.00  0.00    -0.231 N 
HETATM   12  H1  UNL     1      28.517   2.745  52.496  1.00  0.00     0.197 HD
BRANCH  11  13
HETATM   13  O2  UNL     1      28.766   2.389  54.262  1.00  0.00    -0.277 OA
BRANCH  13  14
HETATM   14  C2  UNL     1      29.014   1.109  54.682  1.00  0.00     0.205 C 
BRANCH  14  15
HETATM   15  C3  UNL     1      29.453   0.285  53.466  1.00  0.00     0.012 A 
HETATM   16  C4  UNL     1      28.592  -0.957  53.218  1.00  0.00     0.007 A 
HETATM   17  C5  UNL     1      29.960  -1.112  53.731  1.00  0.00     0.007 A 
ENDBRANCH  14  15
ENDBRANCH  13  14
ENDBRANCH  11  13
ENDBRANCH   1   9
BRANCH   8  18
HETATM   18  N2  UNL     1      23.584   2.134  53.018  1.00  0.00    -0.350 N 
HETATM   19  H11 UNL     1      23.247   2.659  53.853  1.00  0.00     0.166 HD
BRANCH  18  20
HETATM   20  C12 UNL     1      23.021   0.824  53.160  1.00  0.00     0.071 A 
HETATM   21  C13 UNL     1      21.951   0.077  52.976  1.00  0.00     0.036 A 
HETATM   22  I1  UNL     1      20.063   0.615  52.161  1.00  0.00    -0.042 I 
HETATM   23  C14 UNL     1      22.572  -1.136  53.512  1.00  0.00     0.047 A 
HETATM   24  C15 UNL     1      23.644  -0.387  53.698  1.00  0.00     0.063 A 
HETATM   25 CL1  UNL     1      25.166  -0.947  54.386  1.00  0.00    -0.082 Cl
ENDBRANCH  18  20
ENDBRANCH   8  18
TORSDOF 6
ENDMDL
MODEL 3
REMARK VINA RESULT:      -7.9      2.131      2.415
REMARK  6 active torsions:
REMARK  status: ('A' for Active; 'I' for Inactive)
REMARK       I    between atoms: C1_2  and  N1_3 
REMARK    1  A    between atoms: C1_2  and  C6_9 
REMARK    2  A    between atoms: N1_3  and  O2_4 
REMARK    3  A    between atoms: O2_4  and  C2_5 
REMARK    4  A    between atoms: C2_5  and  C3_6 
REMARK    5  A    between atoms: C11_16  and  N2_17 
REMARK    6  A    between atoms: N2_17  and  C12_18 
ROOT
HETATM    1  C6  UNL     1      24.563   1.011  53.221  1.00  0.00     0.064 A 
HETATM    2  C7  UNL     1      24.558  -0.188  53.891  1.00  0.00     0.022 A 
HETATM    3  C8  UNL     1      23.370  -0.814  54.132  1.00  0.00     0.046 A 
HETATM    4  C9  UNL     1      22.186  -0.251  53.707  1.00  0.00     0.157 A 
HETATM    5  F1  UNL     1      21.014  -0.902  53.963  1.00  0.00    -0.203 F 
HETATM    6  C10 UNL     1      22.209   0.946  53.040  1.00  0.00     0.182 A 
HETATM    7  F2  UNL     1      20.998   1.430  52.657  1.00  0.00    -0.200 F 
HETATM    8  C11 UNL     1      23.397   1.597  52.786  1.00  0.00     0.090 A 
ENDROOT
BRANCH   1   9
HETATM    9  C1  UNL     1      25.811   1.694  52.955  1.00  0.00     0.277 C 
HETATM   10  O1  UNL     1      26.294   2.214  51.924  1.00  0.00    -0.265 OA
HETATM   11  N1  UNL     1      26.761   1.874  53.988  1.00  0.00    -0.231 N 
HETATM   12  H1  UNL     1      26.664   1.552  54.986  1.00  0.00     0.197 HD
BRANCH  11  13
HETATM   13  O2  UNL     1      27.966   2.438  54.076  1.00  0.00    -0.277 OA
BRANCH  13  14
HETATM   14  C2  UNL     1      29.033   1.638  53.766  1.00  0.00     0.205 C 
BRANCH  14  15
HETATM   15  C3  UNL     1      28.739   0.228  54.292  1.00  0.00     0.012 A 
HETATM   16  C4  UNL     1      29.788  -0.813  53.887  1.00  0.00     0.007 A 
HETATM   17  C5  UNL     1      28.457  -0.842  53.264  1.00  0.00     0.007 A 
ENDBRANCH  14  15
ENDBRANCH  13  14
ENDBRANCH  11  13
ENDBRANCH   1   9
BRANCH   8  18
HETATM   18  N2  UNL     1      23.299   2.830  52.086  1.00  0.00    -0.350 N 
HETATM   19  H11 UNL     1      23.197   3.818  52.403  1.00  0.00     0.166 HD
BRANCH  18  20
HETATM   20  C12 UNL     1      23.331   2.909  50.656  1.00  0.00     0.071 A 
HETATM   21  C13 UNL     1      23.863   3.516  49.614  1.00  0.00     0.036 A 
HETATM   22  I1  UNL     1      25.308   5.073  49.562  1.00  0.00    -0.042 I 
HETATM   23  C14 UNL     1      23.109   2.730  48.635  1.00  0.00     0.047 A 
HETATM   24  C15 UNL     1      22.575   2.123  49.678  1.00  0.00     0.063 A 
HETATM   25 CL1  UNL     1      21.377   0.834  49.599  1.00  0.00    -0.082 Cl
ENDBRANCH  18  20
ENDBRANCH   8  18
TORSDOF 6
ENDMDL
MODEL 4
REMARK VINA RESULT:      -7.9      2.683      3.210
REMARK  6 active torsions:
REMARK  status: ('A' for Active; 'I' for Inactive)
REMARK       I    between atoms: C1_2  and  N1_3 
REMARK    1  A    between atoms: C1_2  and  C6_9 
REMARK    2  A    between atoms: N1_3  and  O2_4 
REMARK    3  A    between atoms: O2_4  and  C2_5 
REMARK    4  A    between atoms: C2_5  and  C3_6 
REMARK    5  A    between atoms: C11_16  and  N2_17 
REMARK    6  A    between atoms: N2_17  and  C12_18 
ROOT
HETATM    1  C6  UNL     1      24.084  -0.125  53.583  1.00  0.00     0.064 A 
HETATM    2  C7  UNL     1      23.850  -0.851  54.725  1.00  0.00     0.022 A 
HETATM    3  C8  UNL     1      22.594  -1.326  54.969  1.00  0.00     0.046 A 
HETATM    4  C9  UNL     1      21.570  -1.080  54.080  1.00  0.00     0.157 A 
HETATM    5  F1  UNL     1      20.325  -1.568  54.353  1.00  0.00    -0.203 F 
HETATM    6  C10 UNL     1      21.821  -0.354  52.946  1.00  0.00     0.182 A 
HETATM    7  F2  UNL     1      20.757  -0.158  52.124  1.00  0.00    -0.200 F 
HETATM    8  C11 UNL     1      23.082   0.136  52.677  1.00  0.00     0.090 A 
ENDROOT
BRANCH   1   9
HETATM    9  C1  UNL     1      25.408   0.390  53.303  1.00  0.00     0.277 C 
HETATM   10  O1  UNL     1      26.042   0.575  52.240  1.00  0.00    -0.265 OA
HETATM   11  N1  UNL     1      26.253   0.799  54.360  1.00  0.00    -0.231 N 
HETATM   12  H1  UNL     1      26.023   0.773  55.388  1.00  0.00     0.197 HD
BRANCH  11  13
HETATM   13  O2  UNL     1      27.486   1.300  54.445  1.00  0.00    -0.277 OA
BRANCH  13  14
HETATM   14  C2  UNL     1      28.468   0.430  54.839  1.00  0.00     0.205 C 
BRANCH  14  15
HETATM   15  C3  UNL     1      29.177  -0.089  53.582  1.00  0.00     0.012 A 
HETATM   16  C4  UNL     1      28.850  -1.547  53.247  1.00  0.00     0.007 A 
HETATM   17  C5  UNL     1      30.179  -1.202  53.771  1.00  0.00     0.007 A 
ENDBRANCH  14  15
ENDBRANCH  13  14
ENDBRANCH  11  13
ENDBRANCH   1   9
BRANCH   8  18
HETATM   18  N2  UNL     1      23.224   0.874  51.471  1.00  0.00    -0.350 N 
HETATM   19  H11 UNL     1      23.418   0.592  50.487  1.00  0.00     0.166 HD
BRANCH  18  20
HETATM   20  C12 UNL     1      23.105   2.301  51.423  1.00  0.00     0.071 A 
HETATM   21  C13 UNL     1      23.689   3.428  51.068  1.00  0.00     0.036 A 
HETATM   22  I1  UNL     1      25.586   3.726  50.157  1.00  0.00    -0.042 I 
HETATM   23  C14 UNL     1      22.582   4.272  51.522  1.00  0.00     0.047 A 
HETATM   24  C15 UNL     1      21.997   3.143  51.879  1.00  0.00     0.063 A 
HETATM   25 CL1  UNL     1      20.408   3.017  52.631  1.00  0.00    -0.082 Cl
ENDBRANCH  18  20
ENDBRANCH   8  18
TORSDOF 6
ENDMDL
MODEL 5
REMARK VINA RESULT:      -7.8      2.625      3.136
REMARK  6 active torsions:
REMARK  status: ('A' for Active; 'I' for Inactive)
REMARK       I    between atoms: C1_2  and  N1_3 
REMARK    1  A    between atoms: C1_2  and  C6_9 
REMARK    2  A    between atoms: N1_3  and  O2_4 
REMARK    3  A    between atoms: O2_4  and  C2_5 
REMARK    4  A    between atoms: C2_5  and  C3_6 
REMARK    5  A    between atoms: C11_16  and  N2_17 
REMARK    6  A    between atoms: N2_17  and  C12_18 
ROOT
HETATM    1  C6  UNL     1      23.790  -0.147  53.572  1.00  0.00     0.064 A 
HETATM    2  C7  UNL     1      23.580  -0.938  54.674  1.00  0.00     0.022 A 
HETATM    3  C8  UNL     1      22.344  -1.476  54.884  1.00  0.00     0.046 A 
HETATM    4  C9  UNL     1      21.316  -1.231  54.000  1.00  0.00     0.157 A 
HETATM    5  F1  UNL     1      20.092  -1.783  54.237  1.00  0.00    -0.203 F 
HETATM    6  C10 UNL     1      21.544  -0.439  52.904  1.00  0.00     0.182 A 
HETATM    7  F2  UNL     1      20.477  -0.248  52.084  1.00  0.00    -0.200 F 
HETATM    8  C11 UNL     1      22.784   0.116  52.671  1.00  0.00     0.090 A 
ENDROOT
BRANCH   1   9
HETATM    9  C1  UNL     1      25.093   0.436  53.328  1.00  0.00     0.277 C 
HETATM   10  O1  UNL     1      25.681   0.802  52.285  1.00  0.00    -0.265 OA
HETATM   11  N1  UNL     1      25.974   0.691  54.406  1.00  0.00    -0.231 N 
HETATM   12  H1  UNL     1      25.785   0.497  55.424  1.00  0.00     0.197 HD
BRANCH  11  13
HETATM   13  O2  UNL     1      27.200   1.201  54.523  1.00  0.00    -0.277 OA
BRANCH  13  14
HETATM   14  C2  UNL     1      28.196   0.315  54.840  1.00  0.00     0.205 C 
BRANCH  14  15
HETATM   15  C3  UNL     1      28.892  -0.102  53.539  1.00  0.00     0.012 A 
HETATM   16  C4  UNL     1      28.779  -1.599  53.231  1.00  0.00     0.007 A 
HETATM   17  C5  UNL     1      30.068  -1.041  53.662  1.00  0.00     0.007 A 
ENDBRANCH  14  15
ENDBRANCH  13  14
ENDBRANCH  11  13
ENDBRANCH   1   9
BRANCH   8  18
HETATM   18  N2  UNL     1      22.903   0.918  51.504  1.00  0.00    -0.350 N 
HETATM   19  H11 UNL     1      23.326   0.746  50.567  1.00  0.00     0.166 HD
BRANCH  18  20
HETATM   20  C12 UNL     1      22.391   2.254  51.432  1.00  0.00     0.071 A 
HETATM   21  C13 UNL     1      21.491   3.043  50.882  1.00  0.00     0.036 A 
HETATM   22  I1  UNL     1      19.975   2.569  49.470  1.00  0.00    -0.042 I 
HETATM   23  C14 UNL     1      21.945   4.239  51.594  1.00  0.00     0.047 A 
HETATM   24  C15 UNL     1      22.848   3.449  52.145  1.00  0.00     0.063 A 
HETATM   25 CL1  UNL     1      24.064   3.958  53.314  1.00  0.00    -0.082 Cl
ENDBRANCH  18  20
ENDBRANCH   8  18
TORSDOF 6
ENDMDL
MODEL 6
REMARK VINA RESULT:      -7.6      2.625      4.014
REMARK  6 active torsions:
REMARK  status: ('A' for Active; 'I' for Inactive)
REMARK       I    between atoms: C1_2  and  N1_3 
REMARK    1  A    between atoms: C1_2  and  C6_9 
REMARK    2  A    between atoms: N1_3  and  O2_4 
REMARK    3  A    between atoms: O2_4  and  C2_5 
REMARK    4  A    between atoms: C2_5  and  C3_6 
REMARK    5  A    between atoms: C11_16  and  N2_17 
REMARK    6  A    between atoms: N2_17  and  C12_18 
ROOT
HETATM    1  C6  UNL     1      25.647   2.958  51.089  1.00  0.00     0.064 A 
HETATM    2  C7  UNL     1      26.577   3.488  50.229  1.00  0.00     0.022 A 
HETATM    3  C8  UNL     1      26.177   4.386  49.283  1.00  0.00     0.046 A 
HETATM    4  C9  UNL     1      24.854   4.760  49.191  1.00  0.00     0.157 A 
HETATM    5  F1  UNL     1      24.485   5.660  48.235  1.00  0.00    -0.203 F 
HETATM    6  C10 UNL     1      23.939   4.221  50.058  1.00  0.00     0.182 A 
HETATM    7  F2  UNL     1      22.657   4.643  49.898  1.00  0.00    -0.200 F 
HETATM    8  C11 UNL     1      24.319   3.312  51.022  1.00  0.00     0.090 A 
ENDROOT
BRANCH   1   9
HETATM    9  C1  UNL     1      26.048   2.003  52.101  1.00  0.00     0.277 C 
HETATM   10  O1  UNL     1      25.744   0.806  52.311  1.00  0.00    -0.265 OA
HETATM   11  N1  UNL     1      26.964   2.375  53.112  1.00  0.00    -0.231 N 
HETATM   12  H1  UNL     1      27.416   3.320  53.226  1.00  0.00     0.197 HD
BRANCH  11  13
HETATM   13  O2  UNL     1      27.520   1.761  54.156  1.00  0.00    -0.277 OA
BRANCH  13  14
HETATM   14  C2  UNL     1      28.813   1.339  53.992  1.00  0.00     0.205 C 
BRANCH  14  15
HETATM   15  C3  UNL     1      28.879  -0.148  54.360  1.00  0.00     0.012 A 
HETATM   16  C4  UNL     1      29.988  -0.914  53.632  1.00  0.00     0.007 A 
HETATM   17  C5  UNL     1      28.585  -1.139  53.260  1.00  0.00     0.007 A 
ENDBRANCH  14  15
ENDBRANCH  13  14
ENDBRANCH  11  13
ENDBRANCH   1   9
BRANCH   8  18
HETATM   18  N2  UNL     1      23.285   2.821  51.864  1.00  0.00    -0.350 N 
HETATM   19  H11 UNL     1      22.952   3.101  52.811  1.00  0.00     0.166 HD
BRANCH  18  20
HETATM   20  C12 UNL     1      22.437   1.730  51.488  1.00  0.00     0.071 A 
HETATM   21  C13 UNL     1      21.716   0.716  51.922  1.00  0.00     0.036 A 
HETATM   22  I1  UNL     1      21.390   0.059  53.917  1.00  0.00    -0.042 I 
HETATM   23  C14 UNL     1      21.293   0.303  50.583  1.00  0.00     0.047 A 
HETATM   24  C15 UNL     1      22.016   1.318  50.147  1.00  0.00     0.063 A 
HETATM   25 CL1  UNL     1      22.214   1.772  48.457  1.00  0.00    -0.082 Cl
ENDBRANCH  18  20
ENDBRANCH   8  18
TORSDOF 6
ENDMDL
MODEL 7
REMARK VINA RESULT:      -7.5      3.338      4.657
REMARK  6 active torsions:
REMARK  status: ('A' for Active; 'I' for Inactive)
REMARK       I    between atoms: C1_2  and  N1_3 
REMARK    1  A    between atoms: C1_2  and  C6_9 
REMARK    2  A    between atoms: N1_3  and  O2_4 
REMARK    3  A    between atoms: O2_4  and  C2_5 
REMARK    4  A    between atoms: C2_5  and  C3_6 
REMARK    5  A    between atoms: C11_16  and  N2_17 
REMARK    6  A    between atoms: N2_17  and  C12_18 
ROOT
HETATM    1  C6  UNL     1      23.998   1.880  52.951  1.00  0.00     0.064 A 
HETATM    2  C7  UNL     1      24.547   3.070  53.360  1.00  0.00     0.022 A 
HETATM    3  C8  UNL     1      23.934   4.240  53.019  1.00  0.00     0.046 A 
HETATM    4  C9  UNL     1      22.776   4.230  52.273  1.00  0.00     0.157 A 
HETATM    5  F1  UNL     1      22.187   5.418  51.948  1.00  0.00    -0.203 F 
HETATM    6  C10 UNL     1      22.241   3.033  51.874  1.00  0.00     0.182 A 
HETATM    7  F2  UNL     1      21.098   3.114  51.142  1.00  0.00    -0.200 F 
HETATM    8  C11 UNL     1      22.842   1.838  52.205  1.00  0.00     0.090 A 
ENDROOT
BRANCH   1   9
HETATM    9  C1  UNL     1      24.630   0.625  53.300  1.00  0.00     0.277 C 
HETATM   10  O1  UNL     1      24.405  -0.563  52.973  1.00  0.00    -0.265 OA
HETATM   11  N1  UNL     1      25.737   0.603  54.181  1.00  0.00    -0.231 N 
HETATM   12  H1  UNL     1      26.182   1.440  54.641  1.00  0.00     0.197 HD
BRANCH  11  13
HETATM   13  O2  UNL     1      26.521  -0.347  54.690  1.00  0.00    -0.277 OA
BRANCH  13  14
HETATM   14  C2  UNL     1      27.849  -0.033  54.815  1.00  0.00     0.205 C 
BRANCH  14  15
HETATM   15  C3  UNL     1      28.551  -0.401  53.503  1.00  0.00     0.012 A 
HETATM   16  C4  UNL     1      29.675  -1.428  53.672  1.00  0.00     0.007 A 
HETATM   17  C5  UNL     1      30.009  -0.027  53.377  1.00  0.00     0.007 A 
ENDBRANCH  14  15
ENDBRANCH  13  14
ENDBRANCH  11  13
ENDBRANCH   1   9
BRANCH   8  18
HETATM   18  N2  UNL     1      22.198   0.661  51.738  1.00  0.00    -0.350 N 
HETATM   19  H11 UNL     1      22.427  -0.018  50.981  1.00  0.00     0.166 HD
BRANCH  18  20
HETATM   20  C12 UNL     1      20.982   0.168  52.312  1.00  0.00     0.071 A 
HETATM   21  C13 UNL     1      19.676   0.070  52.170  1.00  0.00     0.036 A 
HETATM   22  I1  UNL     1      18.440   0.789  50.597  1.00  0.00    -0.042 I 
HETATM   23  C14 UNL     1      19.485  -0.668  53.420  1.00  0.00     0.047 A 
HETATM   24  C15 UNL     1      20.793  -0.569  53.564  1.00  0.00     0.063 A 
HETATM   25 CL1  UNL     1      21.717  -1.211  54.920  1.00  0.00    -0.082 Cl
ENDBRANCH  18  20
ENDBRANCH   8  18
TORSDOF 6
ENDMDL
MODEL 8
REMARK VINA RESULT:      -7.3      2.227      2.780
REMARK  6 active torsions:
REMARK  status: ('A' for Active; 'I' for Inactive)
REMARK       I    between atoms: C1_2  and  N1_3 
REMARK    1  A    between atoms: C1_2  and  C6_9 
REMARK    2  A    between atoms: N1_3  and  O2_4 
REMARK    3  A    between atoms: O2_4  and  C2_5 
REMARK    4  A    between atoms: C2_5  and  C3_6 
REMARK    5  A    between atoms: C11_16  and  N2_17 
REMARK    6  A    between atoms: N2_17  and  C12_18 
ROOT
HETATM    1  C6  UNL     1      23.295   0.378  53.353  1.00  0.00     0.064 A 
HETATM    2  C7  UNL     1      22.906  -0.815  53.910  1.00  0.00     0.022 A 
HETATM    3  C8  UNL     1      21.576  -1.094  54.031  1.00  0.00     0.046 A 
HETATM    4  C9  UNL     1      20.631  -0.189  53.598  1.00  0.00     0.157 A 
HETATM    5  F1  UNL     1      19.308  -0.497  53.733  1.00  0.00    -0.203 F 
HETATM    6  C10 UNL     1      21.036   0.997  53.044  1.00  0.00     0.182 A 
HETATM    7  F2  UNL     1      20.041   1.832  52.644  1.00  0.00    -0.200 F 
HETATM    8  C11 UNL     1      22.375   1.301  52.912  1.00  0.00     0.090 A 
ENDROOT
BRANCH   1   9
HETATM    9  C1  UNL     1      24.700   0.697  53.215  1.00  0.00     0.277 C 
HETATM   10  O1  UNL     1      25.386   1.688  53.551  1.00  0.00    -0.265 OA
HETATM   11  N1  UNL     1      25.581  -0.217  52.590  1.00  0.00    -0.231 N 
HETATM   12  H1  UNL     1      25.323  -1.156  52.189  1.00  0.00     0.197 HD
BRANCH  11  13
HETATM   13  O2  UNL     1      26.885  -0.232  52.311  1.00  0.00    -0.277 OA
BRANCH  13  14
HETATM   14  C2  UNL     1      27.635  -1.168  52.973  1.00  0.00     0.205 C 
BRANCH  14  15
HETATM   15  C3  UNL     1      28.894  -0.477  53.508  1.00  0.00     0.012 A 
HETATM   16  C4  UNL     1      28.668   0.291  54.814  1.00  0.00     0.007 A 
HETATM   17  C5  UNL     1      28.877   1.032  53.562  1.00  0.00     0.007 A 
ENDBRANCH  14  15
ENDBRANCH  13  14
ENDBRANCH  11  13
ENDBRANCH   1   9
BRANCH   8  18
HETATM   18  N2  UNL     1      22.677   2.558  52.322  1.00  0.00    -0.350 N 
HETATM   19  H11 UNL     1      22.765   3.520  52.713  1.00  0.00     0.166 HD
BRANCH  18  20
HETATM   20  C12 UNL     1      22.940   2.710  50.922  1.00  0.00     0.071 A 
HETATM   21  C13 UNL     1      22.430   2.647  49.709  1.00  0.00     0.036 A 
HETATM   22  I1  UNL     1      20.449   2.164  49.110  1.00  0.00    -0.042 I 
HETATM   23  C14 UNL     1      23.683   3.016  49.046  1.00  0.00     0.047 A 
HETATM   24  C15 UNL     1      24.194   3.078  50.261  1.00  0.00     0.063 A 
HETATM   25 CL1  UNL     1      25.864   3.494  50.640  1.00  0.00    -0.082 Cl
ENDBRANCH  18  20
ENDBRANCH   8  18
TORSDOF 6
ENDMDL
MODEL 9
REMARK VINA RESULT:      -7.1      3.469      5.830
REMARK  6 active torsions:
REMARK  status: ('A' for Active; 'I' for Inactive)
REMARK       I    between atoms: C1_2  and  N1_3 
REMARK    1  A    between atoms: C1_2  and  C6_9 
REMARK    2  A    between atoms: N1_3  and  O2_4 
REMARK    3  A    between atoms: O2_4  and  C2_5 
REMARK    4  A    between atoms: C2_5  and  C3_6 
REMARK    5  A    between atoms: C11_16  and  N2_17 
REMARK    6  A    between atoms: N2_17  and  C12_18 
ROOT
HETATM    1  C6  UNL     1      25.454   1.985  52.265  1.00  0.00     0.064 A 
HETATM    2  C7  UNL     1      26.647   2.375  52.819  1.00  0.00     0.022 A 
HETATM    3  C8  UNL     1      27.194   1.630  53.823  1.00  0.00     0.046 A 
HETATM    4  C9  UNL     1      26.556   0.495  54.275  1.00  0.00     0.157 A 
HETATM    5  F1  UNL     1      27.128  -0.229  55.280  1.00  0.00    -0.203 F 
HETATM    6  C10 UNL     1      25.365   0.120  53.711  1.00  0.00     0.182 A 
HETATM    7  F2  UNL     1      24.804  -1.010  54.216  1.00  0.00    -0.200 F 
HETATM    8  C11 UNL     1      24.793   0.857  52.696  1.00  0.00     0.090 A 
ENDROOT
BRANCH   1   9
HETATM    9  C1  UNL     1      24.854   2.761  51.200  1.00  0.00     0.277 C 
HETATM   10  O1  UNL     1      24.084   2.463  50.258  1.00  0.00    -0.265 OA
HETATM   11  N1  UNL     1      25.113   4.148  51.093  1.00  0.00    -0.231 N 
HETATM   12  H1  UNL     1      25.726   4.717  51.733  1.00  0.00     0.197 HD
BRANCH  11  13
HETATM   13  O2  UNL     1      24.735   5.118  50.262  1.00  0.00    -0.277 OA
BRANCH  13  14
HETATM   14  C2  UNL     1      25.679   6.066  49.967  1.00  0.00     0.205 C 
BRANCH  14  15
HETATM   15  C3  UNL     1      26.294   5.718  48.607  1.00  0.00     0.012 A 
HETATM   16  C4  UNL     1      27.649   5.010  48.705  1.00  0.00     0.007 A 
HETATM   17  C5  UNL     1      27.589   6.405  48.244  1.00  0.00     0.007 A 
ENDBRANCH  14  15
ENDBRANCH  13  14
ENDBRANCH  11  13
ENDBRANCH   1   9
BRANCH   8  18
HETATM   18  N2  UNL     1      23.559   0.372  52.187  1.00  0.00    -0.350 N 
HETATM   19  H11 UNL     1      23.312  -0.185  51.341  1.00  0.00     0.166 HD
BRANCH  18  20
HETATM   20  C12 UNL     1      22.309   0.605  52.846  1.00  0.00     0.071 A 
HETATM   21  C13 UNL     1      21.292   1.432  52.986  1.00  0.00     0.036 A 
HETATM   22  I1  UNL     1      20.947   3.303  52.040  1.00  0.00    -0.042 I 
HETATM   23  C14 UNL     1      20.597   0.586  53.958  1.00  0.00     0.047 A 
HETATM   24  C15 UNL     1      21.615  -0.242  53.819  1.00  0.00     0.063 A 
HETATM   25 CL1  UNL     1      21.795  -1.780  54.661  1.00  0.00    -0.082 Cl
ENDBRANCH  18  20
ENDBRANCH   8  18
TORSDOF 6
ENDMDL
