MODEL 1
REMARK VINA RESULT:      -8.7      0.000      0.000
REMARK  5 active torsions:
REMARK  status: ('A' for Active; 'I' for Inactive)
REMARK       I    between atoms: N1_4  and  C4_5 
REMARK    1  A    between atoms: C4_5  and  C5_7 
REMARK    2  A    between atoms: C6_8  and  C7_9 
REMARK    3  A    between atoms: C7_9  and  N2_10 
REMARK    4  A    between atoms: C14_18  and  N3_19 
REMARK    5  A    between atoms: N3_19  and  C15_20 
ROOT
HETATM    1  C1  UNL     1      22.352   2.055  51.095  1.00  0.00     0.018 C 
HETATM    2  C2  UNL     1      21.821   0.901  51.877  1.00  0.00     0.052 C 
HETATM    3  C3  UNL     1      21.942   1.094  53.378  1.00  0.00     0.137 C 
HETATM    4  N1  UNL     1      21.593  -0.196  53.962  1.00  0.00    -0.344 N 
HETATM    5  C4  UNL     1      22.467  -1.066  54.688  1.00  0.00     0.243 C 
HETATM    6  O1  UNL     1      22.210  -2.205  55.209  1.00  0.00    -0.268 OA
HETATM    7  C12 UNL     1      20.200  -0.647  53.797  1.00  0.00     0.169 C 
HETATM    8  C13 UNL     1      19.672  -0.120  52.525  1.00  0.00     0.012 A 
HETATM    9  C14 UNL     1      18.336  -0.376  52.214  1.00  0.00     0.043 A 
HETATM   10  C21 UNL     1      17.887   0.135  50.990  1.00  0.00     0.049 A 
HETATM   11  C22 UNL     1      18.627   0.858  50.073  1.00  0.00     0.119 A 
HETATM   12  N4  UNL     1      19.900   1.063  50.442  1.00  0.00    -0.264 NA
HETATM   13  C23 UNL     1      20.384   0.597  51.601  1.00  0.00     0.049 A 
ENDROOT
BRANCH   5  14
HETATM   14  C5  UNL     1      23.854  -0.677  54.909  1.00  0.00     0.072 C 
HETATM   15  C6  UNL     1      24.708  -0.908  53.922  1.00  0.00    -0.002 C 
BRANCH  15  16
HETATM   16  C7  UNL     1      26.155  -0.547  54.047  1.00  0.00     0.144 C 
BRANCH  16  17
HETATM   17  N2  UNL     1      26.565   0.207  52.897  1.00  0.00    -0.405 N 
HETATM   18  C8  UNL     1      27.857   0.773  53.055  1.00  0.00     0.143 C 
HETATM   19  C9  UNL     1      27.933   2.266  52.861  1.00  0.00     0.187 C 
HETATM   20  O2  UNL     1      27.313   2.524  51.615  1.00  0.00    -0.388 OA
HETATM   21  C10 UNL     1      25.960   2.360  51.854  1.00  0.00     0.187 C 
HETATM   22  C11 UNL     1      25.570   0.989  52.268  1.00  0.00     0.143 C 
ENDBRANCH  16  17
ENDBRANCH  15  16
ENDBRANCH   5  14
BRANCH   9  23
HETATM   23  N3  UNL     1      17.424  -1.105  53.018  1.00  0.00    -0.356 N 
HETATM   24  H21 UNL     1      17.259  -0.471  53.856  1.00  0.00     0.166 HD
BRANCH  23  25
HETATM   25  C15 UNL     1      16.765  -2.337  52.959  1.00  0.00     0.033 A 
HETATM   26  C16 UNL     1      17.329  -3.424  53.588  1.00  0.00     0.029 A 
HETATM   27  C17 UNL     1      16.707  -4.644  53.534  1.00  0.00     0.004 A 
HETATM   28  C18 UNL     1      15.519  -4.827  52.863  1.00  0.00     0.019 A 
HETATM   29  C19 UNL     1      14.912  -3.773  52.215  1.00  0.00     0.013 A 
HETATM   30 BR1  UNL     1      13.268  -3.920  51.259  1.00  0.00    -0.051 Br
HETATM   31  C20 UNL     1      15.580  -2.570  52.301  1.00  0.00     0.048 A 
ENDBRANCH  23  25
ENDBRANCH   9  23
TORSDOF 5
ENDMDL
MODEL 2
REMARK VINA RESULT:      -8.6      3.543      6.064
REMARK  5 active torsions:
REMARK  status: ('A' for Active; 'I' for Inactive)
REMARK       I    between atoms: N1_4  and  C4_5 
REMARK    1  A    between atoms: C4_5  and  C5_7 
REMARK    2  A    between atoms: C6_8  and  C7_9 
REMARK    3  A    between atoms: C7_9  and  N2_10 
REMARK    4  A    between atoms: C14_18  and  N3_19 
REMARK    5  A    between atoms: N3_19  and  C15_20 
ROOT
HETATM    1  C1  UNL     1      27.468  -0.609  53.017  1.00  0.00     0.018 C 
HETATM    2  C2  UNL     1      26.358   0.381  52.919  1.00  0.00     0.052 C 
HETATM    3  C3  UNL     1      25.951   0.680  51.487  1.00  0.00     0.137 C 
HETATM    4  N1  UNL     1      25.034   1.811  51.574  1.00  0.00    -0.344 N 
HETATM    5  C4  UNL     1      25.259   3.130  51.067  1.00  0.00     0.243 C 
HETATM    6  O1  UNL     1      24.492   4.150  51.127  1.00  0.00    -0.268 OA
HETATM    7  C12 UNL     1      23.743   1.571  52.243  1.00  0.00     0.169 C 
HETATM    8  C13 UNL     1      23.925   0.543  53.285  1.00  0.00     0.012 A 
HETATM    9  C14 UNL     1      22.798   0.119  53.990  1.00  0.00     0.043 A 
HETATM   10  C21 UNL     1      23.026  -0.848  54.976  1.00  0.00     0.049 A 
HETATM   11  C22 UNL     1      24.240  -1.416  55.314  1.00  0.00     0.119 A 
HETATM   12  N4  UNL     1      25.274  -0.959  54.594  1.00  0.00    -0.264 NA
HETATM   13  C23 UNL     1      25.116  -0.033  53.638  1.00  0.00     0.049 A 
ENDROOT
BRANCH   5  14
HETATM   14  C5  UNL     1      26.505   3.435  50.375  1.00  0.00     0.072 C 
HETATM   15  C6  UNL     1      26.455   4.357  49.425  1.00  0.00    -0.002 C 
BRANCH  15  16
HETATM   16  C7  UNL     1      27.677   4.745  48.654  1.00  0.00     0.144 C 
BRANCH  16  17
HETATM   17  N2  UNL     1      27.577   6.119  48.249  1.00  0.00    -0.405 N 
HETATM   18  C8  UNL     1      28.830   6.660  47.863  1.00  0.00     0.143 C 
HETATM   19  C9  UNL     1      29.243   7.912  48.595  1.00  0.00     0.187 C 
HETATM   20  O2  UNL     1      28.146   8.799  48.487  1.00  0.00    -0.388 OA
HETATM   21  C10 UNL     1      27.194   8.292  49.353  1.00  0.00     0.187 C 
HETATM   22  C11 UNL     1      26.703   6.936  49.001  1.00  0.00     0.143 C 
ENDBRANCH  16  17
ENDBRANCH  15  16
ENDBRANCH   5  14
BRANCH   9  23
HETATM   23  N3  UNL     1      21.475   0.589  53.796  1.00  0.00    -0.356 N 
HETATM   24  H21 UNL     1      21.452   1.511  54.327  1.00  0.00     0.166 HD
BRANCH  23  25
HETATM   25  C15 UNL     1      20.322   0.158  53.133  1.00  0.00     0.033 A 
HETATM   26  C16 UNL     1      19.906   0.838  52.011  1.00  0.00     0.029 A 
HETATM   27  C17 UNL     1      18.773   0.441  51.351  1.00  0.00     0.004 A 
HETATM   28  C18 UNL     1      18.021  -0.632  51.775  1.00  0.00     0.019 A 
HETATM   29  C19 UNL     1      18.391  -1.347  52.893  1.00  0.00     0.013 A 
HETATM   30 BR1  UNL     1      17.422  -2.846  53.562  1.00  0.00    -0.051 Br
HETATM   31  C20 UNL     1      19.538  -0.905  53.518  1.00  0.00     0.048 A 
ENDBRANCH  23  25
ENDBRANCH   9  23
TORSDOF 5
ENDMDL
MODEL 3
REMARK VINA RESULT:      -8.6      3.460      5.822
REMARK  5 active torsions:
REMARK  status: ('A' for Active; 'I' for Inactive)
REMARK       I    between atoms: N1_4  and  C4_5 
REMARK    1  A    between atoms: C4_5  and  C5_7 
REMARK    2  A    between atoms: C6_8  and  C7_9 
REMARK    3  A    between atoms: C7_9  and  N2_10 
REMARK    4  A    between atoms: C14_18  and  N3_19 
REMARK    5  A    between atoms: N3_19  and  C15_20 
ROOT
HETATM    1  C1  UNL     1      21.859  -0.934  54.864  1.00  0.00     0.018 C 
HETATM    2  C2  UNL     1      21.939   0.064  53.759  1.00  0.00     0.052 C 
HETATM    3  C3  UNL     1      23.140  -0.145  52.854  1.00  0.00     0.137 C 
HETATM    4  N1  UNL     1      23.182   1.030  51.990  1.00  0.00    -0.344 N 
HETATM    5  C4  UNL     1      24.200   2.036  51.972  1.00  0.00     0.243 C 
HETATM    6  O1  UNL     1      24.275   3.083  51.243  1.00  0.00    -0.268 OA
HETATM    7  C12 UNL     1      22.072   1.195  51.036  1.00  0.00     0.169 C 
HETATM    8  C13 UNL     1      20.848   0.611  51.616  1.00  0.00     0.012 A 
HETATM    9  C14 UNL     1      19.693   0.602  50.834  1.00  0.00     0.043 A 
HETATM   10  C21 UNL     1      18.556   0.048  51.435  1.00  0.00     0.049 A 
HETATM   11  C22 UNL     1      18.467  -0.483  52.709  1.00  0.00     0.119 A 
HETATM   12  N4  UNL     1      19.617  -0.438  53.398  1.00  0.00    -0.264 NA
HETATM   13  C23 UNL     1      20.736   0.081  52.873  1.00  0.00     0.049 A 
ENDROOT
BRANCH   5  14
HETATM   14  C5  UNL     1      25.339   1.928  52.874  1.00  0.00     0.072 C 
HETATM   15  C6  UNL     1      26.423   1.327  52.405  1.00  0.00    -0.002 C 
BRANCH  15  16
HETATM   16  C7  UNL     1      27.648   1.164  53.250  1.00  0.00     0.144 C 
BRANCH  16  17
HETATM   17  N2  UNL     1      27.751  -0.197  53.692  1.00  0.00    -0.405 N 
HETATM   18  C8  UNL     1      29.082  -0.556  54.027  1.00  0.00     0.143 C 
HETATM   19  C9  UNL     1      29.624  -1.764  53.305  1.00  0.00     0.187 C 
HETATM   20  O2  UNL     1      28.661  -2.785  53.490  1.00  0.00    -0.388 OA
HETATM   21  C10 UNL     1      27.610  -2.435  52.662  1.00  0.00     0.187 C 
HETATM   22  C11 UNL     1      26.959  -1.146  53.005  1.00  0.00     0.143 C 
ENDBRANCH  16  17
ENDBRANCH  15  16
ENDBRANCH   5  14
BRANCH   9  23
HETATM   23  N3  UNL     1      19.583   1.107  49.514  1.00  0.00    -0.356 N 
HETATM   24  H21 UNL     1      19.336   0.251  48.933  1.00  0.00     0.166 HD
BRANCH  23  25
HETATM   25  C15 UNL     1      19.710   2.346  48.878  1.00  0.00     0.033 A 
HETATM   26  C16 UNL     1      19.022   3.426  49.384  1.00  0.00     0.029 A 
HETATM   27  C17 UNL     1      19.122   4.648  48.771  1.00  0.00     0.004 A 
HETATM   28  C18 UNL     1      19.898   4.840  47.650  1.00  0.00     0.019 A 
HETATM   29  C19 UNL     1      20.607   3.792  47.102  1.00  0.00     0.013 A 
HETATM   30 BR1  UNL     1      21.709   3.951  45.555  1.00  0.00    -0.051 Br
HETATM   31  C20 UNL     1      20.470   2.587  47.758  1.00  0.00     0.048 A 
ENDBRANCH  23  25
ENDBRANCH   9  23
TORSDOF 5
ENDMDL
MODEL 4
REMARK VINA RESULT:      -8.6      3.987      6.983
REMARK  5 active torsions:
REMARK  status: ('A' for Active; 'I' for Inactive)
REMARK       I    between atoms: N1_4  and  C4_5 
REMARK    1  A    between atoms: C4_5  and  C5_7 
REMARK    2  A    between atoms: C6_8  and  C7_9 
REMARK    3  A    between atoms: C7_9  and  N2_10 
REMARK    4  A    between atoms: C14_18  and  N3_19 
REMARK    5  A    between atoms: N3_19  and  C15_20 
ROOT
HETATM    1  C1  UNL     1      28.437   2.448  53.527  1.00  0.00     0.018 C 
HETATM    2  C2  UNL     1      27.042   2.346  53.012  1.00  0.00     0.052 C 
HETATM    3  C3  UNL     1      26.976   2.142  51.509  1.00  0.00     0.137 C 
HETATM    4  N1  UNL     1      25.567   2.290  51.160  1.00  0.00    -0.344 N 
HETATM    5  C4  UNL     1      24.994   3.329  50.360  1.00  0.00     0.243 C 
HETATM    6  O1  UNL     1      23.770   3.505  50.036  1.00  0.00    -0.268 OA
HETATM    7  C12 UNL     1      24.642   1.266  51.675  1.00  0.00     0.169 C 
HETATM    8  C13 UNL     1      25.149   0.767  52.967  1.00  0.00     0.012 A 
HETATM    9  C14 UNL     1      24.448  -0.267  53.589  1.00  0.00     0.043 A 
HETATM   10  C21 UNL     1      24.963  -0.697  54.819  1.00  0.00     0.049 A 
HETATM   11  C22 UNL     1      26.081  -0.204  55.467  1.00  0.00     0.119 A 
HETATM   12  N4  UNL     1      26.699   0.786  54.807  1.00  0.00    -0.264 NA
HETATM   13  C23 UNL     1      26.251   1.238  53.627  1.00  0.00     0.049 A 
ENDROOT
BRANCH   5  14
HETATM   14  C5  UNL     1      25.851   4.365  49.799  1.00  0.00     0.072 C 
HETATM   15  C6  UNL     1      25.280   5.246  48.990  1.00  0.00    -0.002 C 
BRANCH  15  16
HETATM   16  C7  UNL     1      26.070   6.351  48.361  1.00  0.00     0.144 C 
BRANCH  16  17
HETATM   17  N2  UNL     1      26.619   7.195  49.383  1.00  0.00    -0.405 N 
HETATM   18  C8  UNL     1      25.626   7.973  50.032  1.00  0.00     0.143 C 
HETATM   19  C9  UNL     1      25.867   9.461  50.024  1.00  0.00     0.187 C 
HETATM   20  O2  UNL     1      27.183   9.639  50.512  1.00  0.00    -0.388 OA
HETATM   21  C10 UNL     1      28.003   9.236  49.473  1.00  0.00     0.187 C 
HETATM   22  C11 UNL     1      27.860   7.808  49.095  1.00  0.00     0.143 C 
ENDBRANCH  16  17
ENDBRANCH  15  16
ENDBRANCH   5  14
BRANCH   9  23
HETATM   23  N3  UNL     1      23.279  -0.893  53.090  1.00  0.00    -0.356 N 
HETATM   24  H21 UNL     1      23.595  -1.884  52.868  1.00  0.00     0.166 HD
BRANCH  23  25
HETATM   25  C15 UNL     1      21.948  -0.535  52.853  1.00  0.00     0.033 A 
HETATM   26  C16 UNL     1      20.997  -0.849  53.798  1.00  0.00     0.029 A 
HETATM   27  C17 UNL     1      19.684  -0.518  53.582  1.00  0.00     0.004 A 
HETATM   28  C18 UNL     1      19.273   0.127  52.437  1.00  0.00     0.019 A 
HETATM   29  C19 UNL     1      20.184   0.464  51.459  1.00  0.00     0.013 A 
HETATM   30 BR1  UNL     1      19.720   1.357  49.840  1.00  0.00    -0.051 Br
HETATM   31  C20 UNL     1      21.489   0.108  51.727  1.00  0.00     0.048 A 
ENDBRANCH  23  25
ENDBRANCH   9  23
TORSDOF 5
ENDMDL
MODEL 5
REMARK VINA RESULT:      -8.3      5.517      8.145
REMARK  5 active torsions:
REMARK  status: ('A' for Active; 'I' for Inactive)
REMARK       I    between atoms: N1_4  and  C4_5 
REMARK    1  A    between atoms: C4_5  and  C5_7 
REMARK    2  A    between atoms: C6_8  and  C7_9 
REMARK    3  A    between atoms: C7_9  and  N2_10 
REMARK    4  A    between atoms: C14_18  and  N3_19 
REMARK    5  A    between atoms: N3_19  and  C15_20 
ROOT
HETATM    1  C1  UNL     1      21.967   7.101  50.794  1.00  0.00     0.018 C 
HETATM    2  C2  UNL     1      22.777   5.892  50.472  1.00  0.00     0.052 C 
HETATM    3  C3  UNL     1      24.185   5.952  51.038  1.00  0.00     0.137 C 
HETATM    4  N1  UNL     1      24.888   4.819  50.445  1.00  0.00    -0.344 N 
HETATM    5  C4  UNL     1      25.984   4.883  49.527  1.00  0.00     0.243 C 
HETATM    6  O1  UNL     1      26.622   3.922  48.977  1.00  0.00    -0.268 OA
HETATM    7  C12 UNL     1      24.430   3.473  50.835  1.00  0.00     0.169 C 
HETATM    8  C13 UNL     1      22.984   3.521  51.119  1.00  0.00     0.012 A 
HETATM    9  C14 UNL     1      22.368   2.356  51.577  1.00  0.00     0.043 A 
HETATM   10  C21 UNL     1      20.992   2.450  51.821  1.00  0.00     0.049 A 
HETATM   11  C22 UNL     1      20.196   3.569  51.654  1.00  0.00     0.119 A 
HETATM   12  N4  UNL     1      20.859   4.647  51.211  1.00  0.00    -0.264 NA
HETATM   13  C23 UNL     1      22.176   4.615  50.962  1.00  0.00     0.049 A 
ENDROOT
BRANCH   5  14
HETATM   14  C5  UNL     1      26.504   6.179  49.112  1.00  0.00     0.072 C 
HETATM   15  C6  UNL     1      27.540   6.175  48.287  1.00  0.00    -0.002 C 
BRANCH  15  16
HETATM   16  C7  UNL     1      28.151   7.452  47.800  1.00  0.00     0.144 C 
BRANCH  16  17
HETATM   17  N2  UNL     1      29.014   7.992  48.812  1.00  0.00    -0.405 N 
HETATM   18  C8  UNL     1      28.651   9.313  49.183  1.00  0.00     0.143 C 
HETATM   19  C9  UNL     1      29.749  10.338  49.064  1.00  0.00     0.187 C 
HETATM   20  O2  UNL     1      30.855   9.800  49.765  1.00  0.00    -0.388 OA
HETATM   21  C10 UNL     1      31.342   8.800  48.943  1.00  0.00     0.187 C 
HETATM   22  C11 UNL     1      30.389   7.688  48.696  1.00  0.00     0.143 C 
ENDBRANCH  16  17
ENDBRANCH  15  16
ENDBRANCH   5  14
BRANCH   9  23
HETATM   23  N3  UNL     1      23.010   1.113  51.799  1.00  0.00    -0.356 N 
HETATM   24  H21 UNL     1      22.957   0.626  50.855  1.00  0.00     0.166 HD
BRANCH  23  25
HETATM   25  C15 UNL     1      23.632   0.458  52.867  1.00  0.00     0.033 A 
HETATM   26  C16 UNL     1      22.875  -0.360  53.677  1.00  0.00     0.029 A 
HETATM   27  C17 UNL     1      23.459  -1.003  54.737  1.00  0.00     0.004 A 
HETATM   28  C18 UNL     1      24.798  -0.862  55.027  1.00  0.00     0.019 A 
HETATM   29  C19 UNL     1      25.601  -0.055  54.249  1.00  0.00     0.013 A 
HETATM   30 BR1  UNL     1      27.463   0.207  54.564  1.00  0.00    -0.051 Br
HETATM   31  C20 UNL     1      24.962   0.567  53.198  1.00  0.00     0.048 A 
ENDBRANCH  23  25
ENDBRANCH   9  23
TORSDOF 5
ENDMDL
MODEL 6
REMARK VINA RESULT:      -8.2      4.671      9.847
REMARK  5 active torsions:
REMARK  status: ('A' for Active; 'I' for Inactive)
REMARK       I    between atoms: N1_4  and  C4_5 
REMARK    1  A    between atoms: C4_5  and  C5_7 
REMARK    2  A    between atoms: C6_8  and  C7_9 
REMARK    3  A    between atoms: C7_9  and  N2_10 
REMARK    4  A    between atoms: C14_18  and  N3_19 
REMARK    5  A    between atoms: N3_19  and  C15_20 
ROOT
HETATM    1  C1  UNL     1      22.407  -1.304  55.003  1.00  0.00     0.018 C 
HETATM    2  C2  UNL     1      22.115  -0.678  53.682  1.00  0.00     0.052 C 
HETATM    3  C3  UNL     1      20.988   0.338  53.742  1.00  0.00     0.137 C 
HETATM    4  N1  UNL     1      20.695   0.672  52.352  1.00  0.00    -0.344 N 
HETATM    5  C4  UNL     1      19.485   0.382  51.645  1.00  0.00     0.243 C 
HETATM    6  O1  UNL     1      19.187   0.646  50.430  1.00  0.00    -0.268 OA
HETATM    7  C12 UNL     1      21.745   1.383  51.602  1.00  0.00     0.169 C 
HETATM    8  C13 UNL     1      23.065   0.974  52.117  1.00  0.00     0.012 A 
HETATM    9  C14 UNL     1      24.196   1.593  51.583  1.00  0.00     0.043 A 
HETATM   10  C21 UNL     1      25.425   1.161  52.097  1.00  0.00     0.049 A 
HETATM   11  C22 UNL     1      25.624   0.195  53.066  1.00  0.00     0.119 A 
HETATM   12  N4  UNL     1      24.491  -0.353  53.529  1.00  0.00    -0.264 NA
HETATM   13  C23 UNL     1      23.287   0.022  53.074  1.00  0.00     0.049 A 
ENDROOT
BRANCH   5  14
HETATM   14  C5  UNL     1      18.395  -0.301  52.328  1.00  0.00     0.072 C 
HETATM   15  C6  UNL     1      17.169  -0.076  51.879  1.00  0.00    -0.002 C 
BRANCH  15  16
HETATM   16  C7  UNL     1      15.978  -0.729  52.510  1.00  0.00     0.144 C 
BRANCH  16  17
HETATM   17  N2  UNL     1      14.816   0.090  52.309  1.00  0.00    -0.405 N 
HETATM   18  C8  UNL     1      15.149   1.418  51.939  1.00  0.00     0.143 C 
HETATM   19  C9  UNL     1      14.568   2.496  52.819  1.00  0.00     0.187 C 
HETATM   20  O2  UNL     1      13.182   2.223  52.895  1.00  0.00    -0.388 OA
HETATM   21  C10 UNL     1      13.083   1.124  53.729  1.00  0.00     0.187 C 
HETATM   22  C11 UNL     1      13.747  -0.100  53.215  1.00  0.00     0.143 C 
ENDBRANCH  16  17
ENDBRANCH  15  16
ENDBRANCH   5  14
BRANCH   9  23
HETATM   23  N3  UNL     1      24.197   2.593  50.579  1.00  0.00    -0.356 N 
HETATM   24  H21 UNL     1      23.799   2.098  49.726  1.00  0.00     0.166 HD
BRANCH  23  25
HETATM   25  C15 UNL     1      24.562   3.939  50.475  1.00  0.00     0.033 A 
HETATM   26  C16 UNL     1      23.853   4.878  51.191  1.00  0.00     0.029 A 
HETATM   27  C17 UNL     1      24.185   6.204  51.096  1.00  0.00     0.004 A 
HETATM   28  C18 UNL     1      25.218   6.641  50.298  1.00  0.00     0.019 A 
HETATM   29  C19 UNL     1      25.960   5.744  49.560  1.00  0.00     0.013 A 
HETATM   30 BR1  UNL     1      27.410   6.245  48.427  1.00  0.00    -0.051 Br
HETATM   31  C20 UNL     1      25.583   4.425  49.692  1.00  0.00     0.048 A 
ENDBRANCH  23  25
ENDBRANCH   9  23
TORSDOF 5
ENDMDL
MODEL 7
REMARK VINA RESULT:      -8.2      8.134     13.887
REMARK  5 active torsions:
REMARK  status: ('A' for Active; 'I' for Inactive)
REMARK       I    between atoms: N1_4  and  C4_5 
REMARK    1  A    between atoms: C4_5  and  C5_7 
REMARK    2  A    between atoms: C6_8  and  C7_9 
REMARK    3  A    between atoms: C7_9  and  N2_10 
REMARK    4  A    between atoms: C14_18  and  N3_19 
REMARK    5  A    between atoms: N3_19  and  C15_20 
ROOT
HETATM    1  C1  UNL     1      27.998   9.616  48.609  1.00  0.00     0.018 C 
HETATM    2  C2  UNL     1      28.359   8.180  48.792  1.00  0.00     0.052 C 
HETATM    3  C3  UNL     1      27.602   7.253  47.857  1.00  0.00     0.137 C 
HETATM    4  N1  UNL     1      27.905   5.904  48.322  1.00  0.00    -0.344 N 
HETATM    5  C4  UNL     1      26.980   4.974  48.894  1.00  0.00     0.243 C 
HETATM    6  O1  UNL     1      27.199   3.790  49.323  1.00  0.00    -0.268 OA
HETATM    7  C12 UNL     1      29.299   5.449  48.184  1.00  0.00     0.169 C 
HETATM    8  C13 UNL     1      30.199   6.612  48.307  1.00  0.00     0.012 A 
HETATM    9  C14 UNL     1      31.567   6.402  48.131  1.00  0.00     0.043 A 
HETATM   10  C21 UNL     1      32.379   7.535  48.270  1.00  0.00     0.049 A 
HETATM   11  C22 UNL     1      31.963   8.821  48.559  1.00  0.00     0.119 A 
HETATM   12  N4  UNL     1      30.636   8.943  48.713  1.00  0.00    -0.264 NA
HETATM   13  C23 UNL     1      29.811   7.893  48.592  1.00  0.00     0.049 A 
ENDROOT
BRANCH   5  14
HETATM   14  C5  UNL     1      25.579   5.347  49.044  1.00  0.00     0.072 C 
HETATM   15  C6  UNL     1      25.066   5.279  50.263  1.00  0.00    -0.002 C 
BRANCH  15  16
HETATM   16  C7  UNL     1      23.637   5.639  50.526  1.00  0.00     0.144 C 
BRANCH  16  17
HETATM   17  N2  UNL     1      22.984   4.558  51.209  1.00  0.00    -0.405 N 
HETATM   18  C8  UNL     1      23.425   4.423  52.550  1.00  0.00     0.143 C 
HETATM   19  C9  UNL     1      23.951   3.059  52.919  1.00  0.00     0.187 C 
HETATM   20  O2  UNL     1      22.953   2.140  52.519  1.00  0.00    -0.388 OA
HETATM   21  C10 UNL     1      23.048   2.093  51.140  1.00  0.00     0.187 C 
HETATM   22  C11 UNL     1      22.763   3.381  50.459  1.00  0.00     0.143 C 
ENDBRANCH  16  17
ENDBRANCH  15  16
ENDBRANCH   5  14
BRANCH   9  23
HETATM   23  N3  UNL     1      32.183   5.159  47.842  1.00  0.00    -0.356 N 
HETATM   24  H21 UNL     1      31.727   4.483  48.524  1.00  0.00     0.166 HD
BRANCH  23  25
HETATM   25  C15 UNL     1      33.151   4.679  46.954  1.00  0.00     0.033 A 
HETATM   26  C16 UNL     1      34.166   3.886  47.442  1.00  0.00     0.029 A 
HETATM   27  C17 UNL     1      35.132   3.413  46.593  1.00  0.00     0.004 A 
HETATM   28  C18 UNL     1      35.127   3.705  45.248  1.00  0.00     0.019 A 
HETATM   29  C19 UNL     1      34.135   4.494  44.707  1.00  0.00     0.013 A 
HETATM   30 BR1  UNL     1      34.035   4.956  42.860  1.00  0.00    -0.051 Br
HETATM   31  C20 UNL     1      33.190   4.943  45.604  1.00  0.00     0.048 A 
ENDBRANCH  23  25
ENDBRANCH   9  23
TORSDOF 5
ENDMDL
MODEL 8
REMARK VINA RESULT:      -8.1      2.834      4.878
REMARK  5 active torsions:
REMARK  status: ('A' for Active; 'I' for Inactive)
REMARK       I    between atoms: N1_4  and  C4_5 
REMARK    1  A    between atoms: C4_5  and  C5_7 
REMARK    2  A    between atoms: C6_8  and  C7_9 
REMARK    3  A    between atoms: C7_9  and  N2_10 
REMARK    4  A    between atoms: C14_18  and  N3_19 
REMARK    5  A    between atoms: N3_19  and  C15_20 
ROOT
HETATM    1  C1  UNL     1      22.265  -1.512  54.969  1.00  0.00     0.018 C 
HETATM    2  C2  UNL     1      22.063  -0.318  54.099  1.00  0.00     0.052 C 
HETATM    3  C3  UNL     1      23.161  -0.144  53.064  1.00  0.00     0.137 C 
HETATM    4  N1  UNL     1      22.926   1.167  52.469  1.00  0.00    -0.344 N 
HETATM    5  C4  UNL     1      23.778   2.312  52.572  1.00  0.00     0.243 C 
HETATM    6  O1  UNL     1      23.611   3.479  52.078  1.00  0.00    -0.268 OA
HETATM    7  C12 UNL     1      21.694   1.329  51.677  1.00  0.00     0.169 C 
HETATM    8  C13 UNL     1      20.649   0.448  52.230  1.00  0.00     0.012 A 
HETATM    9  C14 UNL     1      19.419   0.399  51.572  1.00  0.00     0.043 A 
HETATM   10  C21 UNL     1      18.456  -0.443  52.143  1.00  0.00     0.049 A 
HETATM   11  C22 UNL     1      18.603  -1.219  53.278  1.00  0.00     0.119 A 
HETATM   12  N4  UNL     1      19.811  -1.119  53.853  1.00  0.00    -0.264 NA
HETATM   13  C23 UNL     1      20.770  -0.329  53.350  1.00  0.00     0.049 A 
ENDROOT
BRANCH   5  14
HETATM   14  C5  UNL     1      25.024   2.222  53.322  1.00  0.00     0.072 C 
HETATM   15  C6  UNL     1      26.106   1.857  52.651  1.00  0.00    -0.002 C 
BRANCH  15  16
HETATM   16  C7  UNL     1      27.435   1.732  53.327  1.00  0.00     0.144 C 
BRANCH  16  17
HETATM   17  N2  UNL     1      27.625   0.382  53.774  1.00  0.00    -0.405 N 
HETATM   18  C8  UNL     1      28.965   0.126  54.163  1.00  0.00     0.143 C 
HETATM   19  C9  UNL     1      29.627  -1.035  53.465  1.00  0.00     0.187 C 
HETATM   20  O2  UNL     1      28.740  -2.128  53.611  1.00  0.00    -0.388 OA
HETATM   21  C10 UNL     1      27.700  -1.857  52.740  1.00  0.00     0.187 C 
HETATM   22  C11 UNL     1      26.938  -0.623  53.055  1.00  0.00     0.143 C 
ENDBRANCH  16  17
ENDBRANCH  15  16
ENDBRANCH   5  14
BRANCH   9  23
HETATM   23  N3  UNL     1      19.075   1.127  50.405  1.00  0.00    -0.356 N 
HETATM   24  H21 UNL     1      19.701   0.712  49.652  1.00  0.00     0.166 HD
BRANCH  23  25
HETATM   25  C15 UNL     1      18.190   2.154  50.064  1.00  0.00     0.033 A 
HETATM   26  C16 UNL     1      18.431   2.888  48.923  1.00  0.00     0.029 A 
HETATM   27  C17 UNL     1      17.584   3.907  48.574  1.00  0.00     0.004 A 
HETATM   28  C18 UNL     1      16.483   4.232  49.333  1.00  0.00     0.019 A 
HETATM   29  C19 UNL     1      16.195   3.530  50.485  1.00  0.00     0.013 A 
HETATM   30 BR1  UNL     1      14.696   3.898  51.604  1.00  0.00    -0.051 Br
HETATM   31  C20 UNL     1      17.078   2.517  50.788  1.00  0.00     0.048 A 
ENDBRANCH  23  25
ENDBRANCH   9  23
TORSDOF 5
ENDMDL
MODEL 9
REMARK VINA RESULT:      -8.0      6.397      9.763
REMARK  5 active torsions:
REMARK  status: ('A' for Active; 'I' for Inactive)
REMARK       I    between atoms: N1_4  and  C4_5 
REMARK    1  A    between atoms: C4_5  and  C5_7 
REMARK    2  A    between atoms: C6_8  and  C7_9 
REMARK    3  A    between atoms: C7_9  and  N2_10 
REMARK    4  A    between atoms: C14_18  and  N3_19 
REMARK    5  A    between atoms: N3_19  and  C15_20 
ROOT
HETATM    1  C1  UNL     1      21.620   1.838  48.205  1.00  0.00     0.018 C 
HETATM    2  C2  UNL     1      22.216   2.868  49.103  1.00  0.00     0.052 C 
HETATM    3  C3  UNL     1      23.487   2.397  49.787  1.00  0.00     0.137 C 
HETATM    4  N1  UNL     1      23.796   3.423  50.776  1.00  0.00    -0.344 N 
HETATM    5  C4  UNL     1      23.781   3.266  52.199  1.00  0.00     0.243 C 
HETATM    6  O1  UNL     1      24.035   4.135  53.101  1.00  0.00    -0.268 OA
HETATM    7  C12 UNL     1      24.169   4.753  50.262  1.00  0.00     0.169 C 
HETATM    8  C13 UNL     1      23.470   4.988  48.985  1.00  0.00     0.012 A 
HETATM    9  C14 UNL     1      23.745   6.169  48.296  1.00  0.00     0.043 A 
HETATM   10  C21 UNL     1      23.047   6.350  47.095  1.00  0.00     0.049 A 
HETATM   11  C22 UNL     1      22.125   5.485  46.535  1.00  0.00     0.119 A 
HETATM   12  N4  UNL     1      21.914   4.374  47.255  1.00  0.00    -0.264 NA
HETATM   13  C23 UNL     1      22.554   4.148  48.411  1.00  0.00     0.049 A 
ENDROOT
BRANCH   5  14
HETATM   14  C5  UNL     1      23.442   1.974  52.779  1.00  0.00     0.072 C 
HETATM   15  C6  UNL     1      24.447   1.155  53.055  1.00  0.00    -0.002 C 
BRANCH  15  16
HETATM   16  C7  UNL     1      24.208  -0.196  53.652  1.00  0.00     0.144 C 
BRANCH  16  17
HETATM   17  N2  UNL     1      25.464  -0.809  53.979  1.00  0.00    -0.405 N 
HETATM   18  C8  UNL     1      26.106  -0.173  55.072  1.00  0.00     0.143 C 
HETATM   19  C9  UNL     1      27.510   0.306  54.803  1.00  0.00     0.187 C 
HETATM   20  O2  UNL     1      28.200  -0.806  54.265  1.00  0.00    -0.388 OA
HETATM   21  C10 UNL     1      27.715  -0.933  52.976  1.00  0.00     0.187 C 
HETATM   22  C11 UNL     1      26.263  -1.229  52.891  1.00  0.00     0.143 C 
ENDBRANCH  16  17
ENDBRANCH  15  16
ENDBRANCH   5  14
BRANCH   9  23
HETATM   23  N3  UNL     1      24.647   7.180  48.712  1.00  0.00    -0.356 N 
HETATM   24  H21 UNL     1      24.034   7.865  49.245  1.00  0.00     0.166 HD
BRANCH  23  25
HETATM   25  C15 UNL     1      26.015   7.444  48.593  1.00  0.00     0.033 A 
HETATM   26  C16 UNL     1      26.877   6.396  48.352  1.00  0.00     0.029 A 
HETATM   27  C17 UNL     1      28.223   6.629  48.243  1.00  0.00     0.004 A 
HETATM   28  C18 UNL     1      28.756   7.892  48.365  1.00  0.00     0.019 A 
HETATM   29  C19 UNL     1      27.940   8.976  48.606  1.00  0.00     0.013 A 
HETATM   30 BR1  UNL     1      28.576  10.764  48.791  1.00  0.00    -0.051 Br
HETATM   31  C20 UNL     1      26.596   8.686  48.708  1.00  0.00     0.048 A 
ENDBRANCH  23  25
ENDBRANCH   9  23
TORSDOF 5
ENDMDL
