MODEL 1
REMARK VINA RESULT:     -10.2      0.000      0.000
REMARK  2 active torsions:
REMARK  status: ('A' for Active; 'I' for Inactive)
REMARK    1  A    between atoms: C9_9  and  N1_10 
REMARK    2  A    between atoms: N1_10  and  C10_11 
ROOT
HETATM    1  C10 UNL     1      24.515   1.800  51.856  1.00  0.00     0.025 A 
HETATM    2  C11 UNL     1      24.469   2.619  50.708  1.00  0.00     0.044 A 
HETATM    3  C12 UNL     1      23.447   2.863  49.835  1.00  0.00     0.121 A 
HETATM    4  N2  UNL     1      22.340   2.200  50.160  1.00  0.00    -0.236 NA
HETATM    5  C13 UNL     1      22.236   1.390  51.213  1.00  0.00     0.182 A 
HETATM    6  O1  UNL     1      21.160   0.722  51.555  1.00  0.00    -0.290 OA
HETATM    7  C14 UNL     1      21.401   0.015  52.639  1.00  0.00     0.089 A 
HETATM    8  C15 UNL     1      20.650  -0.848  53.407  1.00  0.00     0.038 A 
HETATM    9  C16 UNL     1      21.206  -1.470  54.532  1.00  0.00     0.003 A 
HETATM   10  C17 UNL     1      22.542  -1.196  54.856  1.00  0.00     0.001 A 
HETATM   11  C18 UNL     1      23.220  -0.324  54.039  1.00  0.00     0.015 A 
HETATM   12  C19 UNL     1      22.710   0.303  52.935  1.00  0.00     0.014 A 
HETATM   13  C20 UNL     1      23.301   1.183  52.058  1.00  0.00     0.051 A 
ENDROOT
BRANCH   1  14
HETATM   14  N1  UNL     1      25.551   1.609  52.778  1.00  0.00    -0.283 NA
HETATM   15  H8  UNL     1      26.103   1.102  52.079  1.00  0.00     0.128 HD
BRANCH  14  16
HETATM   16  C9  UNL     1      26.722   1.270  53.435  1.00  0.00     0.097 C 
HETATM   17  C8  UNL     1      27.380  -0.042  53.153  1.00  0.00    -0.030 A 
HETATM   18  C3  UNL     1      28.642  -0.376  53.561  1.00  0.00    -0.029 A 
HETATM   19  C7  UNL     1      26.654  -1.061  52.593  1.00  0.00     0.009 A 
HETATM   20  C2  UNL     1      29.635   0.605  53.984  1.00  0.00     0.008 C 
HETATM   21  C4  UNL     1      29.143  -1.679  53.420  1.00  0.00     0.012 A 
HETATM   22  C1  UNL     1      29.090   1.826  53.866  1.00  0.00    -0.024 C 
HETATM   23  C21 UNL     1      27.802   2.326  53.417  1.00  0.00     0.052 C 
HETATM   24  C5  UNL     1      28.392  -2.694  52.857  1.00  0.00     0.001 A 
HETATM   25  C6  UNL     1      27.102  -2.354  52.430  1.00  0.00     0.001 A 
ENDBRANCH  14  16
ENDBRANCH   1  14
TORSDOF 2
ENDMDL
MODEL 2
REMARK VINA RESULT:      -9.6      2.588      6.162
REMARK  2 active torsions:
REMARK  status: ('A' for Active; 'I' for Inactive)
REMARK    1  A    between atoms: C9_9  and  N1_10 
REMARK    2  A    between atoms: N1_10  and  C10_11 
ROOT
HETATM    1  C10 UNL     1      23.955   1.371  52.867  1.00  0.00     0.025 A 
HETATM    2  C11 UNL     1      22.819   0.551  53.040  1.00  0.00     0.044 A 
HETATM    3  C12 UNL     1      22.674  -0.628  53.714  1.00  0.00     0.121 A 
HETATM    4  N2  UNL     1      23.810  -1.026  54.280  1.00  0.00    -0.236 NA
HETATM    5  C13 UNL     1      24.959  -0.357  54.201  1.00  0.00     0.182 A 
HETATM    6  O1  UNL     1      26.094  -0.727  54.745  1.00  0.00    -0.290 OA
HETATM    7  C14 UNL     1      27.030   0.156  54.468  1.00  0.00     0.089 A 
HETATM    8  C15 UNL     1      28.369   0.262  54.774  1.00  0.00     0.038 A 
HETATM    9  C16 UNL     1      29.122   1.350  54.315  1.00  0.00     0.003 A 
HETATM   10  C17 UNL     1      28.483   2.325  53.537  1.00  0.00     0.001 A 
HETATM   11  C18 UNL     1      27.146   2.146  53.279  1.00  0.00     0.015 A 
HETATM   12  C19 UNL     1      26.378   1.099  53.711  1.00  0.00     0.014 A 
HETATM   13  C20 UNL     1      25.045   0.827  53.507  1.00  0.00     0.051 A 
ENDROOT
BRANCH   1  14
HETATM   14  N1  UNL     1      24.074   2.610  52.227  1.00  0.00    -0.283 NA
HETATM   15  H8  UNL     1      24.100   3.095  53.130  1.00  0.00     0.128 HD
BRANCH  14  16
HETATM   16  C9  UNL     1      24.204   3.951  51.903  1.00  0.00     0.097 C 
HETATM   17  C8  UNL     1      25.048   4.354  50.737  1.00  0.00    -0.030 A 
HETATM   18  C3  UNL     1      25.060   5.609  50.191  1.00  0.00    -0.029 A 
HETATM   19  C7  UNL     1      25.999   3.494  50.254  1.00  0.00     0.009 A 
HETATM   20  C2  UNL     1      24.008   6.592  50.416  1.00  0.00     0.008 C 
HETATM   21  C4  UNL     1      25.995   5.979  49.213  1.00  0.00     0.012 A 
HETATM   22  C1  UNL     1      23.072   6.029  51.197  1.00  0.00    -0.024 C 
HETATM   23  C21 UNL     1      22.908   4.721  51.807  1.00  0.00     0.052 C 
HETATM   24  C5  UNL     1      26.950   5.096  48.743  1.00  0.00     0.001 A 
HETATM   25  C6  UNL     1      26.936   3.809  49.293  1.00  0.00     0.001 A 
ENDBRANCH  14  16
ENDBRANCH   1  14
TORSDOF 2
ENDMDL
MODEL 3
REMARK VINA RESULT:      -9.6      2.449      5.825
REMARK  2 active torsions:
REMARK  status: ('A' for Active; 'I' for Inactive)
REMARK    1  A    between atoms: C9_9  and  N1_10 
REMARK    2  A    between atoms: N1_10  and  C10_11 
ROOT
HETATM    1  C10 UNL     1      27.017   1.762  52.767  1.00  0.00     0.025 A 
HETATM    2  C11 UNL     1      28.349   1.977  53.180  1.00  0.00     0.044 A 
HETATM    3  C12 UNL     1      29.045   1.449  54.230  1.00  0.00     0.121 A 
HETATM    4  N2  UNL     1      28.308   0.604  54.947  1.00  0.00    -0.236 NA
HETATM    5  C13 UNL     1      27.038   0.305  54.678  1.00  0.00     0.182 A 
HETATM    6  O1  UNL     1      26.288  -0.519  55.368  1.00  0.00    -0.290 OA
HETATM    7  C14 UNL     1      25.085  -0.580  54.835  1.00  0.00     0.089 A 
HETATM    8  C15 UNL     1      23.932  -1.266  55.147  1.00  0.00     0.038 A 
HETATM    9  C16 UNL     1      22.778  -1.113  54.369  1.00  0.00     0.003 A 
HETATM   10  C17 UNL     1      22.824  -0.247  53.268  1.00  0.00     0.001 A 
HETATM   11  C18 UNL     1      24.013   0.398  53.025  1.00  0.00     0.015 A 
HETATM   12  C19 UNL     1      25.159   0.273  53.761  1.00  0.00     0.014 A 
HETATM   13  C20 UNL     1      26.388   0.870  53.606  1.00  0.00     0.051 A 
ENDROOT
BRANCH   1  14
HETATM   14  N1  UNL     1      26.335   2.262  51.651  1.00  0.00    -0.283 NA
HETATM   15  H8  UNL     1      26.660   3.212  51.856  1.00  0.00     0.128 HD
BRANCH  14  16
HETATM   16  C9  UNL     1      25.793   3.043  50.644  1.00  0.00     0.097 C 
HETATM   17  C8  UNL     1      24.673   3.983  50.955  1.00  0.00    -0.030 A 
HETATM   18  C3  UNL     1      24.223   4.956  50.105  1.00  0.00    -0.029 A 
HETATM   19  C7  UNL     1      23.916   3.792  52.081  1.00  0.00     0.009 A 
HETATM   20  C2  UNL     1      24.995   5.449  48.970  1.00  0.00     0.008 C 
HETATM   21  C4  UNL     1      23.060   5.693  50.374  1.00  0.00     0.012 A 
HETATM   22  C1  UNL     1      26.175   4.807  48.958  1.00  0.00    -0.024 C 
HETATM   23  C21 UNL     1      26.793   3.800  49.803  1.00  0.00     0.052 C 
HETATM   24  C5  UNL     1      22.309   5.481  51.515  1.00  0.00     0.001 A 
HETATM   25  C6  UNL     1      22.769   4.491  52.392  1.00  0.00     0.001 A 
ENDBRANCH  14  16
ENDBRANCH   1  14
TORSDOF 2
ENDMDL
MODEL 4
REMARK VINA RESULT:      -9.4      2.726      6.344
REMARK  2 active torsions:
REMARK  status: ('A' for Active; 'I' for Inactive)
REMARK    1  A    between atoms: C9_9  and  N1_10 
REMARK    2  A    between atoms: N1_10  and  C10_11 
ROOT
HETATM    1  C10 UNL     1      24.327   1.374  52.156  1.00  0.00     0.025 A 
HETATM    2  C11 UNL     1      23.087   0.707  52.238  1.00  0.00     0.044 A 
HETATM    3  C12 UNL     1      22.689  -0.326  53.039  1.00  0.00     0.121 A 
HETATM    4  N2  UNL     1      23.660  -0.733  53.852  1.00  0.00    -0.236 NA
HETATM    5  C13 UNL     1      24.881  -0.201  53.885  1.00  0.00     0.182 A 
HETATM    6  O1  UNL     1      25.857  -0.584  54.672  1.00  0.00    -0.290 OA
HETATM    7  C14 UNL     1      26.928   0.147  54.442  1.00  0.00     0.089 A 
HETATM    8  C15 UNL     1      28.202   0.171  54.965  1.00  0.00     0.038 A 
HETATM    9  C16 UNL     1      29.148   1.091  54.497  1.00  0.00     0.003 A 
HETATM   10  C17 UNL     1      28.770   1.983  53.484  1.00  0.00     0.001 A 
HETATM   11  C18 UNL     1      27.480   1.893  53.017  1.00  0.00     0.015 A 
HETATM   12  C19 UNL     1      26.529   1.011  53.452  1.00  0.00     0.014 A 
HETATM   13  C20 UNL     1      25.224   0.839  53.053  1.00  0.00     0.051 A 
ENDROOT
BRANCH   1  14
HETATM   14  N1  UNL     1      24.701   2.474  51.374  1.00  0.00    -0.283 NA
HETATM   15  H8  UNL     1      24.899   1.862  50.576  1.00  0.00     0.128 HD
BRANCH  14  16
HETATM   16  C9  UNL     1      25.116   3.332  50.369  1.00  0.00     0.097 C 
HETATM   17  C8  UNL     1      24.887   4.802  50.507  1.00  0.00    -0.030 A 
HETATM   18  C3  UNL     1      25.454   5.750  49.699  1.00  0.00    -0.029 A 
HETATM   19  C7  UNL     1      23.937   5.266  51.379  1.00  0.00     0.009 A 
HETATM   20  C2  UNL     1      26.620   5.497  48.861  1.00  0.00     0.008 C 
HETATM   21  C4  UNL     1      25.071   7.098  49.762  1.00  0.00     0.012 A 
HETATM   22  C1  UNL     1      27.010   4.228  49.062  1.00  0.00    -0.024 C 
HETATM   23  C21 UNL     1      26.539   3.140  49.902  1.00  0.00     0.052 C 
HETATM   24  C5  UNL     1      24.106   7.543  50.646  1.00  0.00     0.001 A 
HETATM   25  C6  UNL     1      23.528   6.578  51.480  1.00  0.00     0.001 A 
ENDBRANCH  14  16
ENDBRANCH   1  14
TORSDOF 2
ENDMDL
MODEL 5
REMARK VINA RESULT:      -9.2      2.173      5.868
REMARK  2 active torsions:
REMARK  status: ('A' for Active; 'I' for Inactive)
REMARK    1  A    between atoms: C9_9  and  N1_10 
REMARK    2  A    between atoms: N1_10  and  C10_11 
ROOT
HETATM    1  C10 UNL     1      25.767   1.127  52.257  1.00  0.00     0.025 A 
HETATM    2  C11 UNL     1      27.170   0.984  52.324  1.00  0.00     0.044 A 
HETATM    3  C12 UNL     1      27.942   0.204  53.138  1.00  0.00     0.121 A 
HETATM    4  N2  UNL     1      27.210  -0.517  53.983  1.00  0.00    -0.236 NA
HETATM    5  C13 UNL     1      25.880  -0.485  54.036  1.00  0.00     0.182 A 
HETATM    6  O1  UNL     1      25.134  -1.180  54.861  1.00  0.00    -0.290 OA
HETATM    7  C14 UNL     1      23.863  -0.907  54.652  1.00  0.00     0.089 A 
HETATM    8  C15 UNL     1      22.684  -1.336  55.220  1.00  0.00     0.038 A 
HETATM    9  C16 UNL     1      21.454  -0.842  54.771  1.00  0.00     0.003 A 
HETATM   10  C17 UNL     1      21.450   0.100  53.732  1.00  0.00     0.001 A 
HETATM   11  C18 UNL     1      22.669   0.474  53.220  1.00  0.00     0.015 A 
HETATM   12  C19 UNL     1      23.889   0.012  53.632  1.00  0.00     0.014 A 
HETATM   13  C20 UNL     1      25.155   0.322  53.191  1.00  0.00     0.051 A 
ENDROOT
BRANCH   1  14
HETATM   14  N1  UNL     1      24.987   1.883  51.375  1.00  0.00    -0.283 NA
HETATM   15  H8  UNL     1      24.355   2.151  52.136  1.00  0.00     0.128 HD
BRANCH  14  16
HETATM   16  C9  UNL     1      24.041   2.698  50.775  1.00  0.00     0.097 C 
HETATM   17  C8  UNL     1      24.482   3.821  49.892  1.00  0.00    -0.030 A 
HETATM   18  C3  UNL     1      23.648   4.533  49.075  1.00  0.00    -0.029 A 
HETATM   19  C7  UNL     1      25.760   4.307  49.994  1.00  0.00     0.009 A 
HETATM   20  C2  UNL     1      22.326   4.066  48.674  1.00  0.00     0.008 C 
HETATM   21  C4  UNL     1      24.080   5.685  48.401  1.00  0.00     0.012 A 
HETATM   22  C1  UNL     1      22.129   2.854  49.219  1.00  0.00    -0.024 C 
HETATM   23  C21 UNL     1      22.926   1.975  50.058  1.00  0.00     0.052 C 
HETATM   24  C5  UNL     1      25.373   6.160  48.522  1.00  0.00     0.001 A 
HETATM   25  C6  UNL     1      26.233   5.430  49.351  1.00  0.00     0.001 A 
ENDBRANCH  14  16
ENDBRANCH   1  14
TORSDOF 2
ENDMDL
MODEL 6
REMARK VINA RESULT:      -9.2      0.875      2.307
REMARK  2 active torsions:
REMARK  status: ('A' for Active; 'I' for Inactive)
REMARK    1  A    between atoms: C9_9  and  N1_10 
REMARK    2  A    between atoms: N1_10  and  C10_11 
ROOT
HETATM    1  C10 UNL     1      24.260   1.576  51.637  1.00  0.00     0.025 A 
HETATM    2  C11 UNL     1      24.323   2.797  50.933  1.00  0.00     0.044 A 
HETATM    3  C12 UNL     1      23.349   3.717  50.667  1.00  0.00     0.121 A 
HETATM    4  N2  UNL     1      22.171   3.361  51.173  1.00  0.00    -0.236 NA
HETATM    5  C13 UNL     1      21.960   2.238  51.858  1.00  0.00     0.182 A 
HETATM    6  O1  UNL     1      20.811   1.859  52.364  1.00  0.00    -0.290 OA
HETATM    7  C14 UNL     1      20.951   0.699  52.971  1.00  0.00     0.089 A 
HETATM    8  C15 UNL     1      20.092  -0.137  53.651  1.00  0.00     0.038 A 
HETATM    9  C16 UNL     1      20.553  -1.342  54.196  1.00  0.00     0.003 A 
HETATM   10  C17 UNL     1      21.904  -1.677  54.032  1.00  0.00     0.001 A 
HETATM   11  C18 UNL     1      22.692  -0.788  53.342  1.00  0.00     0.015 A 
HETATM   12  C19 UNL     1      22.279   0.397  52.798  1.00  0.00     0.014 A 
HETATM   13  C20 UNL     1      22.981   1.347  52.093  1.00  0.00     0.051 A 
ENDROOT
BRANCH   1  14
HETATM   14  N1  UNL     1      25.281   0.673  51.955  1.00  0.00    -0.283 NA
HETATM   15  H8  UNL     1      25.942   1.183  51.362  1.00  0.00     0.128 HD
BRANCH  14  16
HETATM   16  C9  UNL     1      26.472  -0.024  52.076  1.00  0.00     0.097 C 
HETATM   17  C8  UNL     1      27.571   0.526  52.927  1.00  0.00    -0.030 A 
HETATM   18  C3  UNL     1      28.683  -0.177  53.301  1.00  0.00    -0.029 A 
HETATM   19  C7  UNL     1      27.587   1.860  53.242  1.00  0.00     0.009 A 
HETATM   20  C2  UNL     1      28.769  -1.632  53.244  1.00  0.00     0.008 C 
HETATM   21  C4  UNL     1      29.763   0.439  53.952  1.00  0.00     0.012 A 
HETATM   22  C1  UNL     1      27.590  -2.102  52.805  1.00  0.00    -0.024 C 
HETATM   23  C21 UNL     1      26.332  -1.489  52.416  1.00  0.00     0.052 C 
HETATM   24  C5  UNL     1      29.760   1.787  54.255  1.00  0.00     0.001 A 
HETATM   25  C6  UNL     1      28.620   2.510  53.882  1.00  0.00     0.001 A 
ENDBRANCH  14  16
ENDBRANCH   1  14
TORSDOF 2
ENDMDL
MODEL 7
REMARK VINA RESULT:      -9.2      2.116      6.407
REMARK  2 active torsions:
REMARK  status: ('A' for Active; 'I' for Inactive)
REMARK    1  A    between atoms: C9_9  and  N1_10 
REMARK    2  A    between atoms: N1_10  and  C10_11 
ROOT
HETATM    1  C10 UNL     1      22.466  -0.002  52.854  1.00  0.00     0.025 A 
HETATM    2  C11 UNL     1      21.418  -0.563  53.615  1.00  0.00     0.044 A 
HETATM    3  C12 UNL     1      21.453  -1.259  54.790  1.00  0.00     0.121 A 
HETATM    4  N2  UNL     1      22.693  -1.406  55.250  1.00  0.00    -0.236 NA
HETATM    5  C13 UNL     1      23.778  -0.933  54.640  1.00  0.00     0.182 A 
HETATM    6  O1  UNL     1      25.010  -1.066  55.067  1.00  0.00    -0.290 OA
HETATM    7  C14 UNL     1      25.840  -0.488  54.224  1.00  0.00     0.089 A 
HETATM    8  C15 UNL     1      27.208  -0.333  54.179  1.00  0.00     0.038 A 
HETATM    9  C16 UNL     1      27.815   0.348  53.117  1.00  0.00     0.003 A 
HETATM   10  C17 UNL     1      26.999   0.866  52.101  1.00  0.00     0.001 A 
HETATM   11  C18 UNL     1      25.645   0.669  52.222  1.00  0.00     0.015 A 
HETATM   12  C19 UNL     1      25.017   0.012  53.245  1.00  0.00     0.014 A 
HETATM   13  C20 UNL     1      23.681  -0.239  53.456  1.00  0.00     0.051 A 
ENDROOT
BRANCH   1  14
HETATM   14  N1  UNL     1      22.410   0.764  51.684  1.00  0.00    -0.283 NA
HETATM   15  H8  UNL     1      21.415   0.954  51.834  1.00  0.00     0.128 HD
BRANCH  14  16
HETATM   16  C9  UNL     1      22.041   1.564  50.615  1.00  0.00     0.097 C 
HETATM   17  C8  UNL     1      22.974   2.622  50.122  1.00  0.00    -0.030 A 
HETATM   18  C3  UNL     1      22.815   3.304  48.947  1.00  0.00    -0.029 A 
HETATM   19  C7  UNL     1      23.973   3.084  50.938  1.00  0.00     0.009 A 
HETATM   20  C2  UNL     1      21.956   2.844  47.862  1.00  0.00     0.008 C 
HETATM   21  C4  UNL     1      23.620   4.404  48.617  1.00  0.00     0.012 A 
HETATM   22  C1  UNL     1      21.414   1.671  48.228  1.00  0.00    -0.024 C 
HETATM   23  C21 UNL     1      21.520   0.825  49.405  1.00  0.00     0.052 C 
HETATM   24  C5  UNL     1      24.620   4.856  49.457  1.00  0.00     0.001 A 
HETATM   25  C6  UNL     1      24.791   4.157  50.658  1.00  0.00     0.001 A 
ENDBRANCH  14  16
ENDBRANCH   1  14
TORSDOF 2
ENDMDL
MODEL 8
REMARK VINA RESULT:      -9.2      1.152      3.348
REMARK  2 active torsions:
REMARK  status: ('A' for Active; 'I' for Inactive)
REMARK    1  A    between atoms: C9_9  and  N1_10 
REMARK    2  A    between atoms: N1_10  and  C10_11 
ROOT
HETATM    1  C10 UNL     1      23.604   0.017  53.498  1.00  0.00     0.025 A 
HETATM    2  C11 UNL     1      22.568  -0.737  54.088  1.00  0.00     0.044 A 
HETATM    3  C12 UNL     1      21.256  -0.871  53.730  1.00  0.00     0.121 A 
HETATM    4  N2  UNL     1      20.957  -0.158  52.646  1.00  0.00    -0.236 NA
HETATM    5  C13 UNL     1      21.830   0.600  51.985  1.00  0.00     0.182 A 
HETATM    6  O1  UNL     1      21.563   1.315  50.919  1.00  0.00    -0.290 OA
HETATM    7  C14 UNL     1      22.646   1.950  50.524  1.00  0.00     0.089 A 
HETATM    8  C15 UNL     1      22.927   2.816  49.490  1.00  0.00     0.038 A 
HETATM    9  C16 UNL     1      24.215   3.343  49.330  1.00  0.00     0.003 A 
HETATM   10  C17 UNL     1      25.209   2.970  50.246  1.00  0.00     0.001 A 
HETATM   11  C18 UNL     1      24.846   2.101  51.247  1.00  0.00     0.015 A 
HETATM   12  C19 UNL     1      23.601   1.565  51.433  1.00  0.00     0.014 A 
HETATM   13  C20 UNL     1      23.139   0.697  52.395  1.00  0.00     0.051 A 
ENDROOT
BRANCH   1  14
HETATM   14  N1  UNL     1      24.960   0.095  53.840  1.00  0.00    -0.283 NA
HETATM   15  H8  UNL     1      24.935   1.118  53.779  1.00  0.00     0.128 HD
BRANCH  14  16
HETATM   16  C9  UNL     1      26.248   0.497  54.154  1.00  0.00     0.097 C 
HETATM   17  C8  UNL     1      27.414  -0.302  53.668  1.00  0.00    -0.030 A 
HETATM   18  C3  UNL     1      28.714   0.122  53.719  1.00  0.00    -0.029 A 
HETATM   19  C7  UNL     1      27.236  -1.606  53.288  1.00  0.00     0.009 A 
HETATM   20  C2  UNL     1      29.096   1.518  53.896  1.00  0.00     0.008 C 
HETATM   21  C4  UNL     1      29.782  -0.733  53.411  1.00  0.00     0.012 A 
HETATM   22  C1  UNL     1      27.974   2.252  53.962  1.00  0.00    -0.024 C 
HETATM   23  C21 UNL     1      26.555   1.950  53.885  1.00  0.00     0.052 C 
HETATM   24  C5  UNL     1      29.580  -2.048  53.034  1.00  0.00     0.001 A 
HETATM   25  C6  UNL     1      28.251  -2.484  52.973  1.00  0.00     0.001 A 
ENDBRANCH  14  16
ENDBRANCH   1  14
TORSDOF 2
ENDMDL
MODEL 9
REMARK VINA RESULT:      -9.1      2.239      6.861
REMARK  2 active torsions:
REMARK  status: ('A' for Active; 'I' for Inactive)
REMARK    1  A    between atoms: C9_9  and  N1_10 
REMARK    2  A    between atoms: N1_10  and  C10_11 
ROOT
HETATM    1  C10 UNL     1      24.945   0.504  53.179  1.00  0.00     0.025 A 
HETATM    2  C11 UNL     1      25.845  -0.202  54.005  1.00  0.00     0.044 A 
HETATM    3  C12 UNL     1      27.207  -0.133  54.091  1.00  0.00     0.121 A 
HETATM    4  N2  UNL     1      27.720   0.755  53.243  1.00  0.00    -0.236 NA
HETATM    5  C13 UNL     1      26.994   1.492  52.404  1.00  0.00     0.182 A 
HETATM    6  O1  UNL     1      27.471   2.371  51.556  1.00  0.00    -0.290 OA
HETATM    7  C14 UNL     1      26.485   2.915  50.874  1.00  0.00     0.089 A 
HETATM    8  C15 UNL     1      26.417   3.866  49.880  1.00  0.00     0.038 A 
HETATM    9  C16 UNL     1      25.183   4.242  49.336  1.00  0.00     0.003 A 
HETATM   10  C17 UNL     1      24.021   3.628  49.825  1.00  0.00     0.001 A 
HETATM   11  C18 UNL     1      24.176   2.691  50.817  1.00  0.00     0.015 A 
HETATM   12  C19 UNL     1      25.363   2.301  51.374  1.00  0.00     0.014 A 
HETATM   13  C20 UNL     1      25.624   1.378  52.361  1.00  0.00     0.051 A 
ENDROOT
BRANCH   1  14
HETATM   14  N1  UNL     1      23.546   0.468  53.145  1.00  0.00    -0.283 NA
HETATM   15  H8  UNL     1      23.521  -0.062  54.022  1.00  0.00     0.128 HD
BRANCH  14  16
HETATM   16  C9  UNL     1      22.198   0.271  53.397  1.00  0.00     0.097 C 
HETATM   17  C8  UNL     1      21.216   0.335  52.273  1.00  0.00    -0.030 A 
HETATM   18  C3  UNL     1      19.912  -0.068  52.364  1.00  0.00    -0.029 A 
HETATM   19  C7  UNL     1      21.552   0.977  51.110  1.00  0.00     0.009 A 
HETATM   20  C2  UNL     1      19.414  -0.943  53.420  1.00  0.00     0.008 C 
HETATM   21  C4  UNL     1      18.990   0.175  51.335  1.00  0.00     0.012 A 
HETATM   22  C1  UNL     1      20.448  -1.270  54.212  1.00  0.00    -0.024 C 
HETATM   23  C21 UNL     1      21.867  -0.955  54.214  1.00  0.00     0.052 C 
HETATM   24  C5  UNL     1      19.349   0.829  50.171  1.00  0.00     0.001 A 
HETATM   25  C6  UNL     1      20.685   1.237  50.070  1.00  0.00     0.001 A 
ENDBRANCH  14  16
ENDBRANCH   1  14
TORSDOF 2
ENDMDL
