MODEL 1
REMARK VINA RESULT:      -6.5      0.000      0.000
REMARK  7 active torsions:
REMARK  status: ('A' for Active; 'I' for Inactive)
REMARK    1  A    between atoms: N1_2  and  C2_3 
REMARK    2  A    between atoms: C2_3  and  C3_4 
REMARK    3  A    between atoms: C4_5  and  C5_6 
REMARK    4  A    between atoms: C7_9  and  N3_10 
REMARK    5  A    between atoms: N3_10  and  C8_11 
REMARK    6  A    between atoms: C8_11  and  C9_12 
REMARK    7  A    between atoms: C10_13  and  C11_15 
ROOT
HETATM    1  C5  UNL     1      22.626   1.032  52.482  1.00  0.00     0.199 C 
HETATM    2  N2  UNL     1      23.728   1.971  52.661  1.00  0.00    -0.258 NA
HETATM    3  C6  UNL     1      24.632   1.436  53.415  1.00  0.00     0.123 C 
HETATM    4  C7  UNL     1      24.214   0.084  53.817  1.00  0.00     0.273 C 
HETATM    5  C12 UNL     1      23.317  -0.335  52.696  1.00  0.00     0.111 C 
HETATM    6  C13 UNL     1      22.338  -1.317  53.249  1.00  0.00    -0.001 C 
HETATM    7  C14 UNL     1      21.775  -0.951  54.364  1.00  0.00    -0.013 C 
HETATM    8  C15 UNL     1      21.154   0.194  54.387  1.00  0.00     0.098 C 
HETATM    9  N4  UNL     1      21.582   1.212  53.461  1.00  0.00    -0.360 N 
HETATM   10  H18 UNL     1      21.170   2.175  53.420  1.00  0.00     0.162 HD
ENDROOT
BRANCH   4  11
HETATM   11  N3  UNL     1      25.272  -0.816  54.155  1.00  0.00     0.097 N 
HETATM   12  H9  UNL     1      24.943  -1.738  54.482  1.00  0.00     0.317 HD
BRANCH  11  13
HETATM   13  C8  UNL     1      26.049  -0.912  52.902  1.00  0.00     0.299 C 
BRANCH  13  14
HETATM   14  C9  UNL     1      27.496  -0.896  53.113  1.00  0.00     0.024 C 
HETATM   15  C10 UNL     1      28.543  -0.159  53.450  1.00  0.00     0.038 C 
HETATM   16 CL1  UNL     1      30.197  -0.733  53.544  1.00  0.00    -0.087 Cl
BRANCH  15  17
HETATM   17  C11 UNL     1      28.500   1.276  53.811  1.00  0.00     0.273 C 
HETATM   18  F1  UNL     1      29.459   1.488  54.785  1.00  0.00    -0.250 F 
ENDBRANCH  15  17
ENDBRANCH  13  14
ENDBRANCH  11  13
ENDBRANCH   4  11
BRANCH   1  19
HETATM   19  C4  UNL     1      22.197   1.099  51.111  1.00  0.00    -0.048 C 
HETATM   20  C3  UNL     1      21.840   1.172  49.962  1.00  0.00    -0.072 C 
BRANCH  20  21
HETATM   21  C2  UNL     1      21.423   1.274  48.546  1.00  0.00     0.362 C 
BRANCH  21  22
HETATM   22  N1  UNL     1      20.068   1.836  48.522  1.00  0.00     0.089 N 
HETATM   23  C1  UNL     1      20.061   2.925  47.541  1.00  0.00     0.307 C 
HETATM   24  H4  UNL     1      19.384   1.103  48.176  1.00  0.00     0.316 HD
ENDBRANCH  21  22
ENDBRANCH  20  21
ENDBRANCH   1  19
TORSDOF 7
ENDMDL
MODEL 2
REMARK VINA RESULT:      -6.5      3.514      5.619
REMARK  7 active torsions:
REMARK  status: ('A' for Active; 'I' for Inactive)
REMARK    1  A    between atoms: N1_2  and  C2_3 
REMARK    2  A    between atoms: C2_3  and  C3_4 
REMARK    3  A    between atoms: C4_5  and  C5_6 
REMARK    4  A    between atoms: C7_9  and  N3_10 
REMARK    5  A    between atoms: N3_10  and  C8_11 
REMARK    6  A    between atoms: C8_11  and  C9_12 
REMARK    7  A    between atoms: C10_13  and  C11_15 
ROOT
HETATM    1  C5  UNL     1      25.122   0.731  53.626  1.00  0.00     0.199 C 
HETATM    2  N2  UNL     1      24.690   2.124  53.683  1.00  0.00    -0.258 NA
HETATM    3  C6  UNL     1      25.336   2.812  52.798  1.00  0.00     0.123 C 
HETATM    4  C7  UNL     1      26.267   1.939  52.066  1.00  0.00     0.273 C 
HETATM    5  C12 UNL     1      25.616   0.597  52.166  1.00  0.00     0.111 C 
HETATM    6  C13 UNL     1      26.696  -0.432  52.089  1.00  0.00    -0.001 C 
HETATM    7  C14 UNL     1      27.718  -0.201  52.860  1.00  0.00    -0.013 C 
HETATM    8  C15 UNL     1      27.498  -0.038  54.133  1.00  0.00     0.098 C 
HETATM    9  N4  UNL     1      26.204   0.451  54.538  1.00  0.00    -0.360 N 
HETATM   10  H18 UNL     1      25.938   0.645  55.532  1.00  0.00     0.162 HD
ENDROOT
BRANCH   4  11
HETATM   11  N3  UNL     1      26.623   2.377  50.752  1.00  0.00     0.097 N 
HETATM   12  H9  UNL     1      26.546   1.640  50.035  1.00  0.00     0.317 HD
BRANCH  11  13
HETATM   13  C8  UNL     1      25.693   3.498  50.506  1.00  0.00     0.299 C 
BRANCH  13  14
HETATM   14  C9  UNL     1      24.645   3.181  49.537  1.00  0.00     0.024 C 
HETATM   15  C10 UNL     1      23.394   2.778  49.373  1.00  0.00     0.038 C 
HETATM   16 CL1  UNL     1      22.597   2.558  47.827  1.00  0.00    -0.087 Cl
BRANCH  15  17
HETATM   17  C11 UNL     1      22.450   2.449  50.463  1.00  0.00     0.273 C 
HETATM   18  F1  UNL     1      22.729   1.159  50.879  1.00  0.00    -0.250 F 
ENDBRANCH  15  17
ENDBRANCH  13  14
ENDBRANCH  11  13
ENDBRANCH   4  11
BRANCH   1  19
HETATM   19  C4  UNL     1      23.962  -0.105  53.777  1.00  0.00    -0.048 C 
HETATM   20  C3  UNL     1      22.998  -0.815  53.915  1.00  0.00    -0.072 C 
BRANCH  20  21
HETATM   21  C2  UNL     1      21.814  -1.681  54.110  1.00  0.00     0.362 C 
BRANCH  21  22
HETATM   22  N1  UNL     1      20.721  -0.835  54.603  1.00  0.00     0.089 N 
HETATM   23  C1  UNL     1      20.137  -0.153  53.445  1.00  0.00     0.307 C 
HETATM   24  H4  UNL     1      19.960  -1.444  55.021  1.00  0.00     0.316 HD
ENDBRANCH  21  22
ENDBRANCH  20  21
ENDBRANCH   1  19
TORSDOF 7
ENDMDL
MODEL 3
REMARK VINA RESULT:      -6.5      2.814      4.038
REMARK  7 active torsions:
REMARK  status: ('A' for Active; 'I' for Inactive)
REMARK    1  A    between atoms: N1_2  and  C2_3 
REMARK    2  A    between atoms: C2_3  and  C3_4 
REMARK    3  A    between atoms: C4_5  and  C5_6 
REMARK    4  A    between atoms: C7_9  and  N3_10 
REMARK    5  A    between atoms: N3_10  and  C8_11 
REMARK    6  A    between atoms: C8_11  and  C9_12 
REMARK    7  A    between atoms: C10_13  and  C11_15 
ROOT
HETATM    1  C5  UNL     1      20.379   0.468  53.278  1.00  0.00     0.199 C 
HETATM    2  N2  UNL     1      20.316   1.885  52.931  1.00  0.00    -0.258 NA
HETATM    3  C6  UNL     1      21.470   2.273  52.493  1.00  0.00     0.123 C 
HETATM    4  C7  UNL     1      22.417   1.146  52.510  1.00  0.00     0.273 C 
HETATM    5  C12 UNL     1      21.523  -0.044  52.372  1.00  0.00     0.111 C 
HETATM    6  C13 UNL     1      22.210  -1.197  53.027  1.00  0.00    -0.001 C 
HETATM    7  C14 UNL     1      22.691  -0.941  54.208  1.00  0.00    -0.013 C 
HETATM    8  C15 UNL     1      21.876  -0.477  55.112  1.00  0.00     0.098 C 
HETATM    9  N4  UNL     1      20.717   0.253  54.664  1.00  0.00    -0.360 N 
HETATM   10  H18 UNL     1      20.018   0.693  55.310  1.00  0.00     0.162 HD
ENDROOT
BRANCH   4  11
HETATM   11  N3  UNL     1      23.503   1.238  51.585  1.00  0.00     0.097 N 
HETATM   12  H9  UNL     1      23.223   1.568  50.648  1.00  0.00     0.317 HD
BRANCH  11  13
HETATM   13  C8  UNL     1      24.438   2.168  52.250  1.00  0.00     0.299 C 
BRANCH  13  14
HETATM   14  C9  UNL     1      25.260   1.530  53.277  1.00  0.00     0.024 C 
HETATM   15  C10 UNL     1      26.002   0.477  53.584  1.00  0.00     0.038 C 
HETATM   16 CL1  UNL     1      26.824   0.230  55.113  1.00  0.00    -0.087 Cl
BRANCH  15  17
HETATM   17  C11 UNL     1      26.271  -0.672  52.691  1.00  0.00     0.273 C 
HETATM   18  F1  UNL     1      26.777  -0.168  51.507  1.00  0.00    -0.250 F 
ENDBRANCH  15  17
ENDBRANCH  13  14
ENDBRANCH  11  13
ENDBRANCH   4  11
BRANCH   1  19
HETATM   19  C4  UNL     1      19.160  -0.155  52.842  1.00  0.00    -0.048 C 
HETATM   20  C3  UNL     1      18.144  -0.693  52.478  1.00  0.00    -0.072 C 
BRANCH  20  21
HETATM   21  C2  UNL     1      16.897  -1.367  52.053  1.00  0.00     0.362 C 
BRANCH  21  22
HETATM   22  N1  UNL     1      16.386  -2.121  53.204  1.00  0.00     0.089 N 
HETATM   23  C1  UNL     1      17.335  -3.204  53.476  1.00  0.00     0.307 C 
HETATM   24  H4  UNL     1      16.374  -1.497  54.061  1.00  0.00     0.316 HD
ENDBRANCH  21  22
ENDBRANCH  20  21
ENDBRANCH   1  19
TORSDOF 7
ENDMDL
MODEL 4
REMARK VINA RESULT:      -6.5      3.995      5.648
REMARK  7 active torsions:
REMARK  status: ('A' for Active; 'I' for Inactive)
REMARK    1  A    between atoms: N1_2  and  C2_3 
REMARK    2  A    between atoms: C2_3  and  C3_4 
REMARK    3  A    between atoms: C4_5  and  C5_6 
REMARK    4  A    between atoms: C7_9  and  N3_10 
REMARK    5  A    between atoms: N3_10  and  C8_11 
REMARK    6  A    between atoms: C8_11  and  C9_12 
REMARK    7  A    between atoms: C10_13  and  C11_15 
ROOT
HETATM    1  C5  UNL     1      25.083   0.702  53.576  1.00  0.00     0.199 C 
HETATM    2  N2  UNL     1      24.661   2.091  53.420  1.00  0.00    -0.258 NA
HETATM    3  C6  UNL     1      25.351   2.648  52.479  1.00  0.00     0.123 C 
HETATM    4  C7  UNL     1      26.307   1.680  51.918  1.00  0.00     0.273 C 
HETATM    5  C12 UNL     1      25.640   0.367  52.172  1.00  0.00     0.111 C 
HETATM    6  C13 UNL     1      26.714  -0.665  52.287  1.00  0.00    -0.001 C 
HETATM    7  C14 UNL     1      27.703  -0.333  53.064  1.00  0.00    -0.013 C 
HETATM    8  C15 UNL     1      27.428   0.005  54.291  1.00  0.00     0.098 C 
HETATM    9  N4  UNL     1      26.121   0.548  54.566  1.00  0.00    -0.360 N 
HETATM   10  H18 UNL     1      25.812   0.878  55.511  1.00  0.00     0.162 HD
ENDROOT
BRANCH   4  11
HETATM   11  N3  UNL     1      26.725   1.932  50.574  1.00  0.00     0.097 N 
HETATM   12  H9  UNL     1      26.515   1.159  49.923  1.00  0.00     0.317 HD
BRANCH  11  13
HETATM   13  C8  UNL     1      26.002   3.172  50.221  1.00  0.00     0.299 C 
BRANCH  13  14
HETATM   14  C9  UNL     1      26.810   4.115  49.450  1.00  0.00     0.024 C 
HETATM   15  C10 UNL     1      26.859   5.320  48.903  1.00  0.00     0.038 C 
HETATM   16 CL1  UNL     1      28.222   5.974  48.014  1.00  0.00    -0.087 Cl
BRANCH  15  17
HETATM   17  C11 UNL     1      25.775   6.326  48.949  1.00  0.00     0.273 C 
HETATM   18  F1  UNL     1      24.704   5.816  48.239  1.00  0.00    -0.250 F 
ENDBRANCH  15  17
ENDBRANCH  13  14
ENDBRANCH  11  13
ENDBRANCH   4  11
BRANCH   1  19
HETATM   19  C4  UNL     1      23.911  -0.102  53.788  1.00  0.00    -0.048 C 
HETATM   20  C3  UNL     1      22.934  -0.790  53.957  1.00  0.00    -0.072 C 
BRANCH  20  21
HETATM   21  C2  UNL     1      21.751  -1.651  54.172  1.00  0.00     0.362 C 
BRANCH  21  22
HETATM   22  N1  UNL     1      20.649  -0.789  54.613  1.00  0.00     0.089 N 
HETATM   23  C1  UNL     1      19.869  -0.430  53.425  1.00  0.00     0.307 C 
HETATM   24  H4  UNL     1      20.004  -1.335  55.254  1.00  0.00     0.316 HD
ENDBRANCH  21  22
ENDBRANCH  20  21
ENDBRANCH   1  19
TORSDOF 7
ENDMDL
MODEL 5
REMARK VINA RESULT:      -6.1      4.746      6.320
REMARK  7 active torsions:
REMARK  status: ('A' for Active; 'I' for Inactive)
REMARK    1  A    between atoms: N1_2  and  C2_3 
REMARK    2  A    between atoms: C2_3  and  C3_4 
REMARK    3  A    between atoms: C4_5  and  C5_6 
REMARK    4  A    between atoms: C7_9  and  N3_10 
REMARK    5  A    between atoms: N3_10  and  C8_11 
REMARK    6  A    between atoms: C8_11  and  C9_12 
REMARK    7  A    between atoms: C10_13  and  C11_15 
ROOT
HETATM    1  C5  UNL     1      24.761   5.370  49.466  1.00  0.00     0.199 C 
HETATM    2  N2  UNL     1      24.657   6.249  50.626  1.00  0.00    -0.258 NA
HETATM    3  C6  UNL     1      23.845   5.730  51.489  1.00  0.00     0.123 C 
HETATM    4  C7  UNL     1      23.325   4.450  50.981  1.00  0.00     0.273 C 
HETATM    5  C12 UNL     1      24.413   3.987  50.066  1.00  0.00     0.111 C 
HETATM    6  C13 UNL     1      23.783   3.126  49.022  1.00  0.00    -0.001 C 
HETATM    7  C14 UNL     1      22.714   3.629  48.478  1.00  0.00    -0.013 C 
HETATM    8  C15 UNL     1      22.804   4.808  47.932  1.00  0.00     0.098 C 
HETATM    9  N4  UNL     1      23.815   5.707  48.431  1.00  0.00    -0.360 N 
HETATM   10  H18 UNL     1      23.950   6.686  48.082  1.00  0.00     0.162 HD
ENDROOT
BRANCH   4  11
HETATM   11  N3  UNL     1      22.893   3.520  51.977  1.00  0.00     0.097 N 
HETATM   12  H9  UNL     1      22.604   2.607  51.593  1.00  0.00     0.317 HD
BRANCH  11  13
HETATM   13  C8  UNL     1      24.066   3.407  52.869  1.00  0.00     0.299 C 
BRANCH  13  14
HETATM   14  C9  UNL     1      24.568   2.040  52.998  1.00  0.00     0.024 C 
HETATM   15  C10 UNL     1      25.468   1.163  52.581  1.00  0.00     0.038 C 
HETATM   16 CL1  UNL     1      25.606  -0.491  53.146  1.00  0.00    -0.087 Cl
BRANCH  15  17
HETATM   17  C11 UNL     1      26.516   1.425  51.571  1.00  0.00     0.273 C 
HETATM   18  F1  UNL     1      27.150   2.602  51.926  1.00  0.00    -0.250 F 
ENDBRANCH  15  17
ENDBRANCH  13  14
ENDBRANCH  11  13
ENDBRANCH   4  11
BRANCH   1  19
HETATM   19  C4  UNL     1      26.137   5.336  49.051  1.00  0.00    -0.048 C 
HETATM   20  C3  UNL     1      27.287   5.315  48.688  1.00  0.00    -0.072 C 
BRANCH  20  21
HETATM   21  C2  UNL     1      28.696   5.313  48.238  1.00  0.00     0.362 C 
BRANCH  21  22
HETATM   22  N1  UNL     1      29.392   6.387  48.956  1.00  0.00     0.089 N 
HETATM   23  C1  UNL     1      29.056   7.650  48.292  1.00  0.00     0.307 C 
HETATM   24  H4  UNL     1      29.021   6.451  49.948  1.00  0.00     0.316 HD
ENDBRANCH  21  22
ENDBRANCH  20  21
ENDBRANCH   1  19
TORSDOF 7
ENDMDL
MODEL 6
REMARK VINA RESULT:      -6.1      3.808      6.800
REMARK  7 active torsions:
REMARK  status: ('A' for Active; 'I' for Inactive)
REMARK    1  A    between atoms: N1_2  and  C2_3 
REMARK    2  A    between atoms: C2_3  and  C3_4 
REMARK    3  A    between atoms: C4_5  and  C5_6 
REMARK    4  A    between atoms: C7_9  and  N3_10 
REMARK    5  A    between atoms: N3_10  and  C8_11 
REMARK    6  A    between atoms: C8_11  and  C9_12 
REMARK    7  A    between atoms: C10_13  and  C11_15 
ROOT
HETATM    1  C5  UNL     1      25.137   2.749  51.785  1.00  0.00     0.199 C 
HETATM    2  N2  UNL     1      24.568   3.206  53.049  1.00  0.00    -0.258 NA
HETATM    3  C6  UNL     1      23.454   3.822  52.822  1.00  0.00     0.123 C 
HETATM    4  C7  UNL     1      23.176   3.839  51.377  1.00  0.00     0.273 C 
HETATM    5  C12 UNL     1      23.885   2.618  50.886  1.00  0.00     0.111 C 
HETATM    6  C13 UNL     1      24.257   2.860  49.460  1.00  0.00    -0.001 C 
HETATM    7  C14 UNL     1      24.818   4.012  49.235  1.00  0.00    -0.013 C 
HETATM    8  C15 UNL     1      25.885   4.315  49.918  1.00  0.00     0.098 C 
HETATM    9  N4  UNL     1      26.053   3.706  51.213  1.00  0.00    -0.360 N 
HETATM   10  H18 UNL     1      26.859   3.906  51.853  1.00  0.00     0.162 HD
ENDROOT
BRANCH   4  11
HETATM   11  N3  UNL     1      21.798   3.964  51.014  1.00  0.00     0.097 N 
HETATM   12  H9  UNL     1      21.509   3.324  50.258  1.00  0.00     0.317 HD
BRANCH  11  13
HETATM   13  C8  UNL     1      21.088   3.690  52.281  1.00  0.00     0.299 C 
BRANCH  13  14
HETATM   14  C9  UNL     1      20.454   2.374  52.318  1.00  0.00     0.024 C 
HETATM   15  C10 UNL     1      20.592   1.103  52.666  1.00  0.00     0.038 C 
HETATM   16 CL1  UNL     1      19.378  -0.143  52.449  1.00  0.00    -0.087 Cl
BRANCH  15  17
HETATM   17  C11 UNL     1      21.791   0.515  53.303  1.00  0.00     0.273 C 
HETATM   18  F1  UNL     1      22.524  -0.109  52.311  1.00  0.00    -0.250 F 
ENDBRANCH  15  17
ENDBRANCH  13  14
ENDBRANCH  11  13
ENDBRANCH   4  11
BRANCH   1  19
HETATM   19  C4  UNL     1      25.675   1.431  51.985  1.00  0.00    -0.048 C 
HETATM   20  C3  UNL     1      26.119   0.325  52.169  1.00  0.00    -0.072 C 
BRANCH  20  21
HETATM   21  C2  UNL     1      26.640  -1.041  52.400  1.00  0.00     0.362 C 
BRANCH  21  22
HETATM   22  N1  UNL     1      27.316  -1.042  53.703  1.00  0.00     0.089 N 
HETATM   23  C1  UNL     1      28.663  -0.501  53.500  1.00  0.00     0.307 C 
HETATM   24  H4  UNL     1      26.814  -0.384  54.365  1.00  0.00     0.316 HD
ENDBRANCH  21  22
ENDBRANCH  20  21
ENDBRANCH   1  19
TORSDOF 7
ENDMDL
MODEL 7
REMARK VINA RESULT:      -6.0      2.641      4.605
REMARK  7 active torsions:
REMARK  status: ('A' for Active; 'I' for Inactive)
REMARK    1  A    between atoms: N1_2  and  C2_3 
REMARK    2  A    between atoms: C2_3  and  C3_4 
REMARK    3  A    between atoms: C4_5  and  C5_6 
REMARK    4  A    between atoms: C7_9  and  N3_10 
REMARK    5  A    between atoms: N3_10  and  C8_11 
REMARK    6  A    between atoms: C8_11  and  C9_12 
REMARK    7  A    between atoms: C10_13  and  C11_15 
ROOT
HETATM    1  C5  UNL     1      22.633   2.433  51.887  1.00  0.00     0.199 C 
HETATM    2  N2  UNL     1      23.073   1.758  50.670  1.00  0.00    -0.258 NA
HETATM    3  C6  UNL     1      24.201   2.260  50.283  1.00  0.00     0.123 C 
HETATM    4  C7  UNL     1      24.619   3.325  51.208  1.00  0.00     0.273 C 
HETATM    5  C12 UNL     1      23.968   2.926  52.493  1.00  0.00     0.111 C 
HETATM    6  C13 UNL     1      23.735   4.172  53.282  1.00  0.00    -0.001 C 
HETATM    7  C14 UNL     1      23.193   5.146  52.610  1.00  0.00    -0.013 C 
HETATM    8  C15 UNL     1      22.063   4.914  52.006  1.00  0.00     0.098 C 
HETATM    9  N4  UNL     1      21.772   3.558  51.614  1.00  0.00    -0.360 N 
HETATM   10  H18 UNL     1      20.907   3.272  51.097  1.00  0.00     0.162 HD
ENDROOT
BRANCH   4  11
HETATM   11  N3  UNL     1      26.025   3.581  51.260  1.00  0.00     0.097 N 
HETATM   12  H9  UNL     1      26.336   4.002  52.149  1.00  0.00     0.317 HD
BRANCH  11  13
HETATM   13  C8  UNL     1      26.622   2.249  51.032  1.00  0.00     0.299 C 
BRANCH  13  14
HETATM   14  C9  UNL     1      27.153   1.635  52.248  1.00  0.00     0.024 C 
HETATM   15  C10 UNL     1      27.125   0.573  53.039  1.00  0.00     0.038 C 
HETATM   16 CL1  UNL     1      28.072   0.375  54.501  1.00  0.00    -0.087 Cl
BRANCH  15  17
HETATM   17  C11 UNL     1      26.295  -0.633  52.824  1.00  0.00     0.273 C 
HETATM   18  F1  UNL     1      24.972  -0.230  52.814  1.00  0.00    -0.250 F 
ENDBRANCH  15  17
ENDBRANCH  13  14
ENDBRANCH  11  13
ENDBRANCH   4  11
BRANCH   1  19
HETATM   19  C4  UNL     1      22.085   1.444  52.775  1.00  0.00    -0.048 C 
HETATM   20  C3  UNL     1      21.636   0.619  53.532  1.00  0.00    -0.072 C 
BRANCH  20  21
HETATM   21  C2  UNL     1      21.081  -0.374  54.478  1.00  0.00     0.362 C 
BRANCH  21  22
HETATM   22  N1  UNL     1      21.923  -1.574  54.405  1.00  0.00     0.089 N 
HETATM   23  C1  UNL     1      23.032  -1.392  55.346  1.00  0.00     0.307 C 
HETATM   24  H4  UNL     1      21.371  -2.417  54.737  1.00  0.00     0.316 HD
ENDBRANCH  21  22
ENDBRANCH  20  21
ENDBRANCH   1  19
TORSDOF 7
ENDMDL
MODEL 8
REMARK VINA RESULT:      -5.8      4.835      7.417
REMARK  7 active torsions:
REMARK  status: ('A' for Active; 'I' for Inactive)
REMARK    1  A    between atoms: N1_2  and  C2_3 
REMARK    2  A    between atoms: C2_3  and  C3_4 
REMARK    3  A    between atoms: C4_5  and  C5_6 
REMARK    4  A    between atoms: C7_9  and  N3_10 
REMARK    5  A    between atoms: N3_10  and  C8_11 
REMARK    6  A    between atoms: C8_11  and  C9_12 
REMARK    7  A    between atoms: C10_13  and  C11_15 
ROOT
HETATM    1  C5  UNL     1      25.276   2.658  51.787  1.00  0.00     0.199 C 
HETATM    2  N2  UNL     1      24.699   3.102  53.052  1.00  0.00    -0.258 NA
HETATM    3  C6  UNL     1      23.603   3.749  52.823  1.00  0.00     0.123 C 
HETATM    4  C7  UNL     1      23.346   3.801  51.375  1.00  0.00     0.273 C 
HETATM    5  C12 UNL     1      24.033   2.574  50.868  1.00  0.00     0.111 C 
HETATM    6  C13 UNL     1      24.431   2.836  49.453  1.00  0.00    -0.001 C 
HETATM    7  C14 UNL     1      25.022   3.979  49.259  1.00  0.00    -0.013 C 
HETATM    8  C15 UNL     1      26.085   4.244  49.963  1.00  0.00     0.098 C 
HETATM    9  N4  UNL     1      26.221   3.604  51.248  1.00  0.00    -0.360 N 
HETATM   10  H18 UNL     1      27.022   3.773  51.902  1.00  0.00     0.162 HD
ENDROOT
BRANCH   4  11
HETATM   11  N3  UNL     1      21.976   3.965  50.995  1.00  0.00     0.097 N 
HETATM   12  H9  UNL     1      21.376   3.168  51.256  1.00  0.00     0.317 HD
BRANCH  11  13
HETATM   13  C8  UNL     1      21.581   5.212  51.683  1.00  0.00     0.299 C 
BRANCH  13  14
HETATM   14  C9  UNL     1      21.795   6.413  50.877  1.00  0.00     0.024 C 
HETATM   15  C10 UNL     1      22.671   7.328  50.491  1.00  0.00     0.038 C 
HETATM   16 CL1  UNL     1      22.328   8.662  49.406  1.00  0.00    -0.087 Cl
BRANCH  15  17
HETATM   17  C11 UNL     1      24.091   7.383  50.903  1.00  0.00     0.273 C 
HETATM   18  F1  UNL     1      24.551   8.660  50.638  1.00  0.00    -0.250 F 
ENDBRANCH  15  17
ENDBRANCH  13  14
ENDBRANCH  11  13
ENDBRANCH   4  11
BRANCH   1  19
HETATM   19  C4  UNL     1      25.780   1.324  51.967  1.00  0.00    -0.048 C 
HETATM   20  C3  UNL     1      26.201   0.202  52.102  1.00  0.00    -0.072 C 
BRANCH  20  21
HETATM   21  C2  UNL     1      26.735  -1.170  52.250  1.00  0.00     0.362 C 
BRANCH  21  22
HETATM   22  N1  UNL     1      27.335  -1.270  53.586  1.00  0.00     0.089 N 
HETATM   23  C1  UNL     1      28.625  -0.573  53.542  1.00  0.00     0.307 C 
HETATM   24  H4  UNL     1      26.729  -0.756  54.288  1.00  0.00     0.316 HD
ENDBRANCH  21  22
ENDBRANCH  20  21
ENDBRANCH   1  19
TORSDOF 7
ENDMDL
MODEL 9
REMARK VINA RESULT:      -5.6      5.072      6.660
REMARK  7 active torsions:
REMARK  status: ('A' for Active; 'I' for Inactive)
REMARK    1  A    between atoms: N1_2  and  C2_3 
REMARK    2  A    between atoms: C2_3  and  C3_4 
REMARK    3  A    between atoms: C4_5  and  C5_6 
REMARK    4  A    between atoms: C7_9  and  N3_10 
REMARK    5  A    between atoms: N3_10  and  C8_11 
REMARK    6  A    between atoms: C8_11  and  C9_12 
REMARK    7  A    between atoms: C10_13  and  C11_15 
ROOT
HETATM    1  C5  UNL     1      24.060   3.227  52.077  1.00  0.00     0.199 C 
HETATM    2  N2  UNL     1      23.623   4.448  52.746  1.00  0.00    -0.258 NA
HETATM    3  C6  UNL     1      23.749   5.451  51.939  1.00  0.00     0.123 C 
HETATM    4  C7  UNL     1      24.289   4.991  50.650  1.00  0.00     0.273 C 
HETATM    5  C12 UNL     1      23.835   3.569  50.585  1.00  0.00     0.111 C 
HETATM    6  C13 UNL     1      24.816   2.824  49.740  1.00  0.00    -0.001 C 
HETATM    7  C14 UNL     1      26.064   3.044  50.039  1.00  0.00    -0.013 C 
HETATM    8  C15 UNL     1      26.444   2.830  51.266  1.00  0.00     0.098 C 
HETATM    9  N4  UNL     1      25.455   2.938  52.308  1.00  0.00    -0.360 N 
HETATM   10  H18 UNL     1      25.664   2.816  53.328  1.00  0.00     0.162 HD
ENDROOT
BRANCH   4  11
HETATM   11  N3  UNL     1      23.976   5.812  49.521  1.00  0.00     0.097 N 
HETATM   12  H9  UNL     1      23.036   6.235  49.564  1.00  0.00     0.317 HD
BRANCH  11  13
HETATM   13  C8  UNL     1      25.049   6.828  49.532  1.00  0.00     0.299 C 
BRANCH  13  14
HETATM   14  C9  UNL     1      26.348   6.304  49.113  1.00  0.00     0.024 C 
HETATM   15  C10 UNL     1      27.412   6.503  48.349  1.00  0.00     0.038 C 
HETATM   16 CL1  UNL     1      28.798   5.435  48.247  1.00  0.00    -0.087 Cl
BRANCH  15  17
HETATM   17  C11 UNL     1      27.619   7.663  47.454  1.00  0.00     0.273 C 
HETATM   18  F1  UNL     1      26.504   7.765  46.641  1.00  0.00    -0.250 F 
ENDBRANCH  15  17
ENDBRANCH  13  14
ENDBRANCH  11  13
ENDBRANCH   4  11
BRANCH   1  19
HETATM   19  C4  UNL     1      23.150   2.172  52.428  1.00  0.00    -0.048 C 
HETATM   20  C3  UNL     1      22.379   1.287  52.708  1.00  0.00    -0.072 C 
BRANCH  20  21
HETATM   21  C2  UNL     1      21.440   0.190  53.030  1.00  0.00     0.362 C 
BRANCH  21  22
HETATM   22  N1  UNL     1      21.456   0.007  54.486  1.00  0.00     0.089 N 
HETATM   23  C1  UNL     1      22.165  -1.246  54.764  1.00  0.00     0.307 C 
HETATM   24  H4  UNL     1      22.017   0.786  54.937  1.00  0.00     0.316 HD
ENDBRANCH  21  22
ENDBRANCH  20  21
ENDBRANCH   1  19
TORSDOF 7
ENDMDL
