MODEL 1
REMARK VINA RESULT:      -7.6      0.000      0.000
REMARK  8 active torsions:
REMARK  status: ('A' for Active; 'I' for Inactive)
REMARK    1  A    between atoms: C2_2  and  C3_3 
REMARK       I    between atoms: C3_3  and  N1_5 
REMARK    2  A    between atoms: N1_5  and  C4_6 
REMARK    3  A    between atoms: C7_9  and  C8_10 
REMARK    4  A    between atoms: C8_10  and  C9_11 
REMARK    5  A    between atoms: C9_11  and  N2_12 
REMARK    6  A    between atoms: N2_12  and  C10_13 
REMARK    7  A    between atoms: C17_21  and  O2_22 
REMARK    8  A    between atoms: O2_22  and  C18_23 
ROOT
HETATM    1  C18 UNL     1      24.796   1.819  51.656  1.00  0.00     0.299 C 
HETATM    2  C19 UNL     1      25.949   2.557  51.090  1.00  0.00     0.085 C 
HETATM    3  N3  UNL     1      26.846   3.128  50.629  1.00  0.00    -0.195 NA
ENDROOT
BRANCH   1   4
HETATM    4  O2  UNL     1      25.274   0.565  52.092  1.00  0.00    -0.336 OA
BRANCH   4   5
HETATM    5  C17 UNL     1      24.677  -0.031  53.187  1.00  0.00     0.093 A 
HETATM    6  C4  UNL     1      25.381  -0.752  54.237  1.00  0.00     0.064 A 
HETATM    7  C5  UNL     1      24.529  -1.199  55.138  1.00  0.00     0.006 A 
HETATM    8  C6  UNL     1      23.072  -1.174  55.396  1.00  0.00     0.038 A 
HETATM    9  C7  UNL     1      22.374  -0.440  54.314  1.00  0.00     0.016 A 
HETATM   10  C16 UNL     1      23.365   0.042  53.326  1.00  0.00     0.017 A 
BRANCH   6  11
HETATM   11  N1  UNL     1      26.788  -0.872  54.145  1.00  0.00    -0.322 N 
HETATM   12  C3  UNL     1      27.772   0.107  54.395  1.00  0.00     0.245 C 
HETATM   13  O1  UNL     1      27.456   1.265  54.749  1.00  0.00    -0.268 OA
HETATM   14  H4  UNL     1      27.180  -1.775  53.862  1.00  0.00     0.169 HD
BRANCH  12  15
HETATM   15  C2  UNL     1      29.195  -0.147  54.263  1.00  0.00     0.064 C 
HETATM   16  C1  UNL     1      29.640  -1.132  53.510  1.00  0.00     0.017 C 
ENDBRANCH  12  15
ENDBRANCH   6  11
BRANCH   9  17
HETATM   17  C8  UNL     1      21.260  -1.200  53.656  1.00  0.00     0.028 C 
BRANCH  17  18
HETATM   18  C9  UNL     1      19.934  -0.535  53.731  1.00  0.00     0.120 C 
BRANCH  18  19
HETATM   19  N2  UNL     1      19.653   0.093  52.458  1.00  0.00    -0.390 N 
HETATM   20  H13 UNL     1      18.858  -0.296  51.872  1.00  0.00     0.159 HD
BRANCH  19  21
HETATM   21  C10 UNL     1      20.278   1.187  51.825  1.00  0.00     0.029 A 
HETATM   22  C11 UNL     1      20.387   2.463  52.392  1.00  0.00     0.029 A 
HETATM   23  C12 UNL     1      20.992   3.501  51.727  1.00  0.00     0.004 A 
HETATM   24  C13 UNL     1      21.525   3.359  50.470  1.00  0.00     0.019 A 
HETATM   25  C14 UNL     1      21.438   2.121  49.875  1.00  0.00     0.013 A 
HETATM   26 BR1  UNL     1      22.185   1.958  48.141  1.00  0.00    -0.051 Br
HETATM   27  C15 UNL     1      20.827   1.096  50.567  1.00  0.00     0.048 A 
ENDBRANCH  19  21
ENDBRANCH  18  19
ENDBRANCH  17  18
ENDBRANCH   9  17
ENDBRANCH   4   5
ENDBRANCH   1   4
TORSDOF 8
ENDMDL
MODEL 2
REMARK VINA RESULT:      -7.4      3.380      5.311
REMARK  8 active torsions:
REMARK  status: ('A' for Active; 'I' for Inactive)
REMARK    1  A    between atoms: C2_2  and  C3_3 
REMARK       I    between atoms: C3_3  and  N1_5 
REMARK    2  A    between atoms: N1_5  and  C4_6 
REMARK    3  A    between atoms: C7_9  and  C8_10 
REMARK    4  A    between atoms: C8_10  and  C9_11 
REMARK    5  A    between atoms: C9_11  and  N2_12 
REMARK    6  A    between atoms: N2_12  and  C10_13 
REMARK    7  A    between atoms: C17_21  and  O2_22 
REMARK    8  A    between atoms: O2_22  and  C18_23 
ROOT
HETATM    1  C18 UNL     1      23.090  -0.221  53.167  1.00  0.00     0.299 C 
HETATM    2  C19 UNL     1      22.825  -0.948  54.430  1.00  0.00     0.085 C 
HETATM    3  N3  UNL     1      22.609  -1.501  55.425  1.00  0.00    -0.195 NA
ENDROOT
BRANCH   1   4
HETATM    4  O2  UNL     1      24.393   0.316  53.257  1.00  0.00    -0.336 OA
BRANCH   4   5
HETATM    5  C17 UNL     1      24.809   1.218  52.296  1.00  0.00     0.093 A 
HETATM    6  C4  UNL     1      26.193   1.459  51.917  1.00  0.00     0.064 A 
HETATM    7  C5  UNL     1      26.256   2.377  50.972  1.00  0.00     0.006 A 
HETATM    8  C6  UNL     1      25.334   3.223  50.184  1.00  0.00     0.038 A 
HETATM    9  C7  UNL     1      23.932   2.966  50.589  1.00  0.00     0.016 A 
HETATM   10  C16 UNL     1      23.907   1.933  51.649  1.00  0.00     0.017 A 
BRANCH   6  11
HETATM   11  N1  UNL     1      27.210   0.730  52.577  1.00  0.00    -0.322 N 
HETATM   12  C3  UNL     1      28.087   1.167  53.593  1.00  0.00     0.245 C 
HETATM   13  O1  UNL     1      28.033   2.337  54.033  1.00  0.00    -0.268 OA
HETATM   14  H4  UNL     1      27.360  -0.246  52.308  1.00  0.00     0.169 HD
BRANCH  12  15
HETATM   15  C2  UNL     1      29.095   0.312  54.191  1.00  0.00     0.064 C 
HETATM   16  C1  UNL     1      29.514  -0.775  53.576  1.00  0.00     0.017 C 
ENDBRANCH  12  15
ENDBRANCH   6  11
BRANCH   9  17
HETATM   17  C8  UNL     1      23.158   4.188  50.988  1.00  0.00     0.028 C 
BRANCH  17  18
HETATM   18  C9  UNL     1      23.475   4.699  52.347  1.00  0.00     0.120 C 
BRANCH  18  19
HETATM   19  N2  UNL     1      24.045   6.024  52.227  1.00  0.00    -0.390 N 
HETATM   20  H13 UNL     1      24.375   6.509  53.112  1.00  0.00     0.159 HD
BRANCH  19  21
HETATM   21  C10 UNL     1      24.253   6.825  51.087  1.00  0.00     0.029 A 
HETATM   22  C11 UNL     1      23.304   7.719  50.574  1.00  0.00     0.029 A 
HETATM   23  C12 UNL     1      23.549   8.466  49.447  1.00  0.00     0.004 A 
HETATM   24  C13 UNL     1      24.731   8.386  48.753  1.00  0.00     0.019 A 
HETATM   25  C14 UNL     1      25.690   7.519  49.223  1.00  0.00     0.013 A 
HETATM   26 BR1  UNL     1      27.311   7.435  48.243  1.00  0.00    -0.051 Br
HETATM   27  C15 UNL     1      25.418   6.782  50.357  1.00  0.00     0.048 A 
ENDBRANCH  19  21
ENDBRANCH  18  19
ENDBRANCH  17  18
ENDBRANCH   9  17
ENDBRANCH   4   5
ENDBRANCH   1   4
TORSDOF 8
ENDMDL
MODEL 3
REMARK VINA RESULT:      -7.1      2.170      4.110
REMARK  8 active torsions:
REMARK  status: ('A' for Active; 'I' for Inactive)
REMARK    1  A    between atoms: C2_2  and  C3_3 
REMARK       I    between atoms: C3_3  and  N1_5 
REMARK    2  A    between atoms: N1_5  and  C4_6 
REMARK    3  A    between atoms: C7_9  and  C8_10 
REMARK    4  A    between atoms: C8_10  and  C9_11 
REMARK    5  A    between atoms: C9_11  and  N2_12 
REMARK    6  A    between atoms: N2_12  and  C10_13 
REMARK    7  A    between atoms: C17_21  and  O2_22 
REMARK    8  A    between atoms: O2_22  and  C18_23 
ROOT
HETATM    1  C18 UNL     1      23.072  -0.197  53.024  1.00  0.00     0.299 C 
HETATM    2  C19 UNL     1      22.689  -0.909  54.265  1.00  0.00     0.085 C 
HETATM    3  N3  UNL     1      22.384  -1.450  55.243  1.00  0.00    -0.195 NA
ENDROOT
BRANCH   1   4
HETATM    4  O2  UNL     1      24.438   0.140  53.138  1.00  0.00    -0.336 OA
BRANCH   4   5
HETATM    5  C17 UNL     1      24.979   1.039  52.239  1.00  0.00     0.093 A 
HETATM    6  C4  UNL     1      26.400   1.204  51.971  1.00  0.00     0.064 A 
HETATM    7  C5  UNL     1      26.590   2.140  51.061  1.00  0.00     0.006 A 
HETATM    8  C6  UNL     1      25.782   3.062  50.233  1.00  0.00     0.038 A 
HETATM    9  C7  UNL     1      24.340   2.881  50.525  1.00  0.00     0.016 A 
HETATM   10  C16 UNL     1      24.173   1.824  51.547  1.00  0.00     0.017 A 
BRANCH   6  11
HETATM   11  N1  UNL     1      27.319   0.397  52.683  1.00  0.00    -0.322 N 
HETATM   12  C3  UNL     1      28.170   0.763  53.747  1.00  0.00     0.245 C 
HETATM   13  O1  UNL     1      28.183   1.933  54.189  1.00  0.00    -0.268 OA
HETATM   14  H4  UNL     1      27.407  -0.588  52.417  1.00  0.00     0.169 HD
BRANCH  12  15
HETATM   15  C2  UNL     1      29.073  -0.169  54.396  1.00  0.00     0.064 C 
HETATM   16  C1  UNL     1      29.958  -0.852  53.699  1.00  0.00     0.017 C 
ENDBRANCH  12  15
ENDBRANCH   6  11
BRANCH   9  17
HETATM   17  C8  UNL     1      23.613   4.138  50.902  1.00  0.00     0.028 C 
BRANCH  17  18
HETATM   18  C9  UNL     1      23.264   4.238  52.343  1.00  0.00     0.120 C 
BRANCH  18  19
HETATM   19  N2  UNL     1      21.841   4.468  52.465  1.00  0.00    -0.390 N 
HETATM   20  H13 UNL     1      21.517   5.347  52.964  1.00  0.00     0.159 HD
BRANCH  19  21
HETATM   21  C10 UNL     1      20.752   3.694  52.015  1.00  0.00     0.029 A 
HETATM   22  C11 UNL     1      19.778   4.157  51.121  1.00  0.00     0.029 A 
HETATM   23  C12 UNL     1      18.726   3.367  50.726  1.00  0.00     0.004 A 
HETATM   24  C13 UNL     1      18.559   2.082  51.178  1.00  0.00     0.019 A 
HETATM   25  C14 UNL     1      19.494   1.588  52.059  1.00  0.00     0.013 A 
HETATM   26 BR1  UNL     1      19.235  -0.190  52.662  1.00  0.00    -0.051 Br
HETATM   27  C15 UNL     1      20.540   2.402  52.438  1.00  0.00     0.048 A 
ENDBRANCH  19  21
ENDBRANCH  18  19
ENDBRANCH  17  18
ENDBRANCH   9  17
ENDBRANCH   4   5
ENDBRANCH   1   4
TORSDOF 8
ENDMDL
MODEL 4
REMARK VINA RESULT:      -6.8      1.601      2.037
REMARK  8 active torsions:
REMARK  status: ('A' for Active; 'I' for Inactive)
REMARK    1  A    between atoms: C2_2  and  C3_3 
REMARK       I    between atoms: C3_3  and  N1_5 
REMARK    2  A    between atoms: N1_5  and  C4_6 
REMARK    3  A    between atoms: C7_9  and  C8_10 
REMARK    4  A    between atoms: C8_10  and  C9_11 
REMARK    5  A    between atoms: C9_11  and  N2_12 
REMARK    6  A    between atoms: N2_12  and  C10_13 
REMARK    7  A    between atoms: C17_21  and  O2_22 
REMARK    8  A    between atoms: O2_22  and  C18_23 
ROOT
HETATM    1  C18 UNL     1      24.271   2.566  50.940  1.00  0.00     0.299 C 
HETATM    2  C19 UNL     1      24.114   4.004  51.259  1.00  0.00     0.085 C 
HETATM    3  N3  UNL     1      24.006   5.133  51.499  1.00  0.00    -0.195 NA
ENDROOT
BRANCH   1   4
HETATM    4  O2  UNL     1      24.975   1.973  52.011  1.00  0.00    -0.336 OA
BRANCH   4   5
HETATM    5  C17 UNL     1      24.335   1.022  52.782  1.00  0.00     0.093 A 
HETATM    6  C4  UNL     1      24.989  -0.092  53.451  1.00  0.00     0.064 A 
HETATM    7  C5  UNL     1      24.103  -0.818  54.106  1.00  0.00     0.006 A 
HETATM    8  C6  UNL     1      22.647  -0.825  54.363  1.00  0.00     0.038 A 
HETATM    9  C7  UNL     1      22.001   0.314  53.668  1.00  0.00     0.016 A 
HETATM   10  C16 UNL     1      23.027   1.099  52.948  1.00  0.00     0.017 A 
BRANCH   6  11
HETATM   11  N1  UNL     1      26.390  -0.237  53.309  1.00  0.00    -0.322 N 
HETATM   12  C3  UNL     1      27.416   0.323  54.099  1.00  0.00     0.245 C 
HETATM   13  O1  UNL     1      27.150   1.057  55.076  1.00  0.00    -0.268 OA
HETATM   14  H4  UNL     1      26.741  -0.816  52.542  1.00  0.00     0.169 HD
BRANCH  12  15
HETATM   15  C2  UNL     1      28.826   0.094  53.844  1.00  0.00     0.064 C 
HETATM   16  C1  UNL     1      29.276  -1.110  53.558  1.00  0.00     0.017 C 
ENDBRANCH  12  15
ENDBRANCH   6  11
BRANCH   9  17
HETATM   17  C8  UNL     1      20.859  -0.064  52.770  1.00  0.00     0.028 C 
BRANCH  17  18
HETATM   18  C9  UNL     1      19.903   1.039  52.495  1.00  0.00     0.120 C 
BRANCH  18  19
HETATM   19  N2  UNL     1      19.677   1.118  51.067  1.00  0.00    -0.390 N 
HETATM   20  H13 UNL     1      18.798   0.671  50.674  1.00  0.00     0.159 HD
BRANCH  19  21
HETATM   21  C10 UNL     1      20.456   1.713  50.055  1.00  0.00     0.029 A 
HETATM   22  C11 UNL     1      21.246   0.995  49.149  1.00  0.00     0.029 A 
HETATM   23  C12 UNL     1      22.001   1.624  48.189  1.00  0.00     0.004 A 
HETATM   24  C13 UNL     1      22.033   2.990  48.056  1.00  0.00     0.019 A 
HETATM   25  C14 UNL     1      21.271   3.735  48.927  1.00  0.00     0.013 A 
HETATM   26 BR1  UNL     1      21.336   5.617  48.716  1.00  0.00    -0.051 Br
HETATM   27  C15 UNL     1      20.522   3.076  49.880  1.00  0.00     0.048 A 
ENDBRANCH  19  21
ENDBRANCH  18  19
ENDBRANCH  17  18
ENDBRANCH   9  17
ENDBRANCH   4   5
ENDBRANCH   1   4
TORSDOF 8
ENDMDL
MODEL 5
REMARK VINA RESULT:      -6.7      2.809      3.525
REMARK  8 active torsions:
REMARK  status: ('A' for Active; 'I' for Inactive)
REMARK    1  A    between atoms: C2_2  and  C3_3 
REMARK       I    between atoms: C3_3  and  N1_5 
REMARK    2  A    between atoms: N1_5  and  C4_6 
REMARK    3  A    between atoms: C7_9  and  C8_10 
REMARK    4  A    between atoms: C8_10  and  C9_11 
REMARK    5  A    between atoms: C9_11  and  N2_12 
REMARK    6  A    between atoms: N2_12  and  C10_13 
REMARK    7  A    between atoms: C17_21  and  O2_22 
REMARK    8  A    between atoms: O2_22  and  C18_23 
ROOT
HETATM    1  C18 UNL     1      25.782   3.070  49.904  1.00  0.00     0.299 C 
HETATM    2  C19 UNL     1      26.854   3.899  49.304  1.00  0.00     0.085 C 
HETATM    3  N3  UNL     1      27.699   4.531  48.825  1.00  0.00    -0.195 NA
ENDROOT
BRANCH   1   4
HETATM    4  O2  UNL     1      26.237   2.651  51.173  1.00  0.00    -0.336 OA
BRANCH   4   5
HETATM    5  C17 UNL     1      25.418   1.845  51.940  1.00  0.00     0.093 A 
HETATM    6  C4  UNL     1      25.865   0.707  52.730  1.00  0.00     0.064 A 
HETATM    7  C5  UNL     1      24.842   0.147  53.347  1.00  0.00     0.006 A 
HETATM    8  C6  UNL     1      23.382   0.343  53.475  1.00  0.00     0.038 A 
HETATM    9  C7  UNL     1      22.948   1.503  52.660  1.00  0.00     0.016 A 
HETATM   10  C16 UNL     1      24.123   2.099  51.987  1.00  0.00     0.017 A 
BRANCH   6  11
HETATM   11  N1  UNL     1      27.241   0.376  52.719  1.00  0.00    -0.322 N 
HETATM   12  C3  UNL     1      28.165   0.426  53.784  1.00  0.00     0.245 C 
HETATM   13  O1  UNL     1      27.815   0.798  54.926  1.00  0.00    -0.268 OA
HETATM   14  H4  UNL     1      27.655   0.056  51.840  1.00  0.00     0.169 HD
BRANCH  12  15
HETATM   15  C2  UNL     1      29.561   0.056  53.639  1.00  0.00     0.064 C 
HETATM   16  C1  UNL     1      29.924  -1.208  53.577  1.00  0.00     0.017 C 
ENDBRANCH  12  15
ENDBRANCH   6  11
BRANCH   9  17
HETATM   17  C8  UNL     1      21.842   1.210  51.690  1.00  0.00     0.028 C 
BRANCH  17  18
HETATM   18  C9  UNL     1      21.143  -0.080  51.926  1.00  0.00     0.120 C 
BRANCH  18  19
HETATM   19  N2  UNL     1      19.774   0.193  52.308  1.00  0.00    -0.390 N 
HETATM   20  H13 UNL     1      19.597   0.629  53.259  1.00  0.00     0.159 HD
BRANCH  19  21
HETATM   21  C10 UNL     1      18.573  -0.028  51.605  1.00  0.00     0.029 A 
HETATM   22  C11 UNL     1      18.299   0.498  50.336  1.00  0.00     0.029 A 
HETATM   23  C12 UNL     1      17.104   0.268  49.699  1.00  0.00     0.004 A 
HETATM   24  C13 UNL     1      16.104  -0.487  50.260  1.00  0.00     0.019 A 
HETATM   25  C14 UNL     1      16.331  -1.022  51.507  1.00  0.00     0.013 A 
HETATM   26 BR1  UNL     1      14.931  -2.060  52.253  1.00  0.00    -0.051 Br
HETATM   27  C15 UNL     1      17.541  -0.775  52.123  1.00  0.00     0.048 A 
ENDBRANCH  19  21
ENDBRANCH  18  19
ENDBRANCH  17  18
ENDBRANCH   9  17
ENDBRANCH   4   5
ENDBRANCH   1   4
TORSDOF 8
ENDMDL
MODEL 6
REMARK VINA RESULT:      -6.7      5.408      8.038
REMARK  8 active torsions:
REMARK  status: ('A' for Active; 'I' for Inactive)
REMARK    1  A    between atoms: C2_2  and  C3_3 
REMARK       I    between atoms: C3_3  and  N1_5 
REMARK    2  A    between atoms: N1_5  and  C4_6 
REMARK    3  A    between atoms: C7_9  and  C8_10 
REMARK    4  A    between atoms: C8_10  and  C9_11 
REMARK    5  A    between atoms: C9_11  and  N2_12 
REMARK    6  A    between atoms: N2_12  and  C10_13 
REMARK    7  A    between atoms: C17_21  and  O2_22 
REMARK    8  A    between atoms: O2_22  and  C18_23 
ROOT
HETATM    1  C18 UNL     1      27.251   9.083  49.933  1.00  0.00     0.299 C 
HETATM    2  C19 UNL     1      28.176  10.069  49.326  1.00  0.00     0.085 C 
HETATM    3  N3  UNL     1      28.886  10.852  48.851  1.00  0.00    -0.195 NA
ENDROOT
BRANCH   1   4
HETATM    4  O2  UNL     1      26.717   8.306  48.882  1.00  0.00    -0.336 OA
BRANCH   4   5
HETATM    5  C17 UNL     1      26.880   6.935  48.920  1.00  0.00     0.093 A 
HETATM    6  C4  UNL     1      27.939   6.198  48.245  1.00  0.00     0.064 A 
HETATM    7  C5  UNL     1      27.818   4.905  48.478  1.00  0.00     0.006 A 
HETATM    8  C6  UNL     1      26.929   3.992  49.228  1.00  0.00     0.038 A 
HETATM    9  C7  UNL     1      25.857   4.762  49.902  1.00  0.00     0.016 A 
HETATM   10  C16 UNL     1      26.029   6.203  49.615  1.00  0.00     0.017 A 
BRANCH   6  11
HETATM   11  N1  UNL     1      28.882   6.922  47.478  1.00  0.00    -0.322 N 
HETATM   12  C3  UNL     1      30.166   7.368  47.856  1.00  0.00     0.245 C 
HETATM   13  O1  UNL     1      30.617   7.140  49.000  1.00  0.00    -0.268 OA
HETATM   14  H4  UNL     1      28.633   7.175  46.517  1.00  0.00     0.169 HD
BRANCH  12  15
HETATM   15  C2  UNL     1      31.041   8.108  46.966  1.00  0.00     0.064 C 
HETATM   16  C1  UNL     1      31.403   7.609  45.802  1.00  0.00     0.017 C 
ENDBRANCH  12  15
ENDBRANCH   6  11
BRANCH   9  17
HETATM   17  C8  UNL     1      24.463   4.297  49.596  1.00  0.00     0.028 C 
BRANCH  17  18
HETATM   18  C9  UNL     1      23.652   3.956  50.794  1.00  0.00     0.120 C 
BRANCH  18  19
HETATM   19  N2  UNL     1      24.534   3.461  51.829  1.00  0.00    -0.390 N 
HETATM   20  H13 UNL     1      25.115   4.164  52.371  1.00  0.00     0.159 HD
BRANCH  19  21
HETATM   21  C10 UNL     1      24.768   2.143  52.270  1.00  0.00     0.029 A 
HETATM   22  C11 UNL     1      25.968   1.450  52.067  1.00  0.00     0.029 A 
HETATM   23  C12 UNL     1      26.141   0.159  52.502  1.00  0.00     0.004 A 
HETATM   24  C13 UNL     1      25.156  -0.535  53.159  1.00  0.00     0.019 A 
HETATM   25  C14 UNL     1      23.959   0.108  53.378  1.00  0.00     0.013 A 
HETATM   26 BR1  UNL     1      22.621  -0.877  54.290  1.00  0.00    -0.051 Br
HETATM   27  C15 UNL     1      23.814   1.405  52.932  1.00  0.00     0.048 A 
ENDBRANCH  19  21
ENDBRANCH  18  19
ENDBRANCH  17  18
ENDBRANCH   9  17
ENDBRANCH   4   5
ENDBRANCH   1   4
TORSDOF 8
ENDMDL
MODEL 7
REMARK VINA RESULT:      -6.3      3.460      6.621
REMARK  8 active torsions:
REMARK  status: ('A' for Active; 'I' for Inactive)
REMARK    1  A    between atoms: C2_2  and  C3_3 
REMARK       I    between atoms: C3_3  and  N1_5 
REMARK    2  A    between atoms: N1_5  and  C4_6 
REMARK    3  A    between atoms: C7_9  and  C8_10 
REMARK    4  A    between atoms: C8_10  and  C9_11 
REMARK    5  A    between atoms: C9_11  and  N2_12 
REMARK    6  A    between atoms: N2_12  and  C10_13 
REMARK    7  A    between atoms: C17_21  and  O2_22 
REMARK    8  A    between atoms: O2_22  and  C18_23 
ROOT
HETATM    1  C18 UNL     1      23.652   3.615  49.209  1.00  0.00     0.299 C 
HETATM    2  C19 UNL     1      22.945   2.659  48.324  1.00  0.00     0.085 C 
HETATM    3  N3  UNL     1      22.376   1.919  47.637  1.00  0.00    -0.195 NA
ENDROOT
BRANCH   1   4
HETATM    4  O2  UNL     1      23.844   2.973  50.452  1.00  0.00    -0.336 OA
BRANCH   4   5
HETATM    5  C17 UNL     1      22.735   2.560  51.165  1.00  0.00     0.093 A 
HETATM    6  C4  UNL     1      21.782   3.444  51.819  1.00  0.00     0.064 A 
HETATM    7  C5  UNL     1      20.837   2.742  52.414  1.00  0.00     0.006 A 
HETATM    8  C6  UNL     1      20.462   1.323  52.603  1.00  0.00     0.038 A 
HETATM    9  C7  UNL     1      21.447   0.441  51.933  1.00  0.00     0.016 A 
HETATM   10  C16 UNL     1      22.486   1.268  51.281  1.00  0.00     0.017 A 
BRANCH   6  11
HETATM   11  N1  UNL     1      21.993   4.841  51.739  1.00  0.00    -0.322 N 
HETATM   12  C3  UNL     1      21.351   5.780  50.905  1.00  0.00     0.245 C 
HETATM   13  O1  UNL     1      20.464   5.426  50.097  1.00  0.00    -0.268 OA
HETATM   14  H4  UNL     1      22.698   5.261  52.351  1.00  0.00     0.169 HD
BRANCH  12  15
HETATM   15  C2  UNL     1      21.663   7.198  50.921  1.00  0.00     0.064 C 
HETATM   16  C1  UNL     1      21.656   7.905  49.810  1.00  0.00     0.017 C 
ENDBRANCH  12  15
ENDBRANCH   6  11
BRANCH   9  17
HETATM   17  C8  UNL     1      22.049  -0.612  52.816  1.00  0.00     0.028 C 
BRANCH  17  18
HETATM   18  C9  UNL     1      22.991  -0.090  53.840  1.00  0.00     0.120 C 
BRANCH  18  19
HETATM   19  N2  UNL     1      24.316  -0.602  53.559  1.00  0.00    -0.390 N 
HETATM   20  H13 UNL     1      24.425  -1.644  53.390  1.00  0.00     0.159 HD
BRANCH  19  21
HETATM   21  C10 UNL     1      25.550   0.072  53.465  1.00  0.00     0.029 A 
HETATM   22  C11 UNL     1      25.676   1.455  53.280  1.00  0.00     0.029 A 
HETATM   23  C12 UNL     1      26.904   2.062  53.177  1.00  0.00     0.004 A 
HETATM   24  C13 UNL     1      28.081   1.360  53.246  1.00  0.00     0.019 A 
HETATM   25  C14 UNL     1      28.003  -0.002  53.427  1.00  0.00     0.013 A 
HETATM   26 BR1  UNL     1      29.646  -0.942  53.520  1.00  0.00    -0.051 Br
HETATM   27  C15 UNL     1      26.757  -0.586  53.528  1.00  0.00     0.048 A 
ENDBRANCH  19  21
ENDBRANCH  18  19
ENDBRANCH  17  18
ENDBRANCH   9  17
ENDBRANCH   4   5
ENDBRANCH   1   4
TORSDOF 8
ENDMDL
MODEL 8
REMARK VINA RESULT:      -6.3      3.288      7.514
REMARK  8 active torsions:
REMARK  status: ('A' for Active; 'I' for Inactive)
REMARK    1  A    between atoms: C2_2  and  C3_3 
REMARK       I    between atoms: C3_3  and  N1_5 
REMARK    2  A    between atoms: N1_5  and  C4_6 
REMARK    3  A    between atoms: C7_9  and  C8_10 
REMARK    4  A    between atoms: C8_10  and  C9_11 
REMARK    5  A    between atoms: C9_11  and  N2_12 
REMARK    6  A    between atoms: N2_12  and  C10_13 
REMARK    7  A    between atoms: C17_21  and  O2_22 
REMARK    8  A    between atoms: O2_22  and  C18_23 
ROOT
HETATM    1  C18 UNL     1      20.246   2.311  48.905  1.00  0.00     0.299 C 
HETATM    2  C19 UNL     1      21.129   2.767  47.806  1.00  0.00     0.085 C 
HETATM    3  N3  UNL     1      21.807   3.116  46.933  1.00  0.00    -0.195 NA
ENDROOT
BRANCH   1   4
HETATM    4  O2  UNL     1      20.717   1.048  49.325  1.00  0.00    -0.336 OA
BRANCH   4   5
HETATM    5  C17 UNL     1      21.159   0.902  50.625  1.00  0.00     0.093 A 
HETATM    6  C4  UNL     1      20.336   0.474  51.747  1.00  0.00     0.064 A 
HETATM    7  C5  UNL     1      21.054   0.434  52.853  1.00  0.00     0.006 A 
HETATM    8  C6  UNL     1      22.446   0.689  53.282  1.00  0.00     0.038 A 
HETATM    9  C7  UNL     1      23.264   1.127  52.127  1.00  0.00     0.016 A 
HETATM   10  C16 UNL     1      22.423   1.159  50.910  1.00  0.00     0.017 A 
BRANCH   6  11
HETATM   11  N1  UNL     1      18.970   0.188  51.512  1.00  0.00    -0.322 N 
HETATM   12  C3  UNL     1      18.125  -0.698  52.212  1.00  0.00     0.245 C 
HETATM   13  O1  UNL     1      18.548  -1.362  53.184  1.00  0.00    -0.268 OA
HETATM   14  H4  UNL     1      18.501   0.668  50.739  1.00  0.00     0.169 HD
BRANCH  12  15
HETATM   15  C2  UNL     1      16.730  -0.901  51.866  1.00  0.00     0.064 C 
HETATM   16  C1  UNL     1      15.809  -0.030  52.224  1.00  0.00     0.017 C 
ENDBRANCH  12  15
ENDBRANCH   6  11
BRANCH   9  17
HETATM   17  C8  UNL     1      23.995   2.422  52.330  1.00  0.00     0.028 C 
BRANCH  17  18
HETATM   18  C9  UNL     1      25.226   2.568  51.511  1.00  0.00     0.120 C 
BRANCH  18  19
HETATM   19  N2  UNL     1      26.359   2.738  52.395  1.00  0.00    -0.390 N 
HETATM   20  H13 UNL     1      26.570   3.714  52.757  1.00  0.00     0.159 HD
BRANCH  19  21
HETATM   21  C10 UNL     1      27.278   1.790  52.889  1.00  0.00     0.029 A 
HETATM   22  C11 UNL     1      28.427   2.119  53.618  1.00  0.00     0.029 A 
HETATM   23  C12 UNL     1      29.301   1.157  54.063  1.00  0.00     0.004 A 
HETATM   24  C13 UNL     1      29.109  -0.180  53.823  1.00  0.00     0.019 A 
HETATM   25  C14 UNL     1      27.992  -0.547  53.108  1.00  0.00     0.013 A 
HETATM   26 BR1  UNL     1      27.756  -2.402  52.795  1.00  0.00    -0.051 Br
HETATM   27  C15 UNL     1      27.131   0.439  52.675  1.00  0.00     0.048 A 
ENDBRANCH  19  21
ENDBRANCH  18  19
ENDBRANCH  17  18
ENDBRANCH   9  17
ENDBRANCH   4   5
ENDBRANCH   1   4
TORSDOF 8
ENDMDL
MODEL 9
REMARK VINA RESULT:      -6.3      2.966      7.393
REMARK  8 active torsions:
REMARK  status: ('A' for Active; 'I' for Inactive)
REMARK    1  A    between atoms: C2_2  and  C3_3 
REMARK       I    between atoms: C3_3  and  N1_5 
REMARK    2  A    between atoms: N1_5  and  C4_6 
REMARK    3  A    between atoms: C7_9  and  C8_10 
REMARK    4  A    between atoms: C8_10  and  C9_11 
REMARK    5  A    between atoms: C9_11  and  N2_12 
REMARK    6  A    between atoms: N2_12  and  C10_13 
REMARK    7  A    between atoms: C17_21  and  O2_22 
REMARK    8  A    between atoms: O2_22  and  C18_23 
ROOT
HETATM    1  C18 UNL     1      22.518   0.240  53.874  1.00  0.00     0.299 C 
HETATM    2  C19 UNL     1      22.348  -0.977  54.702  1.00  0.00     0.085 C 
HETATM    3  N3  UNL     1      22.231  -1.937  55.341  1.00  0.00    -0.195 NA
ENDROOT
BRANCH   1   4
HETATM    4  O2  UNL     1      21.681   0.099  52.746  1.00  0.00    -0.336 OA
BRANCH   4   5
HETATM    5  C17 UNL     1      21.665   1.106  51.800  1.00  0.00     0.093 A 
HETATM    6  C4  UNL     1      20.553   1.402  50.909  1.00  0.00     0.064 A 
HETATM    7  C5  UNL     1      20.850   2.421  50.126  1.00  0.00     0.006 A 
HETATM    8  C6  UNL     1      21.977   3.351  49.896  1.00  0.00     0.038 A 
HETATM    9  C7  UNL     1      23.099   3.030  50.809  1.00  0.00     0.016 A 
HETATM   10  C16 UNL     1      22.725   1.884  51.667  1.00  0.00     0.017 A 
BRANCH   6  11
HETATM   11  N1  UNL     1      19.388   0.602  50.995  1.00  0.00    -0.322 N 
HETATM   12  C3  UNL     1      18.069   1.001  51.294  1.00  0.00     0.245 C 
HETATM   13  O1  UNL     1      17.794   2.198  51.528  1.00  0.00    -0.268 OA
HETATM   14  H4  UNL     1      19.478  -0.404  50.826  1.00  0.00     0.169 HD
BRANCH  12  15
HETATM   15  C2  UNL     1      16.954   0.073  51.352  1.00  0.00     0.064 C 
HETATM   16  C1  UNL     1      17.045  -1.053  52.028  1.00  0.00     0.017 C 
ENDBRANCH  12  15
ENDBRANCH   6  11
BRANCH   9  17
HETATM   17  C8  UNL     1      24.418   2.806  50.129  1.00  0.00     0.028 C 
BRANCH  17  18
HETATM   18  C9  UNL     1      25.495   3.736  50.558  1.00  0.00     0.120 C 
BRANCH  18  19
HETATM   19  N2  UNL     1      26.534   2.974  51.219  1.00  0.00    -0.390 N 
HETATM   20  H13 UNL     1      27.544   3.182  50.967  1.00  0.00     0.159 HD
BRANCH  19  21
HETATM   21  C10 UNL     1      26.438   1.956  52.188  1.00  0.00     0.029 A 
HETATM   22  C11 UNL     1      26.095   2.179  53.528  1.00  0.00     0.029 A 
HETATM   23  C12 UNL     1      26.032   1.153  54.439  1.00  0.00     0.004 A 
HETATM   24  C13 UNL     1      26.300  -0.150  54.101  1.00  0.00     0.019 A 
HETATM   25  C14 UNL     1      26.642  -0.413  52.794  1.00  0.00     0.013 A 
HETATM   26 BR1  UNL     1      27.004  -2.222  52.360  1.00  0.00    -0.051 Br
HETATM   27  C15 UNL     1      26.697   0.636  51.900  1.00  0.00     0.048 A 
ENDBRANCH  19  21
ENDBRANCH  18  19
ENDBRANCH  17  18
ENDBRANCH   9  17
ENDBRANCH   4   5
ENDBRANCH   1   4
TORSDOF 8
ENDMDL
