MODEL 1
REMARK VINA RESULT:      -7.8      0.000      0.000
REMARK  5 active torsions:
REMARK  status: ('A' for Active; 'I' for Inactive)
REMARK       I    between atoms: C2_2  and  N1_4 
REMARK    1  A    between atoms: N1_4  and  C3_5 
REMARK    2  A    between atoms: C8_10  and  N2_11 
REMARK    3  A    between atoms: N2_11  and  C9_12 
REMARK    4  A    between atoms: N3_13  and  C10_14 
REMARK    5  A    between atoms: C11_15  and  C12_16 
ROOT
HETATM    1  C3  UNL     1      25.251  -0.763  54.295  1.00  0.00     0.036 A 
HETATM    2  C4  UNL     1      24.455  -1.256  55.300  1.00  0.00     0.030 A 
HETATM    3  C5  UNL     1      23.080  -1.179  55.340  1.00  0.00     0.011 A 
HETATM    4  C6  UNL     1      22.427  -0.560  54.288  1.00  0.00    -0.035 A 
HETATM    5  C7  UNL     1      20.947  -0.454  54.290  1.00  0.00     0.050 C 
HETATM    6  C8  UNL     1      23.201  -0.054  53.263  1.00  0.00     0.041 A 
HETATM    7  C17 UNL     1      24.576  -0.152  53.263  1.00  0.00     0.059 A 
ENDROOT
BRANCH   6   8
HETATM    8  N2  UNL     1      22.484   0.566  52.208  1.00  0.00    -0.350 N 
HETATM    9  H10 UNL     1      21.672   0.005  51.814  1.00  0.00     0.166 HD
BRANCH   8  10
HETATM   10  C9  UNL     1      22.868   1.853  51.745  1.00  0.00     0.207 C 
HETATM   11  N3  UNL     1      23.220   2.779  52.602  1.00  0.00    -0.256 NA
BRANCH  11  12
HETATM   12  C10 UNL     1      23.587   4.035  52.062  1.00  0.00     0.115 C 
HETATM   13  C11 UNL     1      24.177   4.609  51.045  1.00  0.00     0.011 C 
BRANCH  13  14
HETATM   14  C12 UNL     1      24.835   4.182  49.799  1.00  0.00     0.028 A 
HETATM   15  C13 UNL     1      23.788   3.626  48.832  1.00  0.00     0.030 C 
HETATM   16  C14 UNL     1      25.495   5.344  49.103  1.00  0.00     0.011 A 
HETATM   17  C15 UNL     1      26.780   5.038  48.947  1.00  0.00     0.113 A 
HETATM   18  N4  UNL     1      27.036   3.746  49.491  1.00  0.00    -0.276 NA
HETATM   19  C16 UNL     1      25.944   3.236  49.984  1.00  0.00     0.106 A 
ENDBRANCH  13  14
ENDBRANCH  11  12
ENDBRANCH   8  10
ENDBRANCH   6   8
BRANCH   1  20
HETATM   20  N1  UNL     1      26.662  -0.836  54.233  1.00  0.00    -0.327 N 
HETATM   21  C2  UNL     1      27.636   0.133  54.494  1.00  0.00     0.218 C 
HETATM   22  C1  UNL     1      29.102  -0.108  54.379  1.00  0.00     0.117 C 
HETATM   23  O1  UNL     1      27.255   1.275  54.846  1.00  0.00    -0.274 OA
HETATM   24  H4  UNL     1      27.101  -1.755  53.945  1.00  0.00     0.169 HD
ENDBRANCH   1  20
TORSDOF 5
ENDMDL
MODEL 2
REMARK VINA RESULT:      -7.5      1.791      2.975
REMARK  5 active torsions:
REMARK  status: ('A' for Active; 'I' for Inactive)
REMARK       I    between atoms: C2_2  and  N1_4 
REMARK    1  A    between atoms: N1_4  and  C3_5 
REMARK    2  A    between atoms: C8_10  and  N2_11 
REMARK    3  A    between atoms: N2_11  and  C9_12 
REMARK    4  A    between atoms: N3_13  and  C10_14 
REMARK    5  A    between atoms: C11_15  and  C12_16 
ROOT
HETATM    1  C3  UNL     1      26.297  -0.061  52.983  1.00  0.00     0.036 A 
HETATM    2  C4  UNL     1      25.246  -0.613  53.674  1.00  0.00     0.030 A 
HETATM    3  C5  UNL     1      23.938  -0.186  53.612  1.00  0.00     0.011 A 
HETATM    4  C6  UNL     1      23.636   0.886  52.789  1.00  0.00    -0.035 A 
HETATM    5  C7  UNL     1      22.240   1.379  52.692  1.00  0.00     0.050 C 
HETATM    6  C8  UNL     1      24.672   1.461  52.081  1.00  0.00     0.041 A 
HETATM    7  C17 UNL     1      25.969   1.002  52.173  1.00  0.00     0.059 A 
ENDROOT
BRANCH   6   8
HETATM    8  N2  UNL     1      24.310   2.551  51.249  1.00  0.00    -0.350 N 
HETATM    9  H10 UNL     1      23.273   2.640  51.036  1.00  0.00     0.166 HD
BRANCH   8  10
HETATM   10  C9  UNL     1      25.307   3.436  50.759  1.00  0.00     0.207 C 
HETATM   11  N3  UNL     1      25.798   3.267  49.555  1.00  0.00    -0.256 NA
BRANCH  11  12
HETATM   12  C10 UNL     1      26.789   4.189  49.142  1.00  0.00     0.115 C 
HETATM   13  C11 UNL     1      26.993   5.445  48.836  1.00  0.00     0.011 C 
BRANCH  13  14
HETATM   14  C12 UNL     1      26.196   6.679  48.761  1.00  0.00     0.028 A 
HETATM   15  C13 UNL     1      26.769   7.595  47.678  1.00  0.00     0.030 C 
HETATM   16  C14 UNL     1      24.770   6.387  48.373  1.00  0.00     0.011 A 
HETATM   17  C15 UNL     1      23.986   6.886  49.325  1.00  0.00     0.113 A 
HETATM   18  N4  UNL     1      24.786   7.498  50.334  1.00  0.00    -0.276 NA
HETATM   19  C16 UNL     1      26.049   7.394  50.037  1.00  0.00     0.106 A 
ENDBRANCH  13  14
ENDBRANCH  11  12
ENDBRANCH   8  10
ENDBRANCH   6   8
BRANCH   1  20
HETATM   20  N1  UNL     1      27.645  -0.487  53.028  1.00  0.00    -0.327 N 
HETATM   21  C2  UNL     1      28.671  -0.167  53.922  1.00  0.00     0.218 C 
HETATM   22  C1  UNL     1      30.056  -0.708  53.828  1.00  0.00     0.117 C 
HETATM   23  O1  UNL     1      28.413   0.625  54.859  1.00  0.00    -0.274 OA
HETATM   24  H4  UNL     1      27.980  -1.160  52.283  1.00  0.00     0.169 HD
ENDBRANCH   1  20
TORSDOF 5
ENDMDL
MODEL 3
REMARK VINA RESULT:      -7.3      2.520      4.704
REMARK  5 active torsions:
REMARK  status: ('A' for Active; 'I' for Inactive)
REMARK       I    between atoms: C2_2  and  N1_4 
REMARK    1  A    between atoms: N1_4  and  C3_5 
REMARK    2  A    between atoms: C8_10  and  N2_11 
REMARK    3  A    between atoms: N2_11  and  C9_12 
REMARK    4  A    between atoms: N3_13  and  C10_14 
REMARK    5  A    between atoms: C11_15  and  C12_16 
ROOT
HETATM    1  C3  UNL     1      20.959   0.558  52.553  1.00  0.00     0.036 A 
HETATM    2  C4  UNL     1      20.440  -0.203  53.572  1.00  0.00     0.030 A 
HETATM    3  C5  UNL     1      21.176  -0.859  54.533  1.00  0.00     0.011 A 
HETATM    4  C6  UNL     1      22.556  -0.755  54.487  1.00  0.00    -0.035 A 
HETATM    5  C7  UNL     1      23.388  -1.446  55.502  1.00  0.00     0.050 C 
HETATM    6  C8  UNL     1      23.107   0.003  53.474  1.00  0.00     0.041 A 
HETATM    7  C17 UNL     1      22.332   0.644  52.531  1.00  0.00     0.059 A 
ENDROOT
BRANCH   6   8
HETATM    8  N2  UNL     1      24.523   0.084  53.475  1.00  0.00    -0.350 N 
HETATM    9  H10 UNL     1      25.027  -0.707  53.975  1.00  0.00     0.166 HD
BRANCH   8  10
HETATM   10  C9  UNL     1      25.176   1.171  52.834  1.00  0.00     0.207 C 
HETATM   11  N3  UNL     1      25.973   0.948  51.817  1.00  0.00    -0.256 NA
BRANCH  11  12
HETATM   12  C10 UNL     1      26.586   2.084  51.235  1.00  0.00     0.115 C 
HETATM   13  C11 UNL     1      26.339   3.206  50.609  1.00  0.00     0.011 C 
BRANCH  13  14
HETATM   14  C12 UNL     1      25.153   3.940  50.140  1.00  0.00     0.028 A 
HETATM   15  C13 UNL     1      25.590   5.094  49.235  1.00  0.00     0.030 C 
HETATM   16  C14 UNL     1      24.254   3.058  49.313  1.00  0.00     0.011 A 
HETATM   17  C15 UNL     1      23.051   3.070  49.880  1.00  0.00     0.113 A 
HETATM   18  N4  UNL     1      23.074   3.902  51.037  1.00  0.00    -0.276 NA
HETATM   19  C16 UNL     1      24.261   4.410  51.207  1.00  0.00     0.106 A 
ENDBRANCH  13  14
ENDBRANCH  11  12
ENDBRANCH   8  10
ENDBRANCH   6   8
BRANCH   1  20
HETATM   20  N1  UNL     1      20.221   1.243  51.560  1.00  0.00    -0.327 N 
HETATM   21  C2  UNL     1      19.684   2.533  51.553  1.00  0.00     0.218 C 
HETATM   22  C1  UNL     1      18.921   3.112  50.411  1.00  0.00     0.117 C 
HETATM   23  O1  UNL     1      19.853   3.250  52.568  1.00  0.00    -0.274 OA
HETATM   24  H4  UNL     1      20.015   0.736  50.654  1.00  0.00     0.169 HD
ENDBRANCH   1  20
TORSDOF 5
ENDMDL
MODEL 4
REMARK VINA RESULT:      -7.2      2.663      6.381
REMARK  5 active torsions:
REMARK  status: ('A' for Active; 'I' for Inactive)
REMARK       I    between atoms: C2_2  and  N1_4 
REMARK    1  A    between atoms: N1_4  and  C3_5 
REMARK    2  A    between atoms: C8_10  and  N2_11 
REMARK    3  A    between atoms: N2_11  and  C9_12 
REMARK    4  A    between atoms: N3_13  and  C10_14 
REMARK    5  A    between atoms: C11_15  and  C12_16 
ROOT
HETATM    1  C3  UNL     1      25.671   5.515  49.945  1.00  0.00     0.036 A 
HETATM    2  C4  UNL     1      25.049   6.589  50.533  1.00  0.00     0.030 A 
HETATM    3  C5  UNL     1      23.748   6.607  50.987  1.00  0.00     0.011 A 
HETATM    4  C6  UNL     1      22.989   5.458  50.850  1.00  0.00    -0.035 A 
HETATM    5  C7  UNL     1      21.583   5.434  51.324  1.00  0.00     0.050 C 
HETATM    6  C8  UNL     1      23.587   4.362  50.262  1.00  0.00     0.041 A 
HETATM    7  C17 UNL     1      24.893   4.386  49.821  1.00  0.00     0.059 A 
ENDROOT
BRANCH   6   8
HETATM    8  N2  UNL     1      22.769   3.209  50.150  1.00  0.00    -0.350 N 
HETATM    9  H10 UNL     1      21.893   3.324  49.560  1.00  0.00     0.166 HD
BRANCH   8  10
HETATM   10  C9  UNL     1      23.143   2.003  50.802  1.00  0.00     0.207 C 
HETATM   11  N3  UNL     1      23.280   1.979  52.105  1.00  0.00    -0.256 NA
BRANCH  11  12
HETATM   12  C10 UNL     1      23.656   0.740  52.678  1.00  0.00     0.115 C 
HETATM   13  C11 UNL     1      24.685   0.027  53.055  1.00  0.00     0.011 C 
BRANCH  13  14
HETATM   14  C12 UNL     1      26.149   0.175  53.076  1.00  0.00     0.028 A 
HETATM   15  C13 UNL     1      26.806  -1.194  52.889  1.00  0.00     0.030 C 
HETATM   16  C14 UNL     1      26.629   1.044  51.943  1.00  0.00     0.011 A 
HETATM   17  C15 UNL     1      27.318   2.050  52.473  1.00  0.00     0.113 A 
HETATM   18  N4  UNL     1      27.339   1.921  53.892  1.00  0.00    -0.276 NA
HETATM   19  C16 UNL     1      26.680   0.861  54.262  1.00  0.00     0.106 A 
ENDBRANCH  13  14
ENDBRANCH  11  12
ENDBRANCH   8  10
ENDBRANCH   6   8
BRANCH   1  20
HETATM   20  N1  UNL     1      27.005   5.473  49.478  1.00  0.00    -0.327 N 
HETATM   21  C2  UNL     1      27.615   6.132  48.407  1.00  0.00     0.218 C 
HETATM   22  C1  UNL     1      29.052   5.976  48.042  1.00  0.00     0.117 C 
HETATM   23  O1  UNL     1      26.913   6.902  47.708  1.00  0.00    -0.274 OA
HETATM   24  H4  UNL     1      27.693   4.854  49.991  1.00  0.00     0.169 HD
ENDBRANCH   1  20
TORSDOF 5
ENDMDL
MODEL 5
REMARK VINA RESULT:      -7.2      3.191      8.656
REMARK  5 active torsions:
REMARK  status: ('A' for Active; 'I' for Inactive)
REMARK       I    between atoms: C2_2  and  N1_4 
REMARK    1  A    between atoms: N1_4  and  C3_5 
REMARK    2  A    between atoms: C8_10  and  N2_11 
REMARK    3  A    between atoms: N2_11  and  C9_12 
REMARK    4  A    between atoms: N3_13  and  C10_14 
REMARK    5  A    between atoms: C11_15  and  C12_16 
ROOT
HETATM    1  C3  UNL     1      25.622   7.403  48.152  1.00  0.00     0.036 A 
HETATM    2  C4  UNL     1      26.710   8.049  47.617  1.00  0.00     0.030 A 
HETATM    3  C5  UNL     1      27.990   7.543  47.560  1.00  0.00     0.011 A 
HETATM    4  C6  UNL     1      28.221   6.281  48.080  1.00  0.00    -0.035 A 
HETATM    5  C7  UNL     1      29.584   5.698  48.040  1.00  0.00     0.050 C 
HETATM    6  C8  UNL     1      27.147   5.607  48.625  1.00  0.00     0.041 A 
HETATM    7  C17 UNL     1      25.879   6.150  48.662  1.00  0.00     0.059 A 
ENDROOT
BRANCH   6   8
HETATM    8  N2  UNL     1      27.434   4.316  49.138  1.00  0.00    -0.350 N 
HETATM    9  H10 UNL     1      28.384   3.920  48.875  1.00  0.00     0.166 HD
BRANCH   8  10
HETATM   10  C9  UNL     1      26.479   3.641  49.946  1.00  0.00     0.207 C 
HETATM   11  N3  UNL     1      26.880   2.882  50.936  1.00  0.00    -0.256 NA
BRANCH  11  12
HETATM   12  C10 UNL     1      25.867   2.243  51.692  1.00  0.00     0.115 C 
HETATM   13  C11 UNL     1      25.630   1.233  52.489  1.00  0.00     0.011 C 
BRANCH  13  14
HETATM   14  C12 UNL     1      26.394   0.119  53.072  1.00  0.00     0.028 A 
HETATM   15  C13 UNL     1      26.592  -0.973  52.019  1.00  0.00     0.030 C 
HETATM   16  C14 UNL     1      27.769   0.562  53.501  1.00  0.00     0.011 A 
HETATM   17  C15 UNL     1      27.897   0.276  54.793  1.00  0.00     0.113 A 
HETATM   18  N4  UNL     1      26.699  -0.332  55.271  1.00  0.00    -0.276 NA
HETATM   19  C16 UNL     1      25.827  -0.433  54.309  1.00  0.00     0.106 A 
ENDBRANCH  13  14
ENDBRANCH  11  12
ENDBRANCH   8  10
ENDBRANCH   6   8
BRANCH   1  20
HETATM   20  N1  UNL     1      24.300   7.901  48.216  1.00  0.00    -0.327 N 
HETATM   21  C2  UNL     1      23.560   8.383  49.299  1.00  0.00     0.218 C 
HETATM   22  C1  UNL     1      22.158   8.877  49.195  1.00  0.00     0.117 C 
HETATM   23  O1  UNL     1      24.106   8.402  50.427  1.00  0.00    -0.274 OA
HETATM   24  H4  UNL     1      23.736   7.933  47.320  1.00  0.00     0.169 HD
ENDBRANCH   1  20
TORSDOF 5
ENDMDL
MODEL 6
REMARK VINA RESULT:      -7.2      1.920      4.342
REMARK  5 active torsions:
REMARK  status: ('A' for Active; 'I' for Inactive)
REMARK       I    between atoms: C2_2  and  N1_4 
REMARK    1  A    between atoms: N1_4  and  C3_5 
REMARK    2  A    between atoms: C8_10  and  N2_11 
REMARK    3  A    between atoms: N2_11  and  C9_12 
REMARK    4  A    between atoms: N3_13  and  C10_14 
REMARK    5  A    between atoms: C11_15  and  C12_16 
ROOT
HETATM    1  C3  UNL     1      23.603  -0.115  53.210  1.00  0.00     0.036 A 
HETATM    2  C4  UNL     1      24.056  -0.743  54.344  1.00  0.00     0.030 A 
HETATM    3  C5  UNL     1      25.340  -0.671  54.838  1.00  0.00     0.011 A 
HETATM    4  C6  UNL     1      26.266   0.094  54.149  1.00  0.00    -0.035 A 
HETATM    5  C7  UNL     1      27.660   0.200  54.645  1.00  0.00     0.050 C 
HETATM    6  C8  UNL     1      25.840   0.738  53.005  1.00  0.00     0.041 A 
HETATM    7  C17 UNL     1      24.543   0.639  52.545  1.00  0.00     0.059 A 
ENDROOT
BRANCH   6   8
HETATM    8  N2  UNL     1      26.824   1.514  52.340  1.00  0.00    -0.350 N 
HETATM    9  H10 UNL     1      27.825   1.181  52.457  1.00  0.00     0.166 HD
BRANCH   8  10
HETATM   10  C9  UNL     1      26.441   2.651  51.579  1.00  0.00     0.207 C 
HETATM   11  N3  UNL     1      26.861   2.785  50.345  1.00  0.00    -0.256 NA
BRANCH  11  12
HETATM   12  C10 UNL     1      26.436   3.946  49.655  1.00  0.00     0.115 C 
HETATM   13  C11 UNL     1      25.378   4.598  49.247  1.00  0.00     0.011 C 
BRANCH  13  14
HETATM   14  C12 UNL     1      23.918   4.429  49.311  1.00  0.00     0.028 A 
HETATM   15  C13 UNL     1      23.247   5.396  48.333  1.00  0.00     0.030 C 
HETATM   16  C14 UNL     1      23.508   3.039  48.896  1.00  0.00     0.011 A 
HETATM   17  C15 UNL     1      22.812   2.511  49.898  1.00  0.00     0.113 A 
HETATM   18  N4  UNL     1      22.721   3.450  50.966  1.00  0.00    -0.276 NA
HETATM   19  C16 UNL     1      23.343   4.551  50.657  1.00  0.00     0.106 A 
ENDBRANCH  13  14
ENDBRANCH  11  12
ENDBRANCH   8  10
ENDBRANCH   6   8
BRANCH   1  20
HETATM   20  N1  UNL     1      22.289  -0.172  52.689  1.00  0.00    -0.327 N 
HETATM   21  C2  UNL     1      21.056   0.060  53.304  1.00  0.00     0.218 C 
HETATM   22  C1  UNL     1      19.744  -0.044  52.605  1.00  0.00     0.117 C 
HETATM   23  O1  UNL     1      21.050   0.375  54.519  1.00  0.00    -0.274 OA
HETATM   24  H4  UNL     1      22.168  -0.429  51.670  1.00  0.00     0.169 HD
ENDBRANCH   1  20
TORSDOF 5
ENDMDL
MODEL 7
REMARK VINA RESULT:      -7.1      3.112      7.420
REMARK  5 active torsions:
REMARK  status: ('A' for Active; 'I' for Inactive)
REMARK       I    between atoms: C2_2  and  N1_4 
REMARK    1  A    between atoms: N1_4  and  C3_5 
REMARK    2  A    between atoms: C8_10  and  N2_11 
REMARK    3  A    between atoms: N2_11  and  C9_12 
REMARK    4  A    between atoms: N3_13  and  C10_14 
REMARK    5  A    between atoms: C11_15  and  C12_16 
ROOT
HETATM    1  C3  UNL     1      28.002   5.751  48.315  1.00  0.00     0.036 A 
HETATM    2  C4  UNL     1      27.430   6.943  47.940  1.00  0.00     0.030 A 
HETATM    3  C5  UNL     1      26.096   7.261  48.061  1.00  0.00     0.011 A 
HETATM    4  C6  UNL     1      25.242   6.315  48.603  1.00  0.00    -0.035 A 
HETATM    5  C7  UNL     1      23.797   6.615  48.751  1.00  0.00     0.050 C 
HETATM    6  C8  UNL     1      25.788   5.107  48.989  1.00  0.00     0.041 A 
HETATM    7  C17 UNL     1      27.131   4.830  48.851  1.00  0.00     0.059 A 
ENDROOT
BRANCH   6   8
HETATM    8  N2  UNL     1      24.874   4.175  49.544  1.00  0.00    -0.350 N 
HETATM    9  H10 UNL     1      24.093   3.859  48.897  1.00  0.00     0.166 HD
BRANCH   8  10
HETATM   10  C9  UNL     1      25.037   3.726  50.882  1.00  0.00     0.207 C 
HETATM   11  N3  UNL     1      24.424   2.641  51.288  1.00  0.00    -0.256 NA
BRANCH  11  12
HETATM   12  C10 UNL     1      24.637   2.261  52.635  1.00  0.00     0.115 C 
HETATM   13  C11 UNL     1      25.475   1.656  53.435  1.00  0.00     0.011 C 
BRANCH  13  14
HETATM   14  C12 UNL     1      26.779   0.983  53.321  1.00  0.00     0.028 A 
HETATM   15  C13 UNL     1      26.726  -0.052  52.196  1.00  0.00     0.030 C 
HETATM   16  C14 UNL     1      27.869   1.959  52.961  1.00  0.00     0.011 A 
HETATM   17  C15 UNL     1      28.807   1.877  53.901  1.00  0.00     0.113 A 
HETATM   18  N4  UNL     1      28.425   0.910  54.876  1.00  0.00    -0.276 NA
HETATM   19  C16 UNL     1      27.274   0.386  54.569  1.00  0.00     0.106 A 
ENDBRANCH  13  14
ENDBRANCH  11  12
ENDBRANCH   8  10
ENDBRANCH   6   8
BRANCH   1  20
HETATM   20  N1  UNL     1      29.369   5.407  48.205  1.00  0.00    -0.327 N 
HETATM   21  C2  UNL     1      30.520   6.157  48.462  1.00  0.00     0.218 C 
HETATM   22  C1  UNL     1      31.907   5.640  48.292  1.00  0.00     0.117 C 
HETATM   23  O1  UNL     1      30.380   7.339  48.859  1.00  0.00    -0.274 OA
HETATM   24  H4  UNL     1      29.612   4.431  47.876  1.00  0.00     0.169 HD
ENDBRANCH   1  20
TORSDOF 5
ENDMDL
MODEL 8
REMARK VINA RESULT:      -7.0      2.204      5.753
REMARK  5 active torsions:
REMARK  status: ('A' for Active; 'I' for Inactive)
REMARK       I    between atoms: C2_2  and  N1_4 
REMARK    1  A    between atoms: N1_4  and  C3_5 
REMARK    2  A    between atoms: C8_10  and  N2_11 
REMARK    3  A    between atoms: N2_11  and  C9_12 
REMARK    4  A    between atoms: N3_13  and  C10_14 
REMARK    5  A    between atoms: C11_15  and  C12_16 
ROOT
HETATM    1  C3  UNL     1      25.784   2.225  51.443  1.00  0.00     0.036 A 
HETATM    2  C4  UNL     1      27.065   2.460  51.879  1.00  0.00     0.030 A 
HETATM    3  C5  UNL     1      27.676   1.826  52.939  1.00  0.00     0.011 A 
HETATM    4  C6  UNL     1      26.958   0.869  53.634  1.00  0.00    -0.035 A 
HETATM    5  C7  UNL     1      27.576   0.161  54.781  1.00  0.00     0.050 C 
HETATM    6  C8  UNL     1      25.667   0.611  53.219  1.00  0.00     0.041 A 
HETATM    7  C17 UNL     1      25.092   1.270  52.152  1.00  0.00     0.059 A 
ENDROOT
BRANCH   6   8
HETATM    8  N2  UNL     1      24.975  -0.381  53.959  1.00  0.00    -0.350 N 
HETATM    9  H10 UNL     1      25.536  -0.853  54.728  1.00  0.00     0.166 HD
BRANCH   8  10
HETATM   10  C9  UNL     1      23.621  -0.686  53.653  1.00  0.00     0.207 C 
HETATM   11  N3  UNL     1      22.729  -0.737  54.611  1.00  0.00    -0.256 NA
BRANCH  11  12
HETATM   12  C10 UNL     1      21.403  -1.049  54.223  1.00  0.00     0.115 C 
HETATM   13  C11 UNL     1      20.435  -0.699  53.416  1.00  0.00     0.011 C 
BRANCH  13  14
HETATM   14  C12 UNL     1      20.213   0.319  52.377  1.00  0.00     0.028 A 
HETATM   15  C13 UNL     1      18.745   0.303  51.948  1.00  0.00     0.030 C 
HETATM   16  C14 UNL     1      20.498   1.704  52.897  1.00  0.00     0.011 A 
HETATM   17  C15 UNL     1      21.420   2.247  52.107  1.00  0.00     0.113 A 
HETATM   18  N4  UNL     1      21.779   1.323  51.084  1.00  0.00    -0.276 NA
HETATM   19  C16 UNL     1      21.107   0.216  51.215  1.00  0.00     0.106 A 
ENDBRANCH  13  14
ENDBRANCH  11  12
ENDBRANCH   8  10
ENDBRANCH   6   8
BRANCH   1  20
HETATM   20  N1  UNL     1      25.140   2.861  50.356  1.00  0.00    -0.327 N 
HETATM   21  C2  UNL     1      24.350   4.013  50.314  1.00  0.00     0.218 C 
HETATM   22  C1  UNL     1      23.737   4.556  49.069  1.00  0.00     0.117 C 
HETATM   23  O1  UNL     1      24.143   4.629  51.387  1.00  0.00    -0.274 OA
HETATM   24  H4  UNL     1      25.243   2.430  49.395  1.00  0.00     0.169 HD
ENDBRANCH   1  20
TORSDOF 5
ENDMDL
MODEL 9
REMARK VINA RESULT:      -6.8      2.601      4.858
REMARK  5 active torsions:
REMARK  status: ('A' for Active; 'I' for Inactive)
REMARK       I    between atoms: C2_2  and  N1_4 
REMARK    1  A    between atoms: N1_4  and  C3_5 
REMARK    2  A    between atoms: C8_10  and  N2_11 
REMARK    3  A    between atoms: N2_11  and  C9_12 
REMARK    4  A    between atoms: N3_13  and  C10_14 
REMARK    5  A    between atoms: C11_15  and  C12_16 
ROOT
HETATM    1  C3  UNL     1      23.035   1.511  52.539  1.00  0.00     0.036 A 
HETATM    2  C4  UNL     1      23.201   0.337  53.234  1.00  0.00     0.030 A 
HETATM    3  C5  UNL     1      24.375  -0.378  53.322  1.00  0.00     0.011 A 
HETATM    4  C6  UNL     1      25.492   0.109  52.664  1.00  0.00    -0.035 A 
HETATM    5  C7  UNL     1      26.776  -0.629  52.731  1.00  0.00     0.050 C 
HETATM    6  C8  UNL     1      25.355   1.287  51.958  1.00  0.00     0.041 A 
HETATM    7  C17 UNL     1      24.160   1.973  51.895  1.00  0.00     0.059 A 
ENDROOT
BRANCH   6   8
HETATM    8  N2  UNL     1      26.528   1.747  51.307  1.00  0.00    -0.350 N 
HETATM    9  H10 UNL     1      27.328   1.050  51.258  1.00  0.00     0.166 HD
BRANCH   8  10
HETATM   10  C9  UNL     1      26.579   3.063  50.773  1.00  0.00     0.207 C 
HETATM   11  N3  UNL     1      26.877   3.247  49.510  1.00  0.00    -0.256 NA
BRANCH  11  12
HETATM   12  C10 UNL     1      26.907   4.587  49.057  1.00  0.00     0.115 C 
HETATM   13  C11 UNL     1      26.181   5.666  48.917  1.00  0.00     0.011 C 
BRANCH  13  14
HETATM   14  C12 UNL     1      24.796   6.076  49.198  1.00  0.00     0.028 A 
HETATM   15  C13 UNL     1      23.830   5.007  48.682  1.00  0.00     0.030 C 
HETATM   16  C14 UNL     1      24.551   6.201  50.679  1.00  0.00     0.011 A 
HETATM   17  C15 UNL     1      24.119   7.438  50.910  1.00  0.00     0.113 A 
HETATM   18  N4  UNL     1      24.054   8.160  49.683  1.00  0.00    -0.276 NA
HETATM   19  C16 UNL     1      24.434   7.407  48.692  1.00  0.00     0.106 A 
ENDBRANCH  13  14
ENDBRANCH  11  12
ENDBRANCH   8  10
ENDBRANCH   6   8
BRANCH   1  20
HETATM   20  N1  UNL     1      21.841   2.263  52.441  1.00  0.00    -0.327 N 
HETATM   21  C2  UNL     1      20.663   2.012  51.732  1.00  0.00     0.218 C 
HETATM   22  C1  UNL     1      19.481   2.919  51.733  1.00  0.00     0.117 C 
HETATM   23  O1  UNL     1      20.594   0.960  51.052  1.00  0.00    -0.274 OA
HETATM   24  H4  UNL     1      21.782   3.176  52.974  1.00  0.00     0.169 HD
ENDBRANCH   1  20
TORSDOF 5
ENDMDL
