MODEL 1
REMARK VINA RESULT:      -7.5      0.000      0.000
REMARK  5 active torsions:
REMARK  status: ('A' for Active; 'I' for Inactive)
REMARK    1  A    between atoms: N2_5  and  C4_6 
REMARK    2  A    between atoms: C4_6  and  C5_7 
REMARK    3  A    between atoms: C5_7  and  C6_8 
REMARK    4  A    between atoms: C7_9  and  C8_10 
REMARK       I    between atoms: C8_10  and  N3_12 
REMARK    5  A    between atoms: N3_12  and  C9_13 
ROOT
HETATM    1  C8  UNL     1      25.929   2.930  51.376  1.00  0.00     0.302 C 
HETATM    2  O1  UNL     1      27.077   2.545  50.969  1.00  0.00    -0.258 OA
HETATM    3  N3  UNL     1      25.646   2.624  52.731  1.00  0.00    -0.301 N 
HETATM    4  H12 UNL     1      24.703   2.942  53.012  1.00  0.00     0.171 HD
ENDROOT
BRANCH   1   5
HETATM    5  C7  UNL     1      25.140   3.600  50.379  1.00  0.00    -0.005 C 
HETATM    6  C6  UNL     1      24.468   4.143  49.557  1.00  0.00    -0.095 C 
BRANCH   6   7
HETATM    7  C5  UNL     1      23.618   4.799  48.543  1.00  0.00     0.114 C 
BRANCH   7   8
HETATM    8  C4  UNL     1      22.934   5.957  49.172  1.00  0.00     0.129 C 
BRANCH   8   9
HETATM    9  N2  UNL     1      21.735   5.726  49.879  1.00  0.00    -0.408 N 
HETATM   10  C3  UNL     1      21.698   6.017  51.260  1.00  0.00     0.136 C 
HETATM   11  C2  UNL     1      22.016   4.837  52.096  1.00  0.00     0.135 C 
HETATM   12  N1  UNL     1      21.455   3.634  51.626  1.00  0.00    -0.414 N 
HETATM   13  C1  UNL     1      21.995   2.413  52.068  1.00  0.00     0.143 C 
HETATM   14  C17 UNL     1      20.580   3.639  50.534  1.00  0.00     0.135 C 
HETATM   15  C16 UNL     1      20.925   4.613  49.436  1.00  0.00     0.136 C 
ENDBRANCH   8   9
ENDBRANCH   7   8
ENDBRANCH   6   7
ENDBRANCH   1   5
BRANCH   3  16
HETATM   16  C9  UNL     1      26.875   1.965  53.113  1.00  0.00     0.131 A 
HETATM   17  C10 UNL     1      26.788   0.602  52.816  1.00  0.00     0.067 A 
HETATM   18  C11 UNL     1      27.903  -0.178  53.163  1.00  0.00     0.038 A 
HETATM   19  C12 UNL     1      27.962  -1.532  52.945  1.00  0.00     0.140 A 
HETATM   20  C14 UNL     1      28.973   0.436  53.754  1.00  0.00     0.089 A 
HETATM   21 CL1  UNL     1      26.606  -2.331  52.190  1.00  0.00    -0.061 Cl
HETATM   22  N4  UNL     1      29.006  -2.306  53.272  1.00  0.00    -0.229 NA
HETATM   23  C13 UNL     1      30.050  -1.665  53.855  1.00  0.00     0.235 A 
HETATM   24  N5  UNL     1      30.025  -0.341  54.084  1.00  0.00    -0.240 NA
HETATM   25  C15 UNL     1      29.026   1.799  54.036  1.00  0.00     0.151 A 
HETATM   26  N6  UNL     1      27.932   2.545  53.693  1.00  0.00    -0.241 NA
ENDBRANCH   3  16
TORSDOF 5
ENDMDL
MODEL 2
REMARK VINA RESULT:      -7.3      2.548      4.032
REMARK  5 active torsions:
REMARK  status: ('A' for Active; 'I' for Inactive)
REMARK    1  A    between atoms: N2_5  and  C4_6 
REMARK    2  A    between atoms: C4_6  and  C5_7 
REMARK    3  A    between atoms: C5_7  and  C6_8 
REMARK    4  A    between atoms: C7_9  and  C8_10 
REMARK       I    between atoms: C8_10  and  N3_12 
REMARK    5  A    between atoms: N3_12  and  C9_13 
ROOT
HETATM    1  C8  UNL     1      22.470   0.827  52.375  1.00  0.00     0.302 C 
HETATM    2  O1  UNL     1      22.899   0.650  53.565  1.00  0.00    -0.258 OA
HETATM    3  N3  UNL     1      23.439   1.310  51.459  1.00  0.00    -0.301 N 
HETATM    4  H12 UNL     1      23.044   1.449  50.514  1.00  0.00     0.171 HD
ENDROOT
BRANCH   1   5
HETATM    5  C7  UNL     1      21.082   0.502  52.190  1.00  0.00    -0.005 C 
HETATM    6  C6  UNL     1      19.934   0.225  52.017  1.00  0.00    -0.095 C 
BRANCH   6   7
HETATM    7  C5  UNL     1      18.520  -0.124  51.779  1.00  0.00     0.114 C 
BRANCH   7   8
HETATM    8  C4  UNL     1      18.159   0.268  50.393  1.00  0.00     0.129 C 
BRANCH   8   9
HETATM    9  N2  UNL     1      17.800   1.610  50.146  1.00  0.00    -0.408 N 
HETATM   10  C3  UNL     1      18.478   2.315  49.129  1.00  0.00     0.136 C 
HETATM   11  C2  UNL     1      19.636   3.081  49.646  1.00  0.00     0.135 C 
HETATM   12  N1  UNL     1      19.402   3.706  50.885  1.00  0.00    -0.414 N 
HETATM   13  C1  UNL     1      20.503   4.104  51.664  1.00  0.00     0.143 C 
HETATM   14  C17 UNL     1      18.129   3.677  51.466  1.00  0.00     0.135 C 
HETATM   15  C16 UNL     1      17.370   2.386  51.288  1.00  0.00     0.136 C 
ENDBRANCH   8   9
ENDBRANCH   7   8
ENDBRANCH   6   7
ENDBRANCH   1   5
BRANCH   3  16
HETATM   16  C9  UNL     1      24.595   1.395  52.323  1.00  0.00     0.131 A 
HETATM   17  C10 UNL     1      25.319   0.200  52.256  1.00  0.00     0.067 A 
HETATM   18  C11 UNL     1      26.459   0.123  53.072  1.00  0.00     0.038 A 
HETATM   19  C12 UNL     1      27.265  -0.987  53.123  1.00  0.00     0.140 A 
HETATM   20  C14 UNL     1      26.776   1.197  53.858  1.00  0.00     0.089 A 
HETATM   21 CL1  UNL     1      26.876  -2.367  52.125  1.00  0.00    -0.061 Cl
HETATM   22  N4  UNL     1      28.353  -1.098  53.896  1.00  0.00    -0.229 NA
HETATM   23  C13 UNL     1      28.639  -0.015  54.662  1.00  0.00     0.235 A 
HETATM   24  N5  UNL     1      27.871   1.089  54.637  1.00  0.00    -0.240 NA
HETATM   25  C15 UNL     1      26.031   2.373  53.900  1.00  0.00     0.151 A 
HETATM   26  N6  UNL     1      24.923   2.433  53.100  1.00  0.00    -0.241 NA
ENDBRANCH   3  16
TORSDOF 5
ENDMDL
MODEL 3
REMARK VINA RESULT:      -7.2      2.649      3.862
REMARK  5 active torsions:
REMARK  status: ('A' for Active; 'I' for Inactive)
REMARK    1  A    between atoms: N2_5  and  C4_6 
REMARK    2  A    between atoms: C4_6  and  C5_7 
REMARK    3  A    between atoms: C5_7  and  C6_8 
REMARK    4  A    between atoms: C7_9  and  C8_10 
REMARK       I    between atoms: C8_10  and  N3_12 
REMARK    5  A    between atoms: N3_12  and  C9_13 
ROOT
HETATM    1  C8  UNL     1      26.063   3.016  51.482  1.00  0.00     0.302 C 
HETATM    2  O1  UNL     1      27.230   2.661  51.102  1.00  0.00    -0.258 OA
HETATM    3  N3  UNL     1      25.709   2.593  52.788  1.00  0.00    -0.301 N 
HETATM    4  H12 UNL     1      24.754   2.891  53.047  1.00  0.00     0.171 HD
ENDROOT
BRANCH   1   5
HETATM    5  C7  UNL     1      25.329   3.777  50.509  1.00  0.00    -0.005 C 
HETATM    6  C6  UNL     1      24.705   4.415  49.717  1.00  0.00    -0.095 C 
BRANCH   6   7
HETATM    7  C5  UNL     1      23.914   5.207  48.754  1.00  0.00     0.114 C 
BRANCH   7   8
HETATM    8  C4  UNL     1      24.666   6.444  48.423  1.00  0.00     0.129 C 
BRANCH   8   9
HETATM    9  N2  UNL     1      25.807   6.761  49.189  1.00  0.00    -0.408 N 
HETATM   10  C3  UNL     1      25.664   7.646  50.280  1.00  0.00     0.136 C 
HETATM   11  C2  UNL     1      25.945   9.052  49.910  1.00  0.00     0.135 C 
HETATM   12  N1  UNL     1      27.033   9.207  49.030  1.00  0.00    -0.414 N 
HETATM   13  C1  UNL     1      27.148  10.400  48.295  1.00  0.00     0.143 C 
HETATM   14  C17 UNL     1      27.820   8.106  48.675  1.00  0.00     0.135 C 
HETATM   15  C16 UNL     1      27.068   6.812  48.483  1.00  0.00     0.136 C 
ENDBRANCH   8   9
ENDBRANCH   7   8
ENDBRANCH   6   7
ENDBRANCH   1   5
BRANCH   3  16
HETATM   16  C9  UNL     1      26.916   1.894  53.172  1.00  0.00     0.131 A 
HETATM   17  C10 UNL     1      26.806   0.545  52.824  1.00  0.00     0.067 A 
HETATM   18  C11 UNL     1      27.897  -0.271  53.167  1.00  0.00     0.038 A 
HETATM   19  C12 UNL     1      27.933  -1.617  52.900  1.00  0.00     0.140 A 
HETATM   20  C14 UNL     1      28.966   0.298  53.803  1.00  0.00     0.089 A 
HETATM   21 CL1  UNL     1      26.578  -2.360  52.087  1.00  0.00    -0.061 Cl
HETATM   22  N4  UNL     1      28.952  -2.425  53.222  1.00  0.00    -0.229 NA
HETATM   23  C13 UNL     1      29.996  -1.829  53.851  1.00  0.00     0.235 A 
HETATM   24  N5  UNL     1      29.993  -0.513  54.128  1.00  0.00    -0.240 NA
HETATM   25  C15 UNL     1      29.041   1.648  54.136  1.00  0.00     0.151 A 
HETATM   26  N6  UNL     1      27.971   2.430  53.796  1.00  0.00    -0.241 NA
ENDBRANCH   3  16
TORSDOF 5
ENDMDL
MODEL 4
REMARK VINA RESULT:      -7.0      3.802      5.105
REMARK  5 active torsions:
REMARK  status: ('A' for Active; 'I' for Inactive)
REMARK    1  A    between atoms: N2_5  and  C4_6 
REMARK    2  A    between atoms: C4_6  and  C5_7 
REMARK    3  A    between atoms: C5_7  and  C6_8 
REMARK    4  A    between atoms: C7_9  and  C8_10 
REMARK       I    between atoms: C8_10  and  N3_12 
REMARK    5  A    between atoms: N3_12  and  C9_13 
ROOT
HETATM    1  C8  UNL     1      22.412   0.679  52.371  1.00  0.00     0.302 C 
HETATM    2  O1  UNL     1      22.837   0.539  53.568  1.00  0.00    -0.258 OA
HETATM    3  N3  UNL     1      23.375   1.162  51.450  1.00  0.00    -0.301 N 
HETATM    4  H12 UNL     1      22.983   1.272  50.500  1.00  0.00     0.171 HD
ENDROOT
BRANCH   1   5
HETATM    5  C7  UNL     1      21.032   0.321  52.187  1.00  0.00    -0.005 C 
HETATM    6  C6  UNL     1      19.882   0.045  52.033  1.00  0.00    -0.095 C 
BRANCH   6   7
HETATM    7  C5  UNL     1      18.452  -0.272  51.846  1.00  0.00     0.114 C 
BRANCH   7   8
HETATM    8  C4  UNL     1      17.806   0.851  51.121  1.00  0.00     0.129 C 
BRANCH   8   9
HETATM    9  N2  UNL     1      16.398   0.883  51.049  1.00  0.00    -0.408 N 
HETATM   10  C3  UNL     1      15.785   1.837  50.208  1.00  0.00     0.136 C 
HETATM   11  C2  UNL     1      15.434   3.084  50.926  1.00  0.00     0.135 C 
HETATM   12  N1  UNL     1      14.925   2.874  52.222  1.00  0.00    -0.414 N 
HETATM   13  C1  UNL     1      14.941   3.940  53.139  1.00  0.00     0.143 C 
HETATM   14  C17 UNL     1      14.676   1.578  52.686  1.00  0.00     0.135 C 
HETATM   15  C16 UNL     1      15.680   0.536  52.255  1.00  0.00     0.136 C 
ENDBRANCH   8   9
ENDBRANCH   7   8
ENDBRANCH   6   7
ENDBRANCH   1   5
BRANCH   3  16
HETATM   16  C9  UNL     1      24.525   1.291  52.318  1.00  0.00     0.131 A 
HETATM   17  C10 UNL     1      25.282   0.117  52.270  1.00  0.00     0.067 A 
HETATM   18  C11 UNL     1      26.421   0.083  53.092  1.00  0.00     0.038 A 
HETATM   19  C12 UNL     1      27.257  -1.003  53.161  1.00  0.00     0.140 A 
HETATM   20  C14 UNL     1      26.703   1.176  53.865  1.00  0.00     0.089 A 
HETATM   21 CL1  UNL     1      26.912  -2.406  52.180  1.00  0.00    -0.061 Cl
HETATM   22  N4  UNL     1      28.344  -1.073  53.941  1.00  0.00    -0.229 NA
HETATM   23  C13 UNL     1      28.596   0.028  54.694  1.00  0.00     0.235 A 
HETATM   24  N5  UNL     1      27.797   1.109  54.650  1.00  0.00    -0.240 NA
HETATM   25  C15 UNL     1      25.925   2.331  53.888  1.00  0.00     0.151 A 
HETATM   26  N6  UNL     1      24.819   2.348  53.082  1.00  0.00    -0.241 NA
ENDBRANCH   3  16
TORSDOF 5
ENDMDL
MODEL 5
REMARK VINA RESULT:      -7.0      4.980      7.273
REMARK  5 active torsions:
REMARK  status: ('A' for Active; 'I' for Inactive)
REMARK    1  A    between atoms: N2_5  and  C4_6 
REMARK    2  A    between atoms: C4_6  and  C5_7 
REMARK    3  A    between atoms: C5_7  and  C6_8 
REMARK    4  A    between atoms: C7_9  and  C8_10 
REMARK       I    between atoms: C8_10  and  N3_12 
REMARK    5  A    between atoms: N3_12  and  C9_13 
ROOT
HETATM    1  C8  UNL     1      25.577   4.348  49.975  1.00  0.00     0.302 C 
HETATM    2  O1  UNL     1      25.239   3.208  49.507  1.00  0.00    -0.258 OA
HETATM    3  N3  UNL     1      24.897   4.730  51.158  1.00  0.00    -0.301 N 
HETATM    4  H12 UNL     1      25.193   5.663  51.492  1.00  0.00     0.171 HD
ENDROOT
BRANCH   1   5
HETATM    5  C7  UNL     1      26.584   5.029  49.208  1.00  0.00    -0.005 C 
HETATM    6  C6  UNL     1      27.435   5.590  48.588  1.00  0.00    -0.095 C 
BRANCH   6   7
HETATM    7  C5  UNL     1      28.503   6.284  47.842  1.00  0.00     0.114 C 
BRANCH   7   8
HETATM    8  C4  UNL     1      29.805   5.650  48.172  1.00  0.00     0.129 C 
BRANCH   8   9
HETATM    9  N2  UNL     1      30.989   6.363  47.893  1.00  0.00    -0.408 N 
HETATM   10  C3  UNL     1      31.894   6.611  48.948  1.00  0.00     0.136 C 
HETATM   11  C2  UNL     1      31.665   7.923  49.595  1.00  0.00     0.135 C 
HETATM   12  N1  UNL     1      31.350   8.958  48.695  1.00  0.00    -0.414 N 
HETATM   13  C1  UNL     1      30.722  10.118  49.185  1.00  0.00     0.143 C 
HETATM   14  C17 UNL     1      31.391   8.735  47.314  1.00  0.00     0.135 C 
HETATM   15  C16 UNL     1      30.908   7.378  46.866  1.00  0.00     0.136 C 
ENDBRANCH   8   9
ENDBRANCH   7   8
ENDBRANCH   6   7
ENDBRANCH   1   5
BRANCH   3  16
HETATM   16  C9  UNL     1      24.050   3.575  51.358  1.00  0.00     0.131 A 
HETATM   17  C10 UNL     1      24.666   2.692  52.251  1.00  0.00     0.067 A 
HETATM   18  C11 UNL     1      23.971   1.502  52.519  1.00  0.00     0.038 A 
HETATM   19  C12 UNL     1      24.452   0.533  53.365  1.00  0.00     0.140 A 
HETATM   20  C14 UNL     1      22.768   1.293  51.903  1.00  0.00     0.089 A 
HETATM   21 CL1  UNL     1      25.985   0.785  54.162  1.00  0.00    -0.061 Cl
HETATM   22  N4  UNL     1      23.820  -0.617  53.635  1.00  0.00    -0.229 NA
HETATM   23  C13 UNL     1      22.629  -0.792  53.008  1.00  0.00     0.235 A 
HETATM   24  N5  UNL     1      22.130   0.136  52.173  1.00  0.00    -0.240 NA
HETATM   25  C15 UNL     1      22.183   2.195  51.018  1.00  0.00     0.151 A 
HETATM   26  N6  UNL     1      22.873   3.350  50.766  1.00  0.00    -0.241 NA
ENDBRANCH   3  16
TORSDOF 5
ENDMDL
MODEL 6
REMARK VINA RESULT:      -7.0      4.958      6.948
REMARK  5 active torsions:
REMARK  status: ('A' for Active; 'I' for Inactive)
REMARK    1  A    between atoms: N2_5  and  C4_6 
REMARK    2  A    between atoms: C4_6  and  C5_7 
REMARK    3  A    between atoms: C5_7  and  C6_8 
REMARK    4  A    between atoms: C7_9  and  C8_10 
REMARK       I    between atoms: C8_10  and  N3_12 
REMARK    5  A    between atoms: N3_12  and  C9_13 
ROOT
HETATM    1  C8  UNL     1      25.901   4.259  49.831  1.00  0.00     0.302 C 
HETATM    2  O1  UNL     1      25.625   3.063  49.473  1.00  0.00    -0.258 OA
HETATM    3  N3  UNL     1      25.090   4.769  50.875  1.00  0.00    -0.301 N 
HETATM    4  H12 UNL     1      25.340   5.741  51.121  1.00  0.00     0.171 HD
ENDROOT
BRANCH   1   5
HETATM    5  C7  UNL     1      26.984   4.861  49.102  1.00  0.00    -0.005 C 
HETATM    6  C6  UNL     1      27.896   5.359  48.515  1.00  0.00    -0.095 C 
BRANCH   6   7
HETATM    7  C5  UNL     1      29.036   5.977  47.811  1.00  0.00     0.114 C 
BRANCH   7   8
HETATM    8  C4  UNL     1      28.837   7.448  47.781  1.00  0.00     0.129 C 
BRANCH   8   9
HETATM    9  N2  UNL     1      29.132   8.190  48.944  1.00  0.00    -0.408 N 
HETATM   10  C3  UNL     1      28.144   9.054  49.463  1.00  0.00     0.136 C 
HETATM   11  C2  UNL     1      28.280  10.440  48.960  1.00  0.00     0.135 C 
HETATM   12  N1  UNL     1      29.612  10.887  48.867  1.00  0.00    -0.414 N 
HETATM   13  C1  UNL     1      29.903  11.989  48.044  1.00  0.00     0.143 C 
HETATM   14  C17 UNL     1      30.661  10.093  49.344  1.00  0.00     0.135 C 
HETATM   15  C16 UNL     1      30.505   8.611  49.113  1.00  0.00     0.136 C 
ENDBRANCH   8   9
ENDBRANCH   7   8
ENDBRANCH   6   7
ENDBRANCH   1   5
BRANCH   3  16
HETATM   16  C9  UNL     1      24.234   3.630  51.122  1.00  0.00     0.131 A 
HETATM   17  C10 UNL     1      24.821   2.803  52.084  1.00  0.00     0.067 A 
HETATM   18  C11 UNL     1      24.115   1.632  52.405  1.00  0.00     0.038 A 
HETATM   19  C12 UNL     1      24.568   0.717  53.322  1.00  0.00     0.140 A 
HETATM   20  C14 UNL     1      22.928   1.388  51.769  1.00  0.00     0.089 A 
HETATM   21 CL1  UNL     1      26.080   1.013  54.144  1.00  0.00    -0.061 Cl
HETATM   22  N4  UNL     1      23.925  -0.414  53.644  1.00  0.00    -0.229 NA
HETATM   23  C13 UNL     1      22.751  -0.624  52.997  1.00  0.00     0.235 A 
HETATM   24  N5  UNL     1      22.278   0.252  52.093  1.00  0.00    -0.240 NA
HETATM   25  C15 UNL     1      22.372   2.236  50.815  1.00  0.00     0.151 A 
HETATM   26  N6  UNL     1      23.072   3.372  50.512  1.00  0.00    -0.241 NA
ENDBRANCH   3  16
TORSDOF 5
ENDMDL
MODEL 7
REMARK VINA RESULT:      -6.9      4.984      7.630
REMARK  5 active torsions:
REMARK  status: ('A' for Active; 'I' for Inactive)
REMARK    1  A    between atoms: N2_5  and  C4_6 
REMARK    2  A    between atoms: C4_6  and  C5_7 
REMARK    3  A    between atoms: C5_7  and  C6_8 
REMARK    4  A    between atoms: C7_9  and  C8_10 
REMARK       I    between atoms: C8_10  and  N3_12 
REMARK    5  A    between atoms: N3_12  and  C9_13 
ROOT
HETATM    1  C8  UNL     1      25.610   4.350  49.959  1.00  0.00     0.302 C 
HETATM    2  O1  UNL     1      25.296   3.193  49.514  1.00  0.00    -0.258 OA
HETATM    3  N3  UNL     1      24.895   4.757  51.113  1.00  0.00    -0.301 N 
HETATM    4  H12 UNL     1      25.172   5.701  51.428  1.00  0.00     0.171 HD
ENDROOT
BRANCH   1   5
HETATM    5  C7  UNL     1      26.630   5.020  49.200  1.00  0.00    -0.005 C 
HETATM    6  C6  UNL     1      27.488   5.579  48.588  1.00  0.00    -0.095 C 
BRANCH   6   7
HETATM    7  C5  UNL     1      28.563   6.275  47.853  1.00  0.00     0.114 C 
BRANCH   7   8
HETATM    8  C4  UNL     1      29.854   5.606  48.150  1.00  0.00     0.129 C 
BRANCH   8   9
HETATM    9  N2  UNL     1      31.029   6.388  48.159  1.00  0.00    -0.408 N 
HETATM   10  C3  UNL     1      31.627   6.723  46.925  1.00  0.00     0.136 C 
HETATM   11  C2  UNL     1      32.680   5.763  46.526  1.00  0.00     0.135 C 
HETATM   12  N1  UNL     1      33.489   5.324  47.591  1.00  0.00    -0.414 N 
HETATM   13  C1  UNL     1      34.232   4.139  47.437  1.00  0.00     0.143 C 
HETATM   14  C17 UNL     1      33.344   5.879  48.867  1.00  0.00     0.135 C 
HETATM   15  C16 UNL     1      31.927   6.194  49.276  1.00  0.00     0.136 C 
ENDBRANCH   8   9
ENDBRANCH   7   8
ENDBRANCH   6   7
ENDBRANCH   1   5
BRANCH   3  16
HETATM   16  C9  UNL     1      24.056   3.598  51.324  1.00  0.00     0.131 A 
HETATM   17  C10 UNL     1      24.674   2.731  52.230  1.00  0.00     0.067 A 
HETATM   18  C11 UNL     1      23.987   1.539  52.510  1.00  0.00     0.038 A 
HETATM   19  C12 UNL     1      24.470   0.585  53.371  1.00  0.00     0.140 A 
HETATM   20  C14 UNL     1      22.788   1.313  51.891  1.00  0.00     0.089 A 
HETATM   21 CL1  UNL     1      25.998   0.858  54.171  1.00  0.00    -0.061 Cl
HETATM   22  N4  UNL     1      23.846  -0.567  53.652  1.00  0.00    -0.229 NA
HETATM   23  C13 UNL     1      22.659  -0.759  53.022  1.00  0.00     0.235 A 
HETATM   24  N5  UNL     1      22.157   0.155  52.173  1.00  0.00    -0.240 NA
HETATM   25  C15 UNL     1      22.201   2.200  50.991  1.00  0.00     0.151 A 
HETATM   26  N6  UNL     1      22.883   3.357  50.728  1.00  0.00    -0.241 NA
ENDBRANCH   3  16
TORSDOF 5
ENDMDL
MODEL 8
REMARK VINA RESULT:      -6.9      1.898      2.806
REMARK  5 active torsions:
REMARK  status: ('A' for Active; 'I' for Inactive)
REMARK    1  A    between atoms: N2_5  and  C4_6 
REMARK    2  A    between atoms: C4_6  and  C5_7 
REMARK    3  A    between atoms: C5_7  and  C6_8 
REMARK    4  A    between atoms: C7_9  and  C8_10 
REMARK       I    between atoms: C8_10  and  N3_12 
REMARK    5  A    between atoms: N3_12  and  C9_13 
ROOT
HETATM    1  C8  UNL     1      25.860   2.937  51.398  1.00  0.00     0.302 C 
HETATM    2  O1  UNL     1      27.004   2.561  50.970  1.00  0.00    -0.258 OA
HETATM    3  N3  UNL     1      25.605   2.635  52.759  1.00  0.00    -0.301 N 
HETATM    4  H12 UNL     1      24.665   2.946  53.055  1.00  0.00     0.171 HD
ENDROOT
BRANCH   1   5
HETATM    5  C7  UNL     1      25.047   3.596  50.412  1.00  0.00    -0.005 C 
HETATM    6  C6  UNL     1      24.386   4.160  49.594  1.00  0.00    -0.095 C 
BRANCH   6   7
HETATM    7  C5  UNL     1      23.584   4.877  48.583  1.00  0.00     0.114 C 
BRANCH   7   8
HETATM    8  C4  UNL     1      22.150   4.564  48.804  1.00  0.00     0.129 C 
BRANCH   8   9
HETATM    9  N2  UNL     1      21.579   3.491  48.088  1.00  0.00    -0.408 N 
HETATM   10  C3  UNL     1      22.137   3.139  46.840  1.00  0.00     0.136 C 
HETATM   11  C2  UNL     1      21.457   3.806  45.706  1.00  0.00     0.135 C 
HETATM   12  N1  UNL     1      20.057   3.884  45.843  1.00  0.00    -0.414 N 
HETATM   13  C1  UNL     1      19.350   4.824  45.072  1.00  0.00     0.143 C 
HETATM   14  C17 UNL     1      19.414   3.255  46.914  1.00  0.00     0.135 C 
HETATM   15  C16 UNL     1      20.152   3.304  48.229  1.00  0.00     0.136 C 
ENDBRANCH   8   9
ENDBRANCH   7   8
ENDBRANCH   6   7
ENDBRANCH   1   5
BRANCH   3  16
HETATM   16  C9  UNL     1      26.847   1.989  53.120  1.00  0.00     0.131 A 
HETATM   17  C10 UNL     1      26.764   0.622  52.836  1.00  0.00     0.067 A 
HETATM   18  C11 UNL     1      27.892  -0.146  53.166  1.00  0.00     0.038 A 
HETATM   19  C12 UNL     1      27.957  -1.501  52.957  1.00  0.00     0.140 A 
HETATM   20  C14 UNL     1      28.969   0.481  53.730  1.00  0.00     0.089 A 
HETATM   21 CL1  UNL     1      26.592  -2.317  52.237  1.00  0.00    -0.061 Cl
HETATM   22  N4  UNL     1      29.013  -2.265  53.269  1.00  0.00    -0.229 NA
HETATM   23  C13 UNL     1      30.064  -1.612  53.826  1.00  0.00     0.235 A 
HETATM   24  N5  UNL     1      30.033  -0.285  54.045  1.00  0.00    -0.240 NA
HETATM   25  C15 UNL     1      29.017   1.847  54.000  1.00  0.00     0.151 A 
HETATM   26  N6  UNL     1      27.911   2.582  53.673  1.00  0.00    -0.241 NA
ENDBRANCH   3  16
TORSDOF 5
ENDMDL
MODEL 9
REMARK VINA RESULT:      -6.8      5.826      8.777
REMARK  5 active torsions:
REMARK  status: ('A' for Active; 'I' for Inactive)
REMARK    1  A    between atoms: N2_5  and  C4_6 
REMARK    2  A    between atoms: C4_6  and  C5_7 
REMARK    3  A    between atoms: C5_7  and  C6_8 
REMARK    4  A    between atoms: C7_9  and  C8_10 
REMARK       I    between atoms: C8_10  and  N3_12 
REMARK    5  A    between atoms: N3_12  and  C9_13 
ROOT
HETATM    1  C8  UNL     1      26.774   4.620  49.188  1.00  0.00     0.302 C 
HETATM    2  O1  UNL     1      26.719   3.347  49.293  1.00  0.00    -0.258 OA
HETATM    3  N3  UNL     1      25.610   5.303  49.620  1.00  0.00    -0.301 N 
HETATM    4  H12 UNL     1      25.696   6.327  49.504  1.00  0.00     0.171 HD
ENDROOT
BRANCH   1   5
HETATM    5  C7  UNL     1      28.010   5.116  48.648  1.00  0.00    -0.005 C 
HETATM    6  C6  UNL     1      29.042   5.508  48.193  1.00  0.00    -0.095 C 
BRANCH   6   7
HETATM    7  C5  UNL     1      30.325   5.969  47.627  1.00  0.00     0.114 C 
BRANCH   7   8
HETATM    8  C4  UNL     1      31.409   5.667  48.596  1.00  0.00     0.129 C 
BRANCH   8   9
HETATM    9  N2  UNL     1      32.520   4.923  48.149  1.00  0.00    -0.408 N 
HETATM   10  C3  UNL     1      33.719   5.609  47.854  1.00  0.00     0.136 C 
HETATM   11  C2  UNL     1      33.824   5.977  46.424  1.00  0.00     0.135 C 
HETATM   12  N1  UNL     1      33.360   4.983  45.541  1.00  0.00    -0.414 N 
HETATM   13  C1  UNL     1      33.025   5.346  44.224  1.00  0.00     0.143 C 
HETATM   14  C17 UNL     1      32.965   3.732  46.027  1.00  0.00     0.135 C 
HETATM   15  C16 UNL     1      32.238   3.753  47.348  1.00  0.00     0.136 C 
ENDBRANCH   8   9
ENDBRANCH   7   8
ENDBRANCH   6   7
ENDBRANCH   1   5
BRANCH   3  16
HETATM   16  C9  UNL     1      24.792   4.188  50.040  1.00  0.00     0.131 A 
HETATM   17  C10 UNL     1      23.934   3.818  49.000  1.00  0.00     0.067 A 
HETATM   18  C11 UNL     1      23.051   2.761  49.275  1.00  0.00     0.038 A 
HETATM   19  C12 UNL     1      22.142   2.293  48.359  1.00  0.00     0.140 A 
HETATM   20  C14 UNL     1      23.091   2.180  50.513  1.00  0.00     0.089 A 
HETATM   21 CL1  UNL     1      22.078   3.023  46.775  1.00  0.00    -0.061 Cl
HETATM   22  N4  UNL     1      21.279   1.294  48.592  1.00  0.00    -0.229 NA
HETATM   23  C13 UNL     1      21.346   0.739  49.829  1.00  0.00     0.235 A 
HETATM   24  N5  UNL     1      22.224   1.174  50.749  1.00  0.00    -0.240 NA
HETATM   25  C15 UNL     1      23.961   2.574  51.527  1.00  0.00     0.151 A 
HETATM   26  N6  UNL     1      24.814   3.605  51.244  1.00  0.00    -0.241 NA
ENDBRANCH   3  16
TORSDOF 5
ENDMDL
