MODEL 1
REMARK VINA RESULT:      -7.3      0.000      0.000
REMARK  5 active torsions:
REMARK  status: ('A' for Active; 'I' for Inactive)
REMARK    1  A    between atoms: S1_1  and  O1_2 
REMARK    2  A    between atoms: O1_2  and  C1_3 
REMARK    3  A    between atoms: C1_3  and  C2_4 
REMARK    4  A    between atoms: C2_4  and  C3_5 
REMARK    5  A    between atoms: C2_4  and  C13_17 
ROOT
HETATM    1  C3  UNL     1      22.458   1.923  51.839  1.00  0.00     0.029 C 
HETATM    2  N1  UNL     1      22.373   3.254  52.218  1.00  0.00    -0.250 NA
HETATM    3  C4  UNL     1      21.025   3.958  52.187  1.00  0.00     0.227 C 
HETATM    4  N2  UNL     1      19.840   3.225  52.458  1.00  0.00    -0.270 NA
HETATM    5  C5  UNL     1      19.862   1.697  52.227  1.00  0.00     0.077 A 
HETATM    6  C6  UNL     1      19.116   1.226  51.071  1.00  0.00     0.025 C 
HETATM    7  C7  UNL     1      19.126  -0.155  51.824  1.00  0.00     0.021 C 
HETATM    8  C8  UNL     1      20.442   0.427  52.371  1.00  0.00     0.009 A 
HETATM    9  C9  UNL     1      20.878   1.109  53.281  1.00  0.00     0.010 A 
HETATM   10  C10 UNL     1      21.762   0.093  54.048  1.00  0.00     0.014 C 
HETATM   11  C11 UNL     1      22.570  -0.370  52.813  1.00  0.00     0.012 C 
HETATM   12  C12 UNL     1      21.851   0.577  51.808  1.00  0.00     0.046 C 
ENDROOT
BRANCH   1  13
HETATM   13  C2  UNL     1      23.810   1.873  51.148  1.00  0.00     0.092 C 
BRANCH  13  14
HETATM   14  C1  UNL     1      24.006   3.206  50.463  1.00  0.00     0.200 C 
BRANCH  14  15
HETATM   15  O1  UNL     1      24.816   3.133  49.332  1.00  0.00    -0.322 OA
BRANCH  15  16
HETATM   16  S1  UNL     1      26.228   4.100  49.568  1.00  0.00    -0.025 SA
HETATM   17  H1  UNL     1      26.483   4.137  50.972  1.00  0.00     0.133 HD
ENDBRANCH  15  16
ENDBRANCH  14  15
ENDBRANCH  13  14
BRANCH  13  18
HETATM   18  C13 UNL     1      24.910   1.650  52.135  1.00  0.00    -0.046 A 
HETATM   19  C14 UNL     1      25.114   2.258  53.356  1.00  0.00     0.008 A 
HETATM   20  C15 UNL     1      26.184   1.924  54.136  1.00  0.00     0.001 A 
HETATM   21  C16 UNL     1      27.117   0.977  53.771  1.00  0.00     0.000 A 
HETATM   22  C17 UNL     1      26.962   0.339  52.561  1.00  0.00     0.001 A 
HETATM   23  C18 UNL     1      25.875   0.695  51.794  1.00  0.00     0.008 A 
ENDBRANCH  13  18
ENDBRANCH   1  13
TORSDOF 5
ENDMDL
MODEL 2
REMARK VINA RESULT:      -7.1      3.004      4.885
REMARK  5 active torsions:
REMARK  status: ('A' for Active; 'I' for Inactive)
REMARK    1  A    between atoms: S1_1  and  O1_2 
REMARK    2  A    between atoms: O1_2  and  C1_3 
REMARK    3  A    between atoms: C1_3  and  C2_4 
REMARK    4  A    between atoms: C2_4  and  C3_5 
REMARK    5  A    between atoms: C2_4  and  C13_17 
ROOT
HETATM    1  C3  UNL     1      22.192   2.395  50.914  1.00  0.00     0.029 C 
HETATM    2  N1  UNL     1      21.837   1.163  50.385  1.00  0.00    -0.250 NA
HETATM    3  C4  UNL     1      21.497   1.052  48.907  1.00  0.00     0.227 C 
HETATM    4  N2  UNL     1      22.147   1.894  47.969  1.00  0.00    -0.270 NA
HETATM    5  C5  UNL     1      22.732   3.232  48.475  1.00  0.00     0.077 A 
HETATM    6  C6  UNL     1      22.008   4.428  48.072  1.00  0.00     0.025 C 
HETATM    7  C7  UNL     1      23.362   5.164  48.387  1.00  0.00     0.021 C 
HETATM    8  C8  UNL     1      23.486   3.995  49.382  1.00  0.00     0.009 A 
HETATM    9  C9  UNL     1      23.902   2.853  49.464  1.00  0.00     0.010 A 
HETATM   10  C10 UNL     1      25.049   3.003  50.494  1.00  0.00     0.014 C 
HETATM   11  C11 UNL     1      24.199   3.723  51.567  1.00  0.00     0.012 C 
HETATM   12  C12 UNL     1      22.877   3.693  50.746  1.00  0.00     0.046 C 
ENDROOT
BRANCH   1  13
HETATM   13  C2  UNL     1      21.577   2.336  52.303  1.00  0.00     0.092 C 
BRANCH  13  14
HETATM   14  C1  UNL     1      20.080   2.234  52.118  1.00  0.00     0.200 C 
BRANCH  14  15
HETATM   15  O1  UNL     1      19.417   3.447  52.290  1.00  0.00    -0.322 OA
BRANCH  15  16
HETATM   16  S1  UNL     1      18.777   3.977  50.775  1.00  0.00    -0.025 SA
HETATM   17  H1  UNL     1      17.389   3.643  50.765  1.00  0.00     0.133 HD
ENDBRANCH  15  16
ENDBRANCH  14  15
ENDBRANCH  13  14
BRANCH  13  18
HETATM   18  C13 UNL     1      22.072   1.145  53.059  1.00  0.00    -0.046 A 
HETATM   19  C14 UNL     1      23.338   0.599  53.083  1.00  0.00     0.008 A 
HETATM   20  C15 UNL     1      23.612  -0.501  53.843  1.00  0.00     0.001 A 
HETATM   21  C16 UNL     1      22.668  -1.134  54.623  1.00  0.00     0.000 A 
HETATM   22  C17 UNL     1      21.387  -0.631  54.636  1.00  0.00     0.001 A 
HETATM   23  C18 UNL     1      21.137   0.480  53.861  1.00  0.00     0.008 A 
ENDBRANCH  13  18
ENDBRANCH   1  13
TORSDOF 5
ENDMDL
MODEL 3
REMARK VINA RESULT:      -7.0      2.235      4.494
REMARK  5 active torsions:
REMARK  status: ('A' for Active; 'I' for Inactive)
REMARK    1  A    between atoms: S1_1  and  O1_2 
REMARK    2  A    between atoms: O1_2  and  C1_3 
REMARK    3  A    between atoms: C1_3  and  C2_4 
REMARK    4  A    between atoms: C2_4  and  C3_5 
REMARK    5  A    between atoms: C2_4  and  C13_17 
ROOT
HETATM    1  C3  UNL     1      23.434   2.405  51.521  1.00  0.00     0.029 C 
HETATM    2  N1  UNL     1      23.305   2.975  52.778  1.00  0.00    -0.250 NA
HETATM    3  C4  UNL     1      23.646   4.444  52.974  1.00  0.00     0.227 C 
HETATM    4  N2  UNL     1      23.421   5.366  51.920  1.00  0.00    -0.270 NA
HETATM    5  C5  UNL     1      23.380   4.822  50.474  1.00  0.00     0.077 A 
HETATM    6  C6  UNL     1      24.531   5.149  49.646  1.00  0.00     0.025 C 
HETATM    7  C7  UNL     1      23.557   4.847  48.448  1.00  0.00     0.021 C 
HETATM    8  C8  UNL     1      22.939   3.909  49.502  1.00  0.00     0.009 A 
HETATM    9  C9  UNL     1      22.109   3.891  50.392  1.00  0.00     0.010 A 
HETATM   10  C10 UNL     1      21.062   2.894  49.833  1.00  0.00     0.014 C 
HETATM   11  C11 UNL     1      22.074   1.763  49.531  1.00  0.00     0.012 C 
HETATM   12  C12 UNL     1      23.317   2.539  50.054  1.00  0.00     0.046 C 
ENDROOT
BRANCH   1  13
HETATM   13  C2  UNL     1      23.910   1.000  51.852  1.00  0.00     0.092 C 
BRANCH  13  14
HETATM   14  C1  UNL     1      25.222   1.142  52.591  1.00  0.00     0.200 C 
BRANCH  14  15
HETATM   15  O1  UNL     1      26.321   0.703  51.855  1.00  0.00    -0.322 OA
BRANCH  15  16
HETATM   16  S1  UNL     1      27.006  -0.690  52.613  1.00  0.00    -0.025 SA
HETATM   17  H1  UNL     1      28.267  -0.930  51.990  1.00  0.00     0.133 HD
ENDBRANCH  15  16
ENDBRANCH  14  15
ENDBRANCH  13  14
BRANCH  13  18
HETATM   18  C13 UNL     1      22.921   0.289  52.719  1.00  0.00    -0.046 A 
HETATM   19  C14 UNL     1      21.561   0.147  52.544  1.00  0.00     0.008 A 
HETATM   20  C15 UNL     1      20.807  -0.548  53.446  1.00  0.00     0.001 A 
HETATM   21  C16 UNL     1      21.335  -1.143  54.572  1.00  0.00     0.000 A 
HETATM   22  C17 UNL     1      22.689  -1.031  54.796  1.00  0.00     0.001 A 
HETATM   23  C18 UNL     1      23.426  -0.327  53.871  1.00  0.00     0.008 A 
ENDBRANCH  13  18
ENDBRANCH   1  13
TORSDOF 5
ENDMDL
MODEL 4
REMARK VINA RESULT:      -6.7      3.007      4.444
REMARK  5 active torsions:
REMARK  status: ('A' for Active; 'I' for Inactive)
REMARK    1  A    between atoms: S1_1  and  O1_2 
REMARK    2  A    between atoms: O1_2  and  C1_3 
REMARK    3  A    between atoms: C1_3  and  C2_4 
REMARK    4  A    between atoms: C2_4  and  C3_5 
REMARK    5  A    between atoms: C2_4  and  C13_17 
ROOT
HETATM    1  C3  UNL     1      23.830   1.278  52.684  1.00  0.00     0.029 C 
HETATM    2  N1  UNL     1      23.091   0.410  51.894  1.00  0.00    -0.250 NA
HETATM    3  C4  UNL     1      21.864   0.927  51.159  1.00  0.00     0.227 C 
HETATM    4  N2  UNL     1      21.834   2.266  50.692  1.00  0.00    -0.270 NA
HETATM    5  C5  UNL     1      22.743   3.301  51.393  1.00  0.00     0.077 A 
HETATM    6  C6  UNL     1      22.061   4.265  52.242  1.00  0.00     0.025 C 
HETATM    7  C7  UNL     1      23.363   5.125  52.046  1.00  0.00     0.021 C 
HETATM    8  C8  UNL     1      23.979   3.720  51.910  1.00  0.00     0.009 A 
HETATM    9  C9  UNL     1      24.226   2.863  51.082  1.00  0.00     0.010 A 
HETATM   10  C10 UNL     1      25.776   2.835  51.102  1.00  0.00     0.014 C 
HETATM   11  C11 UNL     1      25.905   2.660  52.634  1.00  0.00     0.012 C 
HETATM   12  C12 UNL     1      24.373   2.634  52.905  1.00  0.00     0.046 C 
ENDROOT
BRANCH   1  13
HETATM   13  C2  UNL     1      24.260   0.379  53.832  1.00  0.00     0.092 C 
BRANCH  13  14
HETATM   14  C1  UNL     1      23.365  -0.839  53.798  1.00  0.00     0.200 C 
BRANCH  14  15
HETATM   15  O1  UNL     1      22.484  -0.907  54.874  1.00  0.00    -0.322 OA
BRANCH  15  16
HETATM   16  S1  UNL     1      20.923  -1.391  54.315  1.00  0.00    -0.025 SA
HETATM   17  H1  UNL     1      20.981  -1.432  52.889  1.00  0.00     0.133 HD
ENDBRANCH  15  16
ENDBRANCH  14  15
ENDBRANCH  13  14
BRANCH  13  18
HETATM   18  C13 UNL     1      25.686  -0.042  53.677  1.00  0.00    -0.046 A 
HETATM   19  C14 UNL     1      26.274  -0.752  52.652  1.00  0.00     0.008 A 
HETATM   20  C15 UNL     1      27.607  -1.047  52.677  1.00  0.00     0.001 A 
HETATM   21  C16 UNL     1      28.445  -0.667  53.704  1.00  0.00     0.000 A 
HETATM   22  C17 UNL     1      27.910   0.044  54.755  1.00  0.00     0.001 A 
HETATM   23  C18 UNL     1      26.563   0.328  54.704  1.00  0.00     0.008 A 
ENDBRANCH  13  18
ENDBRANCH   1  13
TORSDOF 5
ENDMDL
MODEL 5
REMARK VINA RESULT:      -6.7      2.505      3.721
REMARK  5 active torsions:
REMARK  status: ('A' for Active; 'I' for Inactive)
REMARK    1  A    between atoms: S1_1  and  O1_2 
REMARK    2  A    between atoms: O1_2  and  C1_3 
REMARK    3  A    between atoms: C1_3  and  C2_4 
REMARK    4  A    between atoms: C2_4  and  C3_5 
REMARK    5  A    between atoms: C2_4  and  C13_17 
ROOT
HETATM    1  C3  UNL     1      22.640   2.808  50.577  1.00  0.00     0.029 C 
HETATM    2  N1  UNL     1      22.071   4.067  50.697  1.00  0.00    -0.250 NA
HETATM    3  C4  UNL     1      20.760   4.229  51.452  1.00  0.00     0.227 C 
HETATM    4  N2  UNL     1      20.471   3.380  52.551  1.00  0.00    -0.270 NA
HETATM    5  C5  UNL     1      21.175   2.005  52.614  1.00  0.00     0.077 A 
HETATM    6  C6  UNL     1      20.331   0.854  52.336  1.00  0.00     0.025 C 
HETATM    7  C7  UNL     1      21.444   0.049  53.103  1.00  0.00     0.021 C 
HETATM    8  C8  UNL     1      22.314   1.188  52.540  1.00  0.00     0.009 A 
HETATM    9  C9  UNL     1      22.711   2.308  52.809  1.00  0.00     0.010 A 
HETATM   10  C10 UNL     1      24.238   2.082  52.949  1.00  0.00     0.014 C 
HETATM   11  C11 UNL     1      24.414   1.375  51.585  1.00  0.00     0.012 C 
HETATM   12  C12 UNL     1      22.918   1.485  51.172  1.00  0.00     0.046 C 
ENDROOT
BRANCH   1  13
HETATM   13  C2  UNL     1      23.245   2.862  49.184  1.00  0.00     0.092 C 
BRANCH  13  14
HETATM   14  C1  UNL     1      22.121   3.184  48.226  1.00  0.00     0.200 C 
BRANCH  14  15
HETATM   15  O1  UNL     1      21.177   2.165  48.119  1.00  0.00    -0.322 OA
BRANCH  15  16
HETATM   16  S1  UNL     1      19.589   2.846  48.110  1.00  0.00    -0.025 SA
HETATM   17  H1  UNL     1      19.704   4.189  48.577  1.00  0.00     0.133 HD
ENDBRANCH  15  16
ENDBRANCH  14  15
ENDBRANCH  13  14
BRANCH  13  18
HETATM   18  C13 UNL     1      24.297   3.920  49.096  1.00  0.00    -0.046 A 
HETATM   19  C14 UNL     1      24.162   5.251  48.760  1.00  0.00     0.008 A 
HETATM   20  C15 UNL     1      25.245   6.081  48.735  1.00  0.00     0.001 A 
HETATM   21  C16 UNL     1      26.524   5.664  49.036  1.00  0.00     0.000 A 
HETATM   22  C17 UNL     1      26.716   4.344  49.378  1.00  0.00     0.001 A 
HETATM   23  C18 UNL     1      25.607   3.528  49.396  1.00  0.00     0.008 A 
ENDBRANCH  13  18
ENDBRANCH   1  13
TORSDOF 5
ENDMDL
MODEL 6
REMARK VINA RESULT:      -6.6      1.469      2.111
REMARK  5 active torsions:
REMARK  status: ('A' for Active; 'I' for Inactive)
REMARK    1  A    between atoms: S1_1  and  O1_2 
REMARK    2  A    between atoms: O1_2  and  C1_3 
REMARK    3  A    between atoms: C1_3  and  C2_4 
REMARK    4  A    between atoms: C2_4  and  C3_5 
REMARK    5  A    between atoms: C2_4  and  C13_17 
ROOT
HETATM    1  C3  UNL     1      23.699   2.481  51.774  1.00  0.00     0.029 C 
HETATM    2  N1  UNL     1      24.137   3.423  52.693  1.00  0.00    -0.250 NA
HETATM    3  C4  UNL     1      23.485   4.797  52.726  1.00  0.00     0.227 C 
HETATM    4  N2  UNL     1      22.111   4.933  52.402  1.00  0.00    -0.270 NA
HETATM    5  C5  UNL     1      21.462   3.848  51.512  1.00  0.00     0.077 A 
HETATM    6  C6  UNL     1      21.158   4.254  50.148  1.00  0.00     0.025 C 
HETATM    7  C7  UNL     1      20.155   3.042  50.178  1.00  0.00     0.021 C 
HETATM    8  C8  UNL     1      21.205   2.510  51.172  1.00  0.00     0.009 A 
HETATM    9  C9  UNL     1      21.486   2.516  52.357  1.00  0.00     0.010 A 
HETATM   10  C10 UNL     1      21.319   1.022  52.732  1.00  0.00     0.014 C 
HETATM   11  C11 UNL     1      22.224   0.477  51.602  1.00  0.00     0.012 C 
HETATM   12  C12 UNL     1      22.583   1.875  51.020  1.00  0.00     0.046 C 
ENDROOT
BRANCH   1  13
HETATM   13  C2  UNL     1      24.989   1.765  51.409  1.00  0.00     0.092 C 
BRANCH  13  14
HETATM   14  C1  UNL     1      25.920   2.804  50.825  1.00  0.00     0.200 C 
BRANCH  14  15
HETATM   15  O1  UNL     1      25.537   3.238  49.558  1.00  0.00    -0.322 OA
BRANCH  15  16
HETATM   16  S1  UNL     1      25.658   4.960  49.475  1.00  0.00    -0.025 SA
HETATM   17  H1  UNL     1      26.504   5.269  48.367  1.00  0.00     0.133 HD
ENDBRANCH  15  16
ENDBRANCH  14  15
ENDBRANCH  13  14
BRANCH  13  18
HETATM   18  C13 UNL     1      25.620   1.148  52.616  1.00  0.00    -0.046 A 
HETATM   19  C14 UNL     1      25.067   0.283  53.536  1.00  0.00     0.008 A 
HETATM   20  C15 UNL     1      25.802  -0.188  54.586  1.00  0.00     0.001 A 
HETATM   21  C16 UNL     1      27.120   0.158  54.800  1.00  0.00     0.000 A 
HETATM   22  C17 UNL     1      27.722   1.020  53.911  1.00  0.00     0.001 A 
HETATM   23  C18 UNL     1      26.959   1.479  52.861  1.00  0.00     0.008 A 
ENDBRANCH  13  18
ENDBRANCH   1  13
TORSDOF 5
ENDMDL
MODEL 7
REMARK VINA RESULT:      -6.5      2.952      5.884
REMARK  5 active torsions:
REMARK  status: ('A' for Active; 'I' for Inactive)
REMARK    1  A    between atoms: S1_1  and  O1_2 
REMARK    2  A    between atoms: O1_2  and  C1_3 
REMARK    3  A    between atoms: C1_3  and  C2_4 
REMARK    4  A    between atoms: C2_4  and  C3_5 
REMARK    5  A    between atoms: C2_4  and  C13_17 
ROOT
HETATM    1  C3  UNL     1      21.170   1.633  51.214  1.00  0.00     0.029 C 
HETATM    2  N1  UNL     1      20.365   2.465  51.977  1.00  0.00    -0.250 NA
HETATM    3  C4  UNL     1      20.883   3.834  52.393  1.00  0.00     0.227 C 
HETATM    4  N2  UNL     1      21.764   4.543  51.537  1.00  0.00    -0.270 NA
HETATM    5  C5  UNL     1      22.603   3.733  50.522  1.00  0.00     0.077 A 
HETATM    6  C6  UNL     1      24.022   3.624  50.824  1.00  0.00     0.025 C 
HETATM    7  C7  UNL     1      24.163   3.299  49.292  1.00  0.00     0.021 C 
HETATM    8  C8  UNL     1      22.740   2.756  49.523  1.00  0.00     0.009 A 
HETATM    9  C9  UNL     1      21.572   3.103  49.507  1.00  0.00     0.010 A 
HETATM   10  C10 UNL     1      21.005   2.263  48.335  1.00  0.00     0.014 C 
HETATM   11  C11 UNL     1      21.525   0.902  48.856  1.00  0.00     0.012 C 
HETATM   12  C12 UNL     1      22.178   1.482  50.144  1.00  0.00     0.046 C 
ENDROOT
BRANCH   1  13
HETATM   13  C2  UNL     1      20.818   0.258  51.759  1.00  0.00     0.092 C 
BRANCH  13  14
HETATM   14  C1  UNL     1      21.235   0.240  53.212  1.00  0.00     0.200 C 
BRANCH  14  15
HETATM   15  O1  UNL     1      22.182  -0.740  53.503  1.00  0.00    -0.322 OA
BRANCH  15  16
HETATM   16  S1  UNL     1      23.769  -0.077  53.345  1.00  0.00    -0.025 SA
HETATM   17  H1  UNL     1      23.724   1.252  53.864  1.00  0.00     0.133 HD
ENDBRANCH  15  16
ENDBRANCH  14  15
ENDBRANCH  13  14
BRANCH  13  18
HETATM   18  C13 UNL     1      19.349   0.001  51.656  1.00  0.00    -0.046 A 
HETATM   19  C14 UNL     1      18.490   0.290  50.617  1.00  0.00     0.008 A 
HETATM   20  C15 UNL     1      17.164  -0.024  50.696  1.00  0.00     0.001 A 
HETATM   21  C16 UNL     1      16.597  -0.638  51.792  1.00  0.00     0.000 A 
HETATM   22  C17 UNL     1      17.410  -0.949  52.860  1.00  0.00     0.001 A 
HETATM   23  C18 UNL     1      18.744  -0.622  52.754  1.00  0.00     0.008 A 
ENDBRANCH  13  18
ENDBRANCH   1  13
TORSDOF 5
ENDMDL
MODEL 8
REMARK VINA RESULT:      -6.4      2.413      4.182
REMARK  5 active torsions:
REMARK  status: ('A' for Active; 'I' for Inactive)
REMARK    1  A    between atoms: S1_1  and  O1_2 
REMARK    2  A    between atoms: O1_2  and  C1_3 
REMARK    3  A    between atoms: C1_3  and  C2_4 
REMARK    4  A    between atoms: C2_4  and  C3_5 
REMARK    5  A    between atoms: C2_4  and  C13_17 
ROOT
HETATM    1  C3  UNL     1      23.377   3.370  50.092  1.00  0.00     0.029 C 
HETATM    2  N1  UNL     1      23.083   4.003  51.290  1.00  0.00    -0.250 NA
HETATM    3  C4  UNL     1      22.755   5.488  51.293  1.00  0.00     0.227 C 
HETATM    4  N2  UNL     1      22.089   6.065  50.181  1.00  0.00    -0.270 NA
HETATM    5  C5  UNL     1      22.209   5.355  48.813  1.00  0.00     0.077 A 
HETATM    6  C6  UNL     1      23.050   6.021  47.831  1.00  0.00     0.025 C 
HETATM    7  C7  UNL     1      22.242   5.165  46.788  1.00  0.00     0.021 C 
HETATM    8  C8  UNL     1      22.159   4.214  47.997  1.00  0.00     0.009 A 
HETATM    9  C9  UNL     1      21.473   3.969  48.973  1.00  0.00     0.010 A 
HETATM   10  C10 UNL     1      20.940   2.552  48.642  1.00  0.00     0.014 C 
HETATM   11  C11 UNL     1      22.327   1.932  48.347  1.00  0.00     0.012 C 
HETATM   12  C12 UNL     1      23.130   3.231  48.643  1.00  0.00     0.046 C 
ENDROOT
BRANCH   1  13
HETATM   13  C2  UNL     1      24.440   2.368  50.512  1.00  0.00     0.092 C 
BRANCH  13  14
HETATM   14  C1  UNL     1      25.602   3.162  51.063  1.00  0.00     0.200 C 
BRANCH  14  15
HETATM   15  O1  UNL     1      26.765   3.036  50.306  1.00  0.00    -0.322 OA
BRANCH  15  16
HETATM   16  S1  UNL     1      26.895   4.371  49.217  1.00  0.00    -0.025 SA
HETATM   17  H1  UNL     1      28.286   4.613  49.011  1.00  0.00     0.133 HD
ENDBRANCH  15  16
ENDBRANCH  14  15
ENDBRANCH  13  14
BRANCH  13  18
HETATM   18  C13 UNL     1      23.919   1.444  51.565  1.00  0.00    -0.046 A 
HETATM   19  C14 UNL     1      22.642   0.951  51.731  1.00  0.00     0.008 A 
HETATM   20  C15 UNL     1      22.345   0.105  52.761  1.00  0.00     0.001 A 
HETATM   21  C16 UNL     1      23.276  -0.310  53.689  1.00  0.00     0.000 A 
HETATM   22  C17 UNL     1      24.568   0.152  53.571  1.00  0.00     0.001 A 
HETATM   23  C18 UNL     1      24.840   1.003  52.523  1.00  0.00     0.008 A 
ENDBRANCH  13  18
ENDBRANCH   1  13
TORSDOF 5
ENDMDL
MODEL 9
REMARK VINA RESULT:      -6.4      2.894      3.798
REMARK  5 active torsions:
REMARK  status: ('A' for Active; 'I' for Inactive)
REMARK    1  A    between atoms: S1_1  and  O1_2 
REMARK    2  A    between atoms: O1_2  and  C1_3 
REMARK    3  A    between atoms: C1_3  and  C2_4 
REMARK    4  A    between atoms: C2_4  and  C3_5 
REMARK    5  A    between atoms: C2_4  and  C13_17 
ROOT
HETATM    1  C3  UNL     1      22.307   2.273  51.714  1.00  0.00     0.029 C 
HETATM    2  N1  UNL     1      21.957   3.471  52.319  1.00  0.00    -0.250 NA
HETATM    3  C4  UNL     1      22.081   4.770  51.539  1.00  0.00     0.227 C 
HETATM    4  N2  UNL     1      21.870   4.773  50.136  1.00  0.00    -0.270 NA
HETATM    5  C5  UNL     1      22.072   3.447  49.367  1.00  0.00     0.077 A 
HETATM    6  C6  UNL     1      23.264   3.379  48.535  1.00  0.00     0.025 C 
HETATM    7  C7  UNL     1      22.488   2.230  47.791  1.00  0.00     0.021 C 
HETATM    8  C8  UNL     1      21.872   2.068  49.194  1.00  0.00     0.009 A 
HETATM    9  C9  UNL     1      20.949   2.466  49.882  1.00  0.00     0.010 A 
HETATM   10  C10 UNL     1      20.113   1.175  50.073  1.00  0.00     0.014 C 
HETATM   11  C11 UNL     1      21.289   0.303  50.573  1.00  0.00     0.012 C 
HETATM   12  C12 UNL     1      22.351   1.438  50.497  1.00  0.00     0.046 C 
ENDROOT
BRANCH   1  13
HETATM   13  C2  UNL     1      22.915   1.496  52.870  1.00  0.00     0.092 C 
BRANCH  13  14
HETATM   14  C1  UNL     1      22.072   0.255  53.059  1.00  0.00     0.200 C 
BRANCH  14  15
HETATM   15  O1  UNL     1      21.636   0.078  54.371  1.00  0.00    -0.322 OA
BRANCH  15  16
HETATM   16  S1  UNL     1      21.617  -1.607  54.752  1.00  0.00    -0.025 SA
HETATM   17  H1  UNL     1      20.282  -1.937  55.135  1.00  0.00     0.133 HD
ENDBRANCH  15  16
ENDBRANCH  14  15
ENDBRANCH  13  14
BRANCH  13  18
HETATM   18  C13 UNL     1      24.325   1.102  52.569  1.00  0.00    -0.046 A 
HETATM   19  C14 UNL     1      25.291   1.801  51.876  1.00  0.00     0.008 A 
HETATM   20  C15 UNL     1      26.541   1.282  51.699  1.00  0.00     0.001 A 
HETATM   21  C16 UNL     1      26.923   0.051  52.187  1.00  0.00     0.000 A 
HETATM   22  C17 UNL     1      25.997  -0.690  52.887  1.00  0.00     0.001 A 
HETATM   23  C18 UNL     1      24.745  -0.144  53.051  1.00  0.00     0.008 A 
ENDBRANCH  13  18
ENDBRANCH   1  13
TORSDOF 5
ENDMDL
