MODEL 1
REMARK VINA RESULT:      -7.8      0.000      0.000
REMARK  5 active torsions:
REMARK  status: ('A' for Active; 'I' for Inactive)
REMARK    1  A    between atoms: C2_2  and  O1_3 
REMARK    2  A    between atoms: C2_2  and  C3_4 
REMARK    3  A    between atoms: C7_8  and  C8_9 
REMARK    4  A    between atoms: C8_9  and  N1_10 
REMARK    5  A    between atoms: C8_9  and  N2_11 
ROOT
HETATM    1  C8  UNL     1      24.533   0.638  52.501  1.00  0.00     0.374 C 
ENDROOT
BRANCH   1   2
HETATM    2  C7  UNL     1      25.806  -0.091  52.707  1.00  0.00    -0.004 A 
HETATM    3  C6  UNL     1      26.054  -1.420  52.438  1.00  0.00     0.011 A 
HETATM    4  C5  UNL     1      27.292  -1.981  52.678  1.00  0.00     0.001 A 
HETATM    5  C4  UNL     1      28.324  -1.222  53.198  1.00  0.00     0.010 A 
HETATM    6  C3  UNL     1      28.120   0.127  53.486  1.00  0.00    -0.029 A 
HETATM    7  C16 UNL     1      26.868   0.641  53.230  1.00  0.00     0.021 A 
BRANCH   6   8
HETATM    8  C2  UNL     1      29.188   0.988  54.044  1.00  0.00     0.147 C 
HETATM    9  C1  UNL     1      28.941   2.444  53.780  1.00  0.00     0.044 C 
BRANCH   8  10
HETATM   10  O1  UNL     1      30.385   0.626  53.410  1.00  0.00    -0.391 OA
HETATM   11  H5  UNL     1      30.277  -0.202  52.911  1.00  0.00     0.210 HD
ENDBRANCH   8  10
ENDBRANCH   6   8
ENDBRANCH   1   2
BRANCH   1  12
HETATM   12  N1  UNL     1      24.760   1.979  53.062  1.00  0.00     0.107 N 
HETATM   13  H10 UNL     1      25.751   2.060  53.376  1.00  0.00     0.316 HD
HETATM   14  H11 UNL     1      24.162   2.121  53.911  1.00  0.00     0.316 HD
ENDBRANCH   1  12
BRANCH   1  15
HETATM   15  N2  UNL     1      23.469  -0.019  53.236  1.00  0.00    -0.231 N 
HETATM   16  N3  UNL     1      23.642  -0.699  54.357  1.00  0.00    -0.181 NA
HETATM   17  C9  UNL     1      22.477  -1.195  54.812  1.00  0.00     0.152 A 
HETATM   18  C10 UNL     1      21.494  -0.797  53.907  1.00  0.00     0.011 A 
HETATM   19  C11 UNL     1      20.130  -1.033  53.895  1.00  0.00     0.015 A 
HETATM   20  C15 UNL     1      22.155  -0.067  52.941  1.00  0.00     0.067 A 
HETATM   21  C12 UNL     1      19.393  -0.493  52.837  1.00  0.00     0.001 A 
HETATM   22  C13 UNL     1      20.046   0.244  51.858  1.00  0.00     0.002 A 
HETATM   23  C14 UNL     1      21.409   0.451  51.915  1.00  0.00     0.032 A 
ENDBRANCH   1  15
TORSDOF 5
ENDMDL
MODEL 2
REMARK VINA RESULT:      -7.8      3.516      6.431
REMARK  5 active torsions:
REMARK  status: ('A' for Active; 'I' for Inactive)
REMARK    1  A    between atoms: C2_2  and  O1_3 
REMARK    2  A    between atoms: C2_2  and  C3_4 
REMARK    3  A    between atoms: C7_8  and  C8_9 
REMARK    4  A    between atoms: C8_9  and  N1_10 
REMARK    5  A    between atoms: C8_9  and  N2_11 
ROOT
HETATM    1  C8  UNL     1      25.790   1.787  53.328  1.00  0.00     0.374 C 
ENDROOT
BRANCH   1   2
HETATM    2  C7  UNL     1      25.683   2.304  51.945  1.00  0.00    -0.004 A 
HETATM    3  C6  UNL     1      26.708   2.781  51.155  1.00  0.00     0.011 A 
HETATM    4  C5  UNL     1      26.473   3.237  49.874  1.00  0.00     0.001 A 
HETATM    5  C4  UNL     1      25.197   3.229  49.342  1.00  0.00     0.010 A 
HETATM    6  C3  UNL     1      24.129   2.755  50.103  1.00  0.00    -0.029 A 
HETATM    7  C16 UNL     1      24.413   2.310  51.376  1.00  0.00     0.021 A 
BRANCH   6   8
HETATM    8  C2  UNL     1      22.740   2.721  49.587  1.00  0.00     0.147 C 
HETATM    9  C1  UNL     1      22.022   1.461  49.968  1.00  0.00     0.044 C 
BRANCH   8  10
HETATM   10  O1  UNL     1      22.819   2.774  48.187  1.00  0.00    -0.391 OA
HETATM   11  H5  UNL     1      22.820   1.878  47.806  1.00  0.00     0.210 HD
ENDBRANCH   8  10
ENDBRANCH   6   8
ENDBRANCH   1   2
BRANCH   1  12
HETATM   12  N1  UNL     1      25.663   2.969  54.194  1.00  0.00     0.107 N 
HETATM   13  H10 UNL     1      26.610   3.363  54.384  1.00  0.00     0.316 HD
HETATM   14  H11 UNL     1      25.259   2.696  55.122  1.00  0.00     0.316 HD
ENDBRANCH   1  12
BRANCH   1  15
HETATM   15  N2  UNL     1      27.095   1.183  53.524  1.00  0.00    -0.231 N 
HETATM   16  N3  UNL     1      28.152   1.821  54.000  1.00  0.00    -0.181 NA
HETATM   17  C9  UNL     1      29.221   1.008  54.073  1.00  0.00     0.152 A 
HETATM   18  C10 UNL     1      28.806  -0.239  53.606  1.00  0.00     0.011 A 
HETATM   19  C11 UNL     1      29.502  -1.427  53.468  1.00  0.00     0.015 A 
HETATM   20  C15 UNL     1      27.476  -0.086  53.275  1.00  0.00     0.067 A 
HETATM   21  C12 UNL     1      28.802  -2.528  52.963  1.00  0.00     0.001 A 
HETATM   22  C13 UNL     1      27.462  -2.386  52.626  1.00  0.00     0.002 A 
HETATM   23  C14 UNL     1      26.813  -1.179  52.783  1.00  0.00     0.032 A 
ENDBRANCH   1  15
TORSDOF 5
ENDMDL
MODEL 3
REMARK VINA RESULT:      -7.8      2.598      6.785
REMARK  5 active torsions:
REMARK  status: ('A' for Active; 'I' for Inactive)
REMARK    1  A    between atoms: C2_2  and  O1_3 
REMARK    2  A    between atoms: C2_2  and  C3_4 
REMARK    3  A    between atoms: C7_8  and  C8_9 
REMARK    4  A    between atoms: C8_9  and  N1_10 
REMARK    5  A    between atoms: C8_9  and  N2_11 
ROOT
HETATM    1  C8  UNL     1      24.879   0.779  53.110  1.00  0.00     0.374 C 
ENDROOT
BRANCH   1   2
HETATM    2  C7  UNL     1      23.682   0.090  53.642  1.00  0.00    -0.004 A 
HETATM    3  C6  UNL     1      23.640  -0.826  54.671  1.00  0.00     0.011 A 
HETATM    4  C5  UNL     1      22.451  -1.399  55.073  1.00  0.00     0.001 A 
HETATM    5  C4  UNL     1      21.261  -1.070  54.451  1.00  0.00     0.010 A 
HETATM    6  C3  UNL     1      21.253  -0.148  53.405  1.00  0.00    -0.029 A 
HETATM    7  C16 UNL     1      22.465   0.396  53.040  1.00  0.00     0.021 A 
BRANCH   6   8
HETATM    8  C2  UNL     1      20.009   0.243  52.701  1.00  0.00     0.147 C 
HETATM    9  C1  UNL     1      18.879  -0.703  52.979  1.00  0.00     0.044 C 
BRANCH   8  10
HETATM   10  O1  UNL     1      20.283   0.206  51.327  1.00  0.00    -0.391 OA
HETATM   11  H5  UNL     1      20.116   1.073  50.916  1.00  0.00     0.210 HD
ENDBRANCH   8  10
ENDBRANCH   6   8
ENDBRANCH   1   2
BRANCH   1  12
HETATM   12  N1  UNL     1      24.494   1.247  51.770  1.00  0.00     0.107 N 
HETATM   13  H10 UNL     1      25.351   1.408  51.199  1.00  0.00     0.316 HD
HETATM   14  H11 UNL     1      23.999   2.169  51.837  1.00  0.00     0.316 HD
ENDBRANCH   1  12
BRANCH   1  15
HETATM   15  N2  UNL     1      25.975  -0.165  52.994  1.00  0.00    -0.231 N 
HETATM   16  N3  UNL     1      25.856  -1.397  52.526  1.00  0.00    -0.181 NA
HETATM   17  C9  UNL     1      27.039  -2.039  52.535  1.00  0.00     0.152 A 
HETATM   18  C10 UNL     1      27.975  -1.142  53.048  1.00  0.00     0.011 A 
HETATM   19  C11 UNL     1      29.333  -1.286  53.273  1.00  0.00     0.015 A 
HETATM   20  C15 UNL     1      27.271   0.012  53.321  1.00  0.00     0.067 A 
HETATM   21  C12 UNL     1      30.017  -0.189  53.806  1.00  0.00     0.001 A 
HETATM   22  C13 UNL     1      29.319   0.979  54.084  1.00  0.00     0.002 A 
HETATM   23  C14 UNL     1      27.964   1.073  53.842  1.00  0.00     0.032 A 
ENDBRANCH   1  15
TORSDOF 5
ENDMDL
MODEL 4
REMARK VINA RESULT:      -7.7      3.798      6.512
REMARK  5 active torsions:
REMARK  status: ('A' for Active; 'I' for Inactive)
REMARK    1  A    between atoms: C2_2  and  O1_3 
REMARK    2  A    between atoms: C2_2  and  C3_4 
REMARK    3  A    between atoms: C7_8  and  C8_9 
REMARK    4  A    between atoms: C8_9  and  N1_10 
REMARK    5  A    between atoms: C8_9  and  N2_11 
ROOT
HETATM    1  C8  UNL     1      25.434   1.482  51.989  1.00  0.00     0.374 C 
ENDROOT
BRANCH   1   2
HETATM    2  C7  UNL     1      25.563   2.695  51.151  1.00  0.00    -0.004 A 
HETATM    3  C6  UNL     1      26.439   2.893  50.104  1.00  0.00     0.011 A 
HETATM    4  C5  UNL     1      26.458   4.079  49.399  1.00  0.00     0.001 A 
HETATM    5  C4  UNL     1      25.595   5.109  49.723  1.00  0.00     0.010 A 
HETATM    6  C3  UNL     1      24.691   4.955  50.774  1.00  0.00    -0.029 A 
HETATM    7  C16 UNL     1      24.710   3.754  51.448  1.00  0.00     0.021 A 
BRANCH   6   8
HETATM    8  C2  UNL     1      23.743   6.024  51.166  1.00  0.00     0.147 C 
HETATM    9  C1  UNL     1      23.308   6.856  49.996  1.00  0.00     0.044 C 
BRANCH   8  10
HETATM   10  O1  UNL     1      24.413   6.860  52.071  1.00  0.00    -0.391 OA
HETATM   11  H5  UNL     1      25.374   6.707  52.038  1.00  0.00     0.210 HD
ENDBRANCH   8  10
ENDBRANCH   6   8
ENDBRANCH   1   2
BRANCH   1  12
HETATM   12  N1  UNL     1      24.500   1.850  53.063  1.00  0.00     0.107 N 
HETATM   13  H10 UNL     1      24.993   2.448  53.761  1.00  0.00     0.316 HD
HETATM   14  H11 UNL     1      24.179   0.992  53.574  1.00  0.00     0.316 HD
ENDBRANCH   1  12
BRANCH   1  15
HETATM   15  N2  UNL     1      26.723   1.147  52.564  1.00  0.00    -0.231 N 
HETATM   16  N3  UNL     1      27.576   2.030  53.057  1.00  0.00    -0.181 NA
HETATM   17  C9  UNL     1      28.686   1.430  53.523  1.00  0.00     0.152 A 
HETATM   18  C10 UNL     1      28.520   0.062  53.308  1.00  0.00     0.011 A 
HETATM   19  C11 UNL     1      29.354  -1.004  53.597  1.00  0.00     0.015 A 
HETATM   20  C15 UNL     1      27.285  -0.070  52.709  1.00  0.00     0.067 A 
HETATM   21  C12 UNL     1      28.904  -2.283  53.256  1.00  0.00     0.001 A 
HETATM   22  C13 UNL     1      27.662  -2.430  52.653  1.00  0.00     0.002 A 
HETATM   23  C14 UNL     1      26.867  -1.334  52.386  1.00  0.00     0.032 A 
ENDBRANCH   1  15
TORSDOF 5
ENDMDL
MODEL 5
REMARK VINA RESULT:      -7.7      2.730      6.595
REMARK  5 active torsions:
REMARK  status: ('A' for Active; 'I' for Inactive)
REMARK    1  A    between atoms: C2_2  and  O1_3 
REMARK    2  A    between atoms: C2_2  and  C3_4 
REMARK    3  A    between atoms: C7_8  and  C8_9 
REMARK    4  A    between atoms: C8_9  and  N1_10 
REMARK    5  A    between atoms: C8_9  and  N2_11 
ROOT
HETATM    1  C8  UNL     1      25.493   1.565  52.626  1.00  0.00     0.374 C 
ENDROOT
BRANCH   1   2
HETATM    2  C7  UNL     1      24.067   1.257  52.373  1.00  0.00    -0.004 A 
HETATM    3  C6  UNL     1      23.362   1.487  51.211  1.00  0.00     0.011 A 
HETATM    4  C5  UNL     1      22.028   1.151  51.103  1.00  0.00     0.001 A 
HETATM    5  C4  UNL     1      21.356   0.572  52.163  1.00  0.00     0.010 A 
HETATM    6  C3  UNL     1      22.028   0.320  53.359  1.00  0.00    -0.029 A 
HETATM    7  C16 UNL     1      23.358   0.673  53.418  1.00  0.00     0.021 A 
BRANCH   6   8
HETATM    8  C2  UNL     1      21.360  -0.299  54.528  1.00  0.00     0.147 C 
HETATM    9  C1  UNL     1      21.925  -1.648  54.857  1.00  0.00     0.044 C 
BRANCH   8  10
HETATM   10  O1  UNL     1      20.007  -0.460  54.195  1.00  0.00    -0.391 OA
HETATM   11  H5  UNL     1      19.864  -0.311  53.243  1.00  0.00     0.210 HD
ENDBRANCH   8  10
ENDBRANCH   6   8
ENDBRANCH   1   2
BRANCH   1  12
HETATM   12  N1  UNL     1      25.931   2.353  51.465  1.00  0.00     0.107 N 
HETATM   13  H10 UNL     1      25.487   1.974  50.601  1.00  0.00     0.316 HD
HETATM   14  H11 UNL     1      26.968   2.262  51.336  1.00  0.00     0.316 HD
ENDBRANCH   1  12
BRANCH   1  15
HETATM   15  N2  UNL     1      26.255   0.332  52.688  1.00  0.00    -0.231 N 
HETATM   16  N3  UNL     1      25.778  -0.861  52.371  1.00  0.00    -0.181 NA
HETATM   17  C9  UNL     1      26.712  -1.816  52.524  1.00  0.00     0.152 A 
HETATM   18  C10 UNL     1      27.867  -1.177  52.971  1.00  0.00     0.011 A 
HETATM   19  C11 UNL     1      29.116  -1.686  53.284  1.00  0.00     0.015 A 
HETATM   20  C15 UNL     1      27.539   0.160  53.060  1.00  0.00     0.067 A 
HETATM   21  C12 UNL     1      30.091  -0.779  53.713  1.00  0.00     0.001 A 
HETATM   22  C13 UNL     1      29.773   0.569  53.807  1.00  0.00     0.002 A 
HETATM   23  C14 UNL     1      28.512   1.027  53.482  1.00  0.00     0.032 A 
ENDBRANCH   1  15
TORSDOF 5
ENDMDL
MODEL 6
REMARK VINA RESULT:      -7.5      4.127      6.998
REMARK  5 active torsions:
REMARK  status: ('A' for Active; 'I' for Inactive)
REMARK    1  A    between atoms: C2_2  and  O1_3 
REMARK    2  A    between atoms: C2_2  and  C3_4 
REMARK    3  A    between atoms: C7_8  and  C8_9 
REMARK    4  A    between atoms: C8_9  and  N1_10 
REMARK    5  A    between atoms: C8_9  and  N2_11 
ROOT
HETATM    1  C8  UNL     1      24.715   1.982  51.713  1.00  0.00     0.374 C 
ENDROOT
BRANCH   1   2
HETATM    2  C7  UNL     1      23.352   1.407  51.676  1.00  0.00    -0.004 A 
HETATM    3  C6  UNL     1      22.512   1.329  50.585  1.00  0.00     0.011 A 
HETATM    4  C5  UNL     1      21.257   0.765  50.685  1.00  0.00     0.001 A 
HETATM    5  C4  UNL     1      20.802   0.259  51.888  1.00  0.00     0.010 A 
HETATM    6  C3  UNL     1      21.615   0.316  53.019  1.00  0.00    -0.029 A 
HETATM    7  C16 UNL     1      22.860   0.888  52.870  1.00  0.00     0.021 A 
BRANCH   6   8
HETATM    8  C2  UNL     1      21.181  -0.210  54.335  1.00  0.00     0.147 C 
HETATM    9  C1  UNL     1      22.238  -1.049  54.989  1.00  0.00     0.044 C 
BRANCH   8  10
HETATM   10  O1  UNL     1      20.059  -1.020  54.107  1.00  0.00    -0.391 OA
HETATM   11  H5  UNL     1      19.305  -0.489  53.795  1.00  0.00     0.210 HD
ENDBRANCH   8  10
ENDBRANCH   6   8
ENDBRANCH   1   2
BRANCH   1  12
HETATM   12  N1  UNL     1      25.114   1.943  53.127  1.00  0.00     0.107 N 
HETATM   13  H10 UNL     1      25.027   2.897  53.539  1.00  0.00     0.316 HD
HETATM   14  H11 UNL     1      26.123   1.669  53.212  1.00  0.00     0.316 HD
ENDBRANCH   1  12
BRANCH   1  15
HETATM   15  N2  UNL     1      24.676   3.361  51.261  1.00  0.00    -0.231 N 
HETATM   16  N3  UNL     1      23.782   4.253  51.655  1.00  0.00    -0.181 NA
HETATM   17  C9  UNL     1      23.994   5.446  51.071  1.00  0.00     0.152 A 
HETATM   18  C10 UNL     1      25.107   5.294  50.245  1.00  0.00     0.011 A 
HETATM   19  C11 UNL     1      25.749   6.202  49.421  1.00  0.00     0.015 A 
HETATM   20  C15 UNL     1      25.501   3.981  50.393  1.00  0.00     0.067 A 
HETATM   21  C12 UNL     1      26.860   5.746  48.704  1.00  0.00     0.001 A 
HETATM   22  C13 UNL     1      27.266   4.426  48.844  1.00  0.00     0.002 A 
HETATM   23  C14 UNL     1      26.592   3.559  49.680  1.00  0.00     0.032 A 
ENDBRANCH   1  15
TORSDOF 5
ENDMDL
MODEL 7
REMARK VINA RESULT:      -7.4      3.422      4.517
REMARK  5 active torsions:
REMARK  status: ('A' for Active; 'I' for Inactive)
REMARK    1  A    between atoms: C2_2  and  O1_3 
REMARK    2  A    between atoms: C2_2  and  C3_4 
REMARK    3  A    between atoms: C7_8  and  C8_9 
REMARK    4  A    between atoms: C8_9  and  N1_10 
REMARK    5  A    between atoms: C8_9  and  N2_11 
ROOT
HETATM    1  C8  UNL     1      23.386   2.871  52.798  1.00  0.00     0.374 C 
ENDROOT
BRANCH   1   2
HETATM    2  C7  UNL     1      23.507   3.042  51.333  1.00  0.00    -0.004 A 
HETATM    3  C6  UNL     1      22.740   2.437  50.360  1.00  0.00     0.011 A 
HETATM    4  C5  UNL     1      22.956   2.683  49.020  1.00  0.00     0.001 A 
HETATM    5  C4  UNL     1      23.954   3.547  48.611  1.00  0.00     0.010 A 
HETATM    6  C3  UNL     1      24.756   4.183  49.558  1.00  0.00    -0.029 A 
HETATM    7  C16 UNL     1      24.502   3.906  50.883  1.00  0.00     0.021 A 
BRANCH   6   8
HETATM    8  C2  UNL     1      25.840   5.119  49.179  1.00  0.00     0.147 C 
HETATM    9  C1  UNL     1      27.151   4.419  48.978  1.00  0.00     0.044 C 
BRANCH   8  10
HETATM   10  O1  UNL     1      25.988   6.029  50.236  1.00  0.00    -0.391 OA
HETATM   11  H5  UNL     1      25.212   6.009  50.823  1.00  0.00     0.210 HD
ENDBRANCH   8  10
ENDBRANCH   6   8
ENDBRANCH   1   2
BRANCH   1  12
HETATM   12  N1  UNL     1      24.572   3.532  53.364  1.00  0.00     0.107 N 
HETATM   13  H10 UNL     1      25.421   3.228  52.841  1.00  0.00     0.316 HD
HETATM   14  H11 UNL     1      24.710   3.237  54.361  1.00  0.00     0.316 HD
ENDBRANCH   1  12
BRANCH   1  15
HETATM   15  N2  UNL     1      23.417   1.459  53.129  1.00  0.00    -0.231 N 
HETATM   16  N3  UNL     1      24.518   0.728  53.195  1.00  0.00    -0.181 NA
HETATM   17  C9  UNL     1      24.239  -0.545  53.525  1.00  0.00     0.152 A 
HETATM   18  C10 UNL     1      22.856  -0.624  53.680  1.00  0.00     0.011 A 
HETATM   19  C11 UNL     1      22.045  -1.695  54.014  1.00  0.00     0.015 A 
HETATM   20  C15 UNL     1      22.383   0.646  53.424  1.00  0.00     0.067 A 
HETATM   21  C12 UNL     1      20.669  -1.459  54.093  1.00  0.00     0.001 A 
HETATM   22  C13 UNL     1      20.180  -0.185  53.838  1.00  0.00     0.002 A 
HETATM   23  C14 UNL     1      21.031   0.851  53.509  1.00  0.00     0.032 A 
ENDBRANCH   1  15
TORSDOF 5
ENDMDL
MODEL 8
REMARK VINA RESULT:      -7.2      2.579      3.762
REMARK  5 active torsions:
REMARK  status: ('A' for Active; 'I' for Inactive)
REMARK    1  A    between atoms: C2_2  and  O1_3 
REMARK    2  A    between atoms: C2_2  and  C3_4 
REMARK    3  A    between atoms: C7_8  and  C8_9 
REMARK    4  A    between atoms: C8_9  and  N1_10 
REMARK    5  A    between atoms: C8_9  and  N2_11 
ROOT
HETATM    1  C8  UNL     1      23.368   1.274  53.079  1.00  0.00     0.374 C 
ENDROOT
BRANCH   1   2
HETATM    2  C7  UNL     1      24.675   0.578  53.047  1.00  0.00    -0.004 A 
HETATM    3  C6  UNL     1      24.893  -0.772  52.876  1.00  0.00     0.011 A 
HETATM    4  C5  UNL     1      26.169  -1.297  52.865  1.00  0.00     0.001 A 
HETATM    5  C4  UNL     1      27.272  -0.480  53.025  1.00  0.00     0.010 A 
HETATM    6  C3  UNL     1      27.102   0.893  53.200  1.00  0.00    -0.029 A 
HETATM    7  C16 UNL     1      25.809   1.370  53.205  1.00  0.00     0.021 A 
BRANCH   6   8
HETATM    8  C2  UNL     1      28.246   1.817  53.377  1.00  0.00     0.147 C 
HETATM    9  C1  UNL     1      29.389   1.174  54.104  1.00  0.00     0.044 C 
BRANCH   8  10
HETATM   10  O1  UNL     1      27.790   2.897  54.147  1.00  0.00    -0.391 OA
HETATM   11  H5  UNL     1      27.336   3.554  53.590  1.00  0.00     0.210 HD
ENDBRANCH   8  10
ENDBRANCH   6   8
ENDBRANCH   1   2
BRANCH   1  12
HETATM   12  N1  UNL     1      22.480   0.394  53.853  1.00  0.00     0.107 N 
HETATM   13  H10 UNL     1      22.710  -0.602  53.642  1.00  0.00     0.316 HD
HETATM   14  H11 UNL     1      21.483   0.541  53.564  1.00  0.00     0.316 HD
ENDBRANCH   1  12
BRANCH   1  15
HETATM   15  N2  UNL     1      22.855   1.412  51.729  1.00  0.00    -0.231 N 
HETATM   16  N3  UNL     1      21.977   0.593  51.174  1.00  0.00    -0.181 NA
HETATM   17  C9  UNL     1      21.685   0.969  49.916  1.00  0.00     0.152 A 
HETATM   18  C10 UNL     1      22.437   2.115  49.658  1.00  0.00     0.011 A 
HETATM   19  C11 UNL     1      22.517   2.905  48.525  1.00  0.00     0.015 A 
HETATM   20  C15 UNL     1      23.151   2.356  50.814  1.00  0.00     0.067 A 
HETATM   21  C12 UNL     1      23.376   4.008  48.569  1.00  0.00     0.001 A 
HETATM   22  C13 UNL     1      24.100   4.262  49.726  1.00  0.00     0.002 A 
HETATM   23  C14 UNL     1      23.985   3.443  50.831  1.00  0.00     0.032 A 
ENDBRANCH   1  15
TORSDOF 5
ENDMDL
MODEL 9
REMARK VINA RESULT:      -7.2      2.856      6.613
REMARK  5 active torsions:
REMARK  status: ('A' for Active; 'I' for Inactive)
REMARK    1  A    between atoms: C2_2  and  O1_3 
REMARK    2  A    between atoms: C2_2  and  C3_4 
REMARK    3  A    between atoms: C7_8  and  C8_9 
REMARK    4  A    between atoms: C8_9  and  N1_10 
REMARK    5  A    between atoms: C8_9  and  N2_11 
ROOT
HETATM    1  C8  UNL     1      24.979   1.513  53.107  1.00  0.00     0.374 C 
ENDROOT
BRANCH   1   2
HETATM    2  C7  UNL     1      23.644   1.026  52.690  1.00  0.00    -0.004 A 
HETATM    3  C6  UNL     1      22.761   0.279  53.441  1.00  0.00     0.011 A 
HETATM    4  C5  UNL     1      21.540  -0.113  52.932  1.00  0.00     0.001 A 
HETATM    5  C4  UNL     1      21.164   0.233  51.647  1.00  0.00     0.010 A 
HETATM    6  C3  UNL     1      22.024   0.988  50.850  1.00  0.00    -0.029 A 
HETATM    7  C16 UNL     1      23.231   1.356  51.403  1.00  0.00     0.021 A 
BRANCH   6   8
HETATM    8  C2  UNL     1      21.675   1.389  49.467  1.00  0.00     0.147 C 
HETATM    9  C1  UNL     1      22.617   2.420  48.920  1.00  0.00     0.044 C 
BRANCH   8  10
HETATM   10  O1  UNL     1      20.391   1.950  49.511  1.00  0.00    -0.391 OA
HETATM   11  H5  UNL     1      20.236   2.523  48.739  1.00  0.00     0.210 HD
ENDBRANCH   8  10
ENDBRANCH   6   8
ENDBRANCH   1   2
BRANCH   1  12
HETATM   12  N1  UNL     1      25.342   2.538  52.118  1.00  0.00     0.107 N 
HETATM   13  H10 UNL     1      24.609   3.280  52.102  1.00  0.00     0.316 HD
HETATM   14  H11 UNL     1      25.370   2.121  51.157  1.00  0.00     0.316 HD
ENDBRANCH   1  12
BRANCH   1  15
HETATM   15  N2  UNL     1      25.936   0.424  53.047  1.00  0.00    -0.231 N 
HETATM   16  N3  UNL     1      25.646  -0.809  52.662  1.00  0.00    -0.181 NA
HETATM   17  C9  UNL     1      26.731  -1.602  52.706  1.00  0.00     0.152 A 
HETATM   18  C10 UNL     1      27.787  -0.809  53.153  1.00  0.00     0.011 A 
HETATM   19  C11 UNL     1      29.117  -1.120  53.378  1.00  0.00     0.015 A 
HETATM   20  C15 UNL     1      27.248   0.445  53.353  1.00  0.00     0.067 A 
HETATM   21  C12 UNL     1      29.950  -0.093  53.833  1.00  0.00     0.001 A 
HETATM   22  C13 UNL     1      29.419   1.174  54.039  1.00  0.00     0.002 A 
HETATM   23  C14 UNL     1      28.086   1.434  53.800  1.00  0.00     0.032 A 
ENDBRANCH   1  15
TORSDOF 5
ENDMDL
