MODEL 1
REMARK VINA RESULT:      -8.3      0.000      0.000
REMARK  3 active torsions:
REMARK  status: ('A' for Active; 'I' for Inactive)
REMARK    1  A    between atoms: C8_9  and  C15_17 
REMARK    2  A    between atoms: C9_10  and  O1_11 
REMARK    3  A    between atoms: C18_21  and  C19_22 
ROOT
HETATM    1  C1  UNL     1      22.053   4.807  52.658  1.00  0.00     0.045 C 
HETATM    2  C2  UNL     1      22.248   4.326  51.483  1.00  0.00     0.050 C 
HETATM    3  N1  UNL     1      22.412   4.896  50.130  1.00  0.00    -0.362 N 
HETATM    4  C3  UNL     1      23.662   4.160  49.840  1.00  0.00     0.227 C 
HETATM    5  C4  UNL     1      24.691   4.761  48.997  1.00  0.00     0.054 C 
HETATM    6  C5  UNL     1      26.046   4.603  49.645  1.00  0.00     0.008 C 
HETATM    7  C6  UNL     1      26.602   3.275  49.916  1.00  0.00     0.032 C 
HETATM    8  C7  UNL     1      25.938   2.396  50.919  1.00  0.00    -0.077 A 
HETATM    9  C8  UNL     1      25.103   1.717  51.637  1.00  0.00     0.066 A 
HETATM   10  C9  UNL     1      25.537   1.942  53.174  1.00  0.00     0.145 A 
HETATM   11  C10 UNL     1      25.649   0.325  53.395  1.00  0.00    -0.040 A 
HETATM   12  C11 UNL     1      26.572  -0.205  54.226  1.00  0.00     0.006 A 
HETATM   13  C12 UNL     1      27.865   0.242  53.765  1.00  0.00    -0.002 A 
HETATM   14  C13 UNL     1      27.353   0.989  52.756  1.00  0.00    -0.010 A 
HETATM   15  C14 UNL     1      26.227   1.444  52.058  1.00  0.00     0.033 A 
HETATM   16  C15 UNL     1      24.786   0.939  52.460  1.00  0.00     0.029 A 
HETATM   17  C16 UNL     1      23.242   0.742  52.414  1.00  0.00     0.136 C 
HETATM   18  N2  UNL     1      22.408   1.813  52.319  1.00  0.00    -0.385 N 
HETATM   19  C17 UNL     1      22.217   2.849  51.297  1.00  0.00     0.091 C 
HETATM   20  C18 UNL     1      22.291   2.191  50.121  1.00  0.00     0.137 C 
HETATM   21  O3  UNL     1      23.170   2.937  49.337  1.00  0.00    -0.321 OA
HETATM   22  H3  UNL     1      21.883   5.570  49.552  1.00  0.00     0.162 HD
HETATM   23  H19 UNL     1      21.809   1.867  53.178  1.00  0.00     0.159 HD
ENDROOT
BRANCH  10  24
HETATM   24  O1  UNL     1      26.441   2.831  53.397  1.00  0.00    -0.392 OA
HETATM   25  H13 UNL     1      26.198   3.755  53.464  1.00  0.00     0.210 HD
ENDBRANCH  10  24
BRANCH  20  26
HETATM   26  C19 UNL     1      21.646   0.962  49.665  1.00  0.00     0.297 C 
HETATM   27  O2  UNL     1      20.473   0.899  50.175  1.00  0.00    -0.299 OA
ENDBRANCH  20  26
TORSDOF 3
ENDMDL
MODEL 2
REMARK VINA RESULT:      -7.8      3.116      4.809
REMARK  3 active torsions:
REMARK  status: ('A' for Active; 'I' for Inactive)
REMARK    1  A    between atoms: C8_9  and  C15_17 
REMARK    2  A    between atoms: C9_10  and  O1_11 
REMARK    3  A    between atoms: C18_21  and  C19_22 
ROOT
HETATM    1  C1  UNL     1      23.553   4.765  53.146  1.00  0.00     0.045 C 
HETATM    2  C2  UNL     1      22.823   4.724  52.090  1.00  0.00     0.050 C 
HETATM    3  N1  UNL     1      21.508   5.274  51.702  1.00  0.00    -0.362 N 
HETATM    4  C3  UNL     1      22.000   5.888  50.449  1.00  0.00     0.227 C 
HETATM    5  C4  UNL     1      21.407   7.128  49.956  1.00  0.00     0.054 C 
HETATM    6  C5  UNL     1      22.496   8.100  49.565  1.00  0.00     0.008 C 
HETATM    7  C6  UNL     1      23.455   7.772  48.508  1.00  0.00     0.032 C 
HETATM    8  C7  UNL     1      24.424   6.660  48.721  1.00  0.00    -0.077 A 
HETATM    9  C8  UNL     1      25.011   5.541  49.003  1.00  0.00     0.066 A 
HETATM   10  C9  UNL     1      26.371   5.925  49.781  1.00  0.00     0.145 A 
HETATM   11  C10 UNL     1      27.249   5.071  48.696  1.00  0.00    -0.040 A 
HETATM   12  C11 UNL     1      28.489   5.466  48.336  1.00  0.00     0.006 A 
HETATM   13  C12 UNL     1      28.375   6.807  47.814  1.00  0.00    -0.002 A 
HETATM   14  C13 UNL     1      27.041   6.885  48.045  1.00  0.00    -0.010 A 
HETATM   15  C14 UNL     1      25.871   6.274  48.516  1.00  0.00     0.033 A 
HETATM   16  C15 UNL     1      25.907   4.782  49.033  1.00  0.00     0.029 A 
HETATM   17  C16 UNL     1      25.405   3.413  49.578  1.00  0.00     0.136 C 
HETATM   18  N2  UNL     1      24.600   3.355  50.673  1.00  0.00    -0.385 N 
HETATM   19  C17 UNL     1      23.251   3.862  50.955  1.00  0.00     0.091 C 
HETATM   20  C18 UNL     1      22.549   3.620  49.828  1.00  0.00     0.137 C 
HETATM   21  O3  UNL     1      21.895   4.817  49.538  1.00  0.00    -0.321 OA
HETATM   22  H3  UNL     1      20.561   5.267  52.118  1.00  0.00     0.162 HD
HETATM   23  H19 UNL     1      25.092   2.842  51.443  1.00  0.00     0.159 HD
ENDROOT
BRANCH  10  24
HETATM   24  O1  UNL     1      26.518   7.160  50.116  1.00  0.00    -0.392 OA
HETATM   25  H13 UNL     1      27.353   7.602  49.959  1.00  0.00     0.210 HD
ENDBRANCH  10  24
BRANCH  20  26
HETATM   26  C19 UNL     1      22.433   2.417  49.008  1.00  0.00     0.297 C 
HETATM   27  O2  UNL     1      22.264   1.408  49.778  1.00  0.00    -0.299 OA
ENDBRANCH  20  26
TORSDOF 3
ENDMDL
MODEL 3
REMARK VINA RESULT:      -7.5      2.443      4.683
REMARK  3 active torsions:
REMARK  status: ('A' for Active; 'I' for Inactive)
REMARK    1  A    between atoms: C8_9  and  C15_17 
REMARK    2  A    between atoms: C9_10  and  O1_11 
REMARK    3  A    between atoms: C18_21  and  C19_22 
ROOT
HETATM    1  C1  UNL     1      22.173   5.096  52.232  1.00  0.00     0.045 C 
HETATM    2  C2  UNL     1      22.920   4.298  51.557  1.00  0.00     0.050 C 
HETATM    3  N1  UNL     1      24.375   4.073  51.438  1.00  0.00    -0.362 N 
HETATM    4  C3  UNL     1      24.290   2.615  51.676  1.00  0.00     0.227 C 
HETATM    5  C4  UNL     1      25.374   1.917  52.362  1.00  0.00     0.054 C 
HETATM    6  C5  UNL     1      24.808   1.012  53.431  1.00  0.00     0.008 C 
HETATM    7  C6  UNL     1      23.900  -0.085  53.087  1.00  0.00     0.032 C 
HETATM    8  C7  UNL     1      22.552   0.228  52.536  1.00  0.00    -0.077 A 
HETATM    9  C8  UNL     1      21.542   0.695  51.876  1.00  0.00     0.066 A 
HETATM   10  C9  UNL     1      20.384   0.987  52.960  1.00  0.00     0.145 A 
HETATM   11  C10 UNL     1      19.343   0.042  52.124  1.00  0.00    -0.040 A 
HETATM   12  C11 UNL     1      18.404  -0.694  52.757  1.00  0.00     0.006 A 
HETATM   13  C12 UNL     1      19.095  -1.558  53.685  1.00  0.00    -0.002 A 
HETATM   14  C13 UNL     1      20.321  -1.063  53.379  1.00  0.00    -0.010 A 
HETATM   15  C14 UNL     1      21.098  -0.175  52.624  1.00  0.00     0.033 A 
HETATM   16  C15 UNL     1      20.418   0.748  51.538  1.00  0.00     0.029 A 
HETATM   17  C16 UNL     1      20.275   1.783  50.383  1.00  0.00     0.136 C 
HETATM   18  N2  UNL     1      20.883   2.997  50.461  1.00  0.00    -0.385 N 
HETATM   19  C17 UNL     1      22.289   3.413  50.540  1.00  0.00     0.091 C 
HETATM   20  C18 UNL     1      22.937   2.604  49.675  1.00  0.00     0.137 C 
HETATM   21  O3  UNL     1      24.040   2.122  50.378  1.00  0.00    -0.321 OA
HETATM   22  H3  UNL     1      25.196   4.675  51.261  1.00  0.00     0.162 HD
HETATM   23  H19 UNL     1      20.157   3.753  50.470  1.00  0.00     0.159 HD
ENDROOT
BRANCH  10  24
HETATM   24  O1  UNL     1      20.714   0.888  54.201  1.00  0.00    -0.392 OA
HETATM   25  H13 UNL     1      20.805   1.677  54.737  1.00  0.00     0.210 HD
ENDBRANCH  10  24
BRANCH  20  26
HETATM   26  C19 UNL     1      22.636   2.237  48.294  1.00  0.00     0.297 C 
HETATM   27  O2  UNL     1      22.189   3.269  47.681  1.00  0.00    -0.299 OA
ENDBRANCH  20  26
TORSDOF 3
ENDMDL
MODEL 4
REMARK VINA RESULT:      -7.5      1.901      4.030
REMARK  3 active torsions:
REMARK  status: ('A' for Active; 'I' for Inactive)
REMARK    1  A    between atoms: C8_9  and  C15_17 
REMARK    2  A    between atoms: C9_10  and  O1_11 
REMARK    3  A    between atoms: C18_21  and  C19_22 
ROOT
HETATM    1  C1  UNL     1      21.917   0.949  48.941  1.00  0.00     0.045 C 
HETATM    2  C2  UNL     1      21.358   1.282  50.047  1.00  0.00     0.050 C 
HETATM    3  N1  UNL     1      20.172   0.826  50.801  1.00  0.00    -0.362 N 
HETATM    4  C3  UNL     1      20.903   0.643  52.075  1.00  0.00     0.227 C 
HETATM    5  C4  UNL     1      20.506  -0.410  53.006  1.00  0.00     0.054 C 
HETATM    6  C5  UNL     1      21.724  -1.172  53.471  1.00  0.00     0.008 C 
HETATM    7  C6  UNL     1      22.802  -0.500  54.202  1.00  0.00     0.032 C 
HETATM    8  C7  UNL     1      23.623   0.531  53.507  1.00  0.00    -0.077 A 
HETATM    9  C8  UNL     1      24.057   1.532  52.811  1.00  0.00     0.066 A 
HETATM   10  C9  UNL     1      25.310   0.982  51.957  1.00  0.00     0.145 A 
HETATM   11  C10 UNL     1      26.264   2.160  52.574  1.00  0.00    -0.040 A 
HETATM   12  C11 UNL     1      27.576   1.943  52.813  1.00  0.00     0.006 A 
HETATM   13  C12 UNL     1      27.663   0.822  53.718  1.00  0.00    -0.002 A 
HETATM   14  C13 UNL     1      26.322   0.625  53.755  1.00  0.00    -0.010 A 
HETATM   15  C14 UNL     1      25.044   1.017  53.335  1.00  0.00     0.033 A 
HETATM   16  C15 UNL     1      24.866   2.280  52.404  1.00  0.00     0.029 A 
HETATM   17  C16 UNL     1      24.166   3.397  51.576  1.00  0.00     0.136 C 
HETATM   18  N2  UNL     1      23.201   3.086  50.669  1.00  0.00    -0.385 N 
HETATM   19  C17 UNL     1      21.876   2.465  50.786  1.00  0.00     0.091 C 
HETATM   20  C18 UNL     1      21.336   3.012  51.896  1.00  0.00     0.137 C 
HETATM   21  O3  UNL     1      20.844   1.936  52.634  1.00  0.00    -0.321 OA
HETATM   22  H3  UNL     1      19.176   0.668  50.573  1.00  0.00     0.162 HD
HETATM   23  H19 UNL     1      23.521   3.359  49.708  1.00  0.00     0.159 HD
ENDROOT
BRANCH  10  24
HETATM   24  O1  UNL     1      25.515  -0.289  51.980  1.00  0.00    -0.392 OA
HETATM   25  H13 UNL     1      26.322  -0.638  52.360  1.00  0.00     0.210 HD
ENDBRANCH  10  24
BRANCH  20  26
HETATM   26  C19 UNL     1      21.240   4.403  52.333  1.00  0.00     0.297 C 
HETATM   27  O2  UNL     1      21.142   5.154  51.300  1.00  0.00    -0.299 OA
ENDBRANCH  20  26
TORSDOF 3
ENDMDL
MODEL 5
REMARK VINA RESULT:      -7.4      3.010      5.078
REMARK  3 active torsions:
REMARK  status: ('A' for Active; 'I' for Inactive)
REMARK    1  A    between atoms: C8_9  and  C15_17 
REMARK    2  A    between atoms: C9_10  and  O1_11 
REMARK    3  A    between atoms: C18_21  and  C19_22 
ROOT
HETATM    1  C1  UNL     1      21.679   0.858  48.540  1.00  0.00     0.045 C 
HETATM    2  C2  UNL     1      20.843   1.506  49.267  1.00  0.00     0.050 C 
HETATM    3  N1  UNL     1      19.383   1.730  49.240  1.00  0.00    -0.362 N 
HETATM    4  C3  UNL     1      19.173   1.327  50.648  1.00  0.00     0.227 C 
HETATM    5  C4  UNL     1      17.933   0.669  51.049  1.00  0.00     0.054 C 
HETATM    6  C5  UNL     1      18.242  -0.539  51.901  1.00  0.00     0.008 C 
HETATM    7  C6  UNL     1      18.947  -0.400  53.178  1.00  0.00     0.032 C 
HETATM    8  C7  UNL     1      20.365   0.057  53.183  1.00  0.00    -0.077 A 
HETATM    9  C8  UNL     1      21.488   0.672  52.992  1.00  0.00     0.066 A 
HETATM   10  C9  UNL     1      22.603  -0.474  52.781  1.00  0.00     0.145 A 
HETATM   11  C10 UNL     1      23.501   0.156  53.994  1.00  0.00    -0.040 A 
HETATM   12  C11 UNL     1      24.238  -0.636  54.803  1.00  0.00     0.006 A 
HETATM   13  C12 UNL     1      23.334  -1.587  55.406  1.00  0.00    -0.002 A 
HETATM   14  C13 UNL     1      22.248  -1.120  54.740  1.00  0.00    -0.010 A 
HETATM   15  C14 UNL     1      21.707  -0.204  53.827  1.00  0.00     0.033 A 
HETATM   16  C15 UNL     1      22.622   0.911  53.184  1.00  0.00     0.029 A 
HETATM   17  C16 UNL     1      23.037   2.154  52.344  1.00  0.00     0.136 C 
HETATM   18  N2  UNL     1      22.666   2.265  51.040  1.00  0.00    -0.385 N 
HETATM   19  C17 UNL     1      21.362   2.358  50.371  1.00  0.00     0.091 C 
HETATM   20  C18 UNL     1      20.634   3.185  51.152  1.00  0.00     0.137 C 
HETATM   21  O3  UNL     1      19.414   2.535  51.336  1.00  0.00    -0.321 OA
HETATM   22  H3  UNL     1      18.705   2.046  48.527  1.00  0.00     0.162 HD
HETATM   23  H19 UNL     1      23.520   2.273  50.431  1.00  0.00     0.159 HD
ENDROOT
BRANCH  10  24
HETATM   24  O1  UNL     1      22.177  -1.684  52.663  1.00  0.00    -0.392 OA
HETATM   25  H13 UNL     1      22.668  -2.316  52.137  1.00  0.00     0.210 HD
ENDBRANCH  10  24
BRANCH  20  26
HETATM   26  C19 UNL     1      20.953   4.485  51.735  1.00  0.00     0.297 C 
HETATM   27  O2  UNL     1      21.670   5.145  50.904  1.00  0.00    -0.299 OA
ENDBRANCH  20  26
TORSDOF 3
ENDMDL
MODEL 6
REMARK VINA RESULT:      -7.3      1.893      2.693
REMARK  3 active torsions:
REMARK  status: ('A' for Active; 'I' for Inactive)
REMARK    1  A    between atoms: C8_9  and  C15_17 
REMARK    2  A    between atoms: C9_10  and  O1_11 
REMARK    3  A    between atoms: C18_21  and  C19_22 
ROOT
HETATM    1  C1  UNL     1      21.822   6.951  51.009  1.00  0.00     0.045 C 
HETATM    2  C2  UNL     1      22.243   6.553  49.862  1.00  0.00     0.050 C 
HETATM    3  N1  UNL     1      23.004   7.167  48.755  1.00  0.00    -0.362 N 
HETATM    4  C3  UNL     1      24.005   6.079  48.681  1.00  0.00     0.227 C 
HETATM    5  C4  UNL     1      25.384   6.373  48.299  1.00  0.00     0.054 C 
HETATM    6  C5  UNL     1      26.338   5.694  49.253  1.00  0.00     0.008 C 
HETATM    7  C6  UNL     1      26.357   4.236  49.391  1.00  0.00     0.032 C 
HETATM    8  C7  UNL     1      25.172   3.541  49.968  1.00  0.00    -0.077 A 
HETATM    9  C8  UNL     1      23.986   3.122  50.271  1.00  0.00     0.066 A 
HETATM   10  C9  UNL     1      23.934   3.028  51.881  1.00  0.00     0.145 A 
HETATM   11  C10 UNL     1      23.486   1.457  51.789  1.00  0.00    -0.040 A 
HETATM   12  C11 UNL     1      23.884   0.562  52.719  1.00  0.00     0.006 A 
HETATM   13  C12 UNL     1      25.328   0.582  52.738  1.00  0.00    -0.002 A 
HETATM   14  C13 UNL     1      25.421   1.557  51.800  1.00  0.00    -0.010 A 
HETATM   15  C14 UNL     1      24.775   2.439  50.924  1.00  0.00     0.033 A 
HETATM   16  C15 UNL     1      23.201   2.422  50.796  1.00  0.00     0.029 A 
HETATM   17  C16 UNL     1      21.774   2.771  50.283  1.00  0.00     0.136 C 
HETATM   18  N2  UNL     1      21.372   4.067  50.180  1.00  0.00    -0.385 N 
HETATM   19  C17 UNL     1      21.843   5.204  49.379  1.00  0.00     0.091 C 
HETATM   20  C18 UNL     1      22.104   4.682  48.162  1.00  0.00     0.137 C 
HETATM   21  O3  UNL     1      23.370   5.157  47.823  1.00  0.00    -0.321 OA
HETATM   22  H3  UNL     1      22.919   8.035  48.202  1.00  0.00     0.162 HD
HETATM   23  H19 UNL     1      20.567   4.237  50.830  1.00  0.00     0.159 HD
ENDROOT
BRANCH  10  24
HETATM   24  O1  UNL     1      24.933   3.526  52.524  1.00  0.00    -0.392 OA
HETATM   25  H13 UNL     1      24.937   3.520  53.481  1.00  0.00     0.210 HD
ENDBRANCH  10  24
BRANCH  20  26
HETATM   26  C19 UNL     1      21.315   3.802  47.304  1.00  0.00     0.297 C 
HETATM   27  O2  UNL     1      22.095   2.938  46.771  1.00  0.00    -0.299 OA
ENDBRANCH  20  26
TORSDOF 3
ENDMDL
MODEL 7
REMARK VINA RESULT:      -7.3      7.904     10.838
REMARK  3 active torsions:
REMARK  status: ('A' for Active; 'I' for Inactive)
REMARK    1  A    between atoms: C8_9  and  C15_17 
REMARK    2  A    between atoms: C9_10  and  O1_11 
REMARK    3  A    between atoms: C18_21  and  C19_22 
ROOT
HETATM    1  C1  UNL     1      33.273   6.557  44.234  1.00  0.00     0.045 C 
HETATM    2  C2  UNL     1      33.776   6.982  45.337  1.00  0.00     0.050 C 
HETATM    3  N1  UNL     1      34.667   8.094  45.723  1.00  0.00    -0.362 N 
HETATM    4  C3  UNL     1      33.772   8.600  46.788  1.00  0.00     0.227 C 
HETATM    5  C4  UNL     1      33.714  10.029  47.082  1.00  0.00     0.054 C 
HETATM    6  C5  UNL     1      32.274  10.476  47.184  1.00  0.00     0.008 C 
HETATM    7  C6  UNL     1      31.380   9.912  48.198  1.00  0.00     0.032 C 
HETATM    8  C7  UNL     1      31.004   8.472  48.121  1.00  0.00    -0.077 A 
HETATM    9  C8  UNL     1      30.983   7.184  48.009  1.00  0.00     0.066 A 
HETATM   10  C9  UNL     1      29.730   6.829  47.059  1.00  0.00     0.145 A 
HETATM   11  C10 UNL     1      29.121   5.836  48.208  1.00  0.00    -0.040 A 
HETATM   12  C11 UNL     1      27.788   5.699  48.377  1.00  0.00     0.006 A 
HETATM   13  C12 UNL     1      27.254   7.014  48.639  1.00  0.00    -0.002 A 
HETATM   14  C13 UNL     1      28.455   7.631  48.513  1.00  0.00    -0.010 A 
HETATM   15  C14 UNL     1      29.832   7.529  48.271  1.00  0.00     0.033 A 
HETATM   16  C15 UNL     1      30.497   6.114  48.049  1.00  0.00     0.029 A 
HETATM   17  C16 UNL     1      31.599   5.038  47.823  1.00  0.00     0.136 C 
HETATM   18  N2  UNL     1      32.520   5.186  46.833  1.00  0.00    -0.385 N 
HETATM   19  C17 UNL     1      33.566   6.183  46.575  1.00  0.00     0.091 C 
HETATM   20  C18 UNL     1      34.115   6.427  47.784  1.00  0.00     0.137 C 
HETATM   21  O3  UNL     1      34.162   7.816  47.893  1.00  0.00    -0.321 OA
HETATM   22  H3  UNL     1      35.585   8.442  45.400  1.00  0.00     0.162 HD
HETATM   23  H19 UNL     1      32.414   4.410  46.136  1.00  0.00     0.159 HD
ENDROOT
BRANCH  10  24
HETATM   24  O1  UNL     1      29.142   7.818  46.480  1.00  0.00    -0.392 OA
HETATM   25  H13 UNL     1      28.727   7.696  45.626  1.00  0.00     0.210 HD
ENDBRANCH  10  24
BRANCH  20  26
HETATM   26  C19 UNL     1      34.584   5.518  48.827  1.00  0.00     0.297 C 
HETATM   27  O2  UNL     1      35.043   4.458  48.274  1.00  0.00    -0.299 OA
ENDBRANCH  20  26
TORSDOF 3
ENDMDL
MODEL 8
REMARK VINA RESULT:      -7.2      2.384      4.413
REMARK  3 active torsions:
REMARK  status: ('A' for Active; 'I' for Inactive)
REMARK    1  A    between atoms: C8_9  and  C15_17 
REMARK    2  A    between atoms: C9_10  and  O1_11 
REMARK    3  A    between atoms: C18_21  and  C19_22 
ROOT
HETATM    1  C1  UNL     1      22.620   2.147  47.621  1.00  0.00     0.045 C 
HETATM    2  C2  UNL     1      22.326   3.166  48.345  1.00  0.00     0.050 C 
HETATM    3  N1  UNL     1      21.275   4.204  48.316  1.00  0.00    -0.362 N 
HETATM    4  C3  UNL     1      20.874   4.008  49.727  1.00  0.00     0.227 C 
HETATM    5  C4  UNL     1      19.485   4.205  50.131  1.00  0.00     0.054 C 
HETATM    6  C5  UNL     1      19.030   3.049  50.991  1.00  0.00     0.008 C 
HETATM    7  C6  UNL     1      19.687   2.753  52.267  1.00  0.00     0.032 C 
HETATM    8  C7  UNL     1      21.103   2.292  52.269  1.00  0.00    -0.077 A 
HETATM    9  C8  UNL     1      22.372   2.129  52.074  1.00  0.00     0.066 A 
HETATM   10  C9  UNL     1      22.602   0.546  51.870  1.00  0.00     0.145 A 
HETATM   11  C10 UNL     1      23.704   0.535  53.079  1.00  0.00    -0.040 A 
HETATM   12  C11 UNL     1      23.838  -0.535  53.892  1.00  0.00     0.006 A 
HETATM   13  C12 UNL     1      22.551  -0.771  54.501  1.00  0.00    -0.002 A 
HETATM   14  C13 UNL     1      21.943   0.241  53.833  1.00  0.00    -0.010 A 
HETATM   15  C14 UNL     1      22.039   1.295  52.915  1.00  0.00     0.033 A 
HETATM   16  C15 UNL     1      23.432   1.658  52.265  1.00  0.00     0.029 A 
HETATM   17  C16 UNL     1      24.494   2.417  51.417  1.00  0.00     0.136 C 
HETATM   18  N2  UNL     1      24.254   2.719  50.112  1.00  0.00    -0.385 N 
HETATM   19  C17 UNL     1      23.251   3.557  49.444  1.00  0.00     0.091 C 
HETATM   20  C18 UNL     1      23.149   4.657  50.219  1.00  0.00     0.137 C 
HETATM   21  O3  UNL     1      21.780   4.848  50.408  1.00  0.00    -0.321 OA
HETATM   22  H3  UNL     1      20.909   4.854  47.601  1.00  0.00     0.162 HD
HETATM   23  H19 UNL     1      24.948   2.222  49.504  1.00  0.00     0.159 HD
ENDROOT
BRANCH  10  24
HETATM   24  O1  UNL     1      21.547  -0.184  51.759  1.00  0.00    -0.392 OA
HETATM   25  H13 UNL     1      20.743   0.064  52.217  1.00  0.00     0.210 HD
ENDBRANCH  10  24
BRANCH  20  26
HETATM   26  C19 UNL     1      24.172   5.525  50.795  1.00  0.00     0.297 C 
HETATM   27  O2  UNL     1      23.802   5.877  51.970  1.00  0.00    -0.299 OA
ENDBRANCH  20  26
TORSDOF 3
ENDMDL
MODEL 9
REMARK VINA RESULT:      -6.9      2.250      3.896
REMARK  3 active torsions:
REMARK  status: ('A' for Active; 'I' for Inactive)
REMARK    1  A    between atoms: C8_9  and  C15_17 
REMARK    2  A    between atoms: C9_10  and  O1_11 
REMARK    3  A    between atoms: C18_21  and  C19_22 
ROOT
HETATM    1  C1  UNL     1      25.357   6.329  48.358  1.00  0.00     0.045 C 
HETATM    2  C2  UNL     1      24.093   6.103  48.398  1.00  0.00     0.050 C 
HETATM    3  N1  UNL     1      23.039   5.858  47.392  1.00  0.00    -0.362 N 
HETATM    4  C3  UNL     1      22.538   4.627  48.042  1.00  0.00     0.227 C 
HETATM    5  C4  UNL     1      21.993   3.538  47.236  1.00  0.00     0.054 C 
HETATM    6  C5  UNL     1      22.577   2.220  47.687  1.00  0.00     0.008 C 
HETATM    7  C6  UNL     1      22.369   1.731  49.052  1.00  0.00     0.032 C 
HETATM    8  C7  UNL     1      22.973   2.473  50.194  1.00  0.00    -0.077 A 
HETATM    9  C8  UNL     1      23.378   3.365  51.039  1.00  0.00     0.066 A 
HETATM   10  C9  UNL     1      24.905   2.990  51.400  1.00  0.00     0.145 A 
HETATM   11  C10 UNL     1      24.535   2.953  52.993  1.00  0.00    -0.040 A 
HETATM   12  C11 UNL     1      25.145   2.089  53.833  1.00  0.00     0.006 A 
HETATM   13  C12 UNL     1      24.909   0.760  53.321  1.00  0.00    -0.002 A 
HETATM   14  C13 UNL     1      24.221   1.197  52.237  1.00  0.00    -0.010 A 
HETATM   15  C14 UNL     1      23.703   2.272  51.503  1.00  0.00     0.033 A 
HETATM   16  C15 UNL     1      23.859   3.749  52.040  1.00  0.00     0.029 A 
HETATM   17  C16 UNL     1      23.705   5.296  52.126  1.00  0.00     0.136 C 
HETATM   18  N2  UNL     1      23.978   6.081  51.049  1.00  0.00    -0.385 N 
HETATM   19  C17 UNL     1      23.391   6.185  49.707  1.00  0.00     0.091 C 
HETATM   20  C18 UNL     1      22.059   6.087  49.906  1.00  0.00     0.137 C 
HETATM   21  O3  UNL     1      21.618   5.145  48.978  1.00  0.00    -0.321 OA
HETATM   22  H3  UNL     1      22.727   6.333  46.530  1.00  0.00     0.162 HD
HETATM   23  H19 UNL     1      24.783   6.715  51.272  1.00  0.00     0.159 HD
ENDROOT
BRANCH  10  24
HETATM   24  O1  UNL     1      25.455   2.061  50.698  1.00  0.00    -0.392 OA
HETATM   25  H13 UNL     1      25.394   2.082  49.742  1.00  0.00     0.210 HD
ENDBRANCH  10  24
BRANCH  20  26
HETATM   26  C19 UNL     1      21.177   6.760  50.855  1.00  0.00     0.297 C 
HETATM   27  O2  UNL     1      21.429   8.016  50.834  1.00  0.00    -0.299 OA
ENDBRANCH  20  26
TORSDOF 3
ENDMDL
