MODEL 1
REMARK VINA RESULT:      -7.7      0.000      0.000
REMARK  8 active torsions:
REMARK  status: ('A' for Active; 'I' for Inactive)
REMARK    1  A    between atoms: C1_2  and  C2_3 
REMARK    2  A    between atoms: C1_2  and  C17_19 
REMARK    3  A    between atoms: C2_3  and  C3_4 
REMARK    4  A    between atoms: C6_7  and  O2_8 
REMARK    5  A    between atoms: O2_8  and  C7_9 
REMARK    6  A    between atoms: C7_9  and  C8_10 
REMARK    7  A    between atoms: C8_10  and  C9_11 
REMARK    8  A    between atoms: C17_19  and  N1_20 
ROOT
HETATM    1  C3  UNL     1      24.175   0.761  52.720  1.00  0.00    -0.051 A 
HETATM    2  C4  UNL     1      22.936   0.840  52.072  1.00  0.00     0.010 A 
HETATM    3  C5  UNL     1      22.330   2.055  51.815  1.00  0.00     0.037 A 
HETATM    4  C6  UNL     1      22.944   3.231  52.197  1.00  0.00     0.068 A 
HETATM    5  C15 UNL     1      24.165   3.251  52.840  1.00  0.00     0.037 A 
HETATM    6  C16 UNL     1      24.721   2.000  53.069  1.00  0.00     0.010 A 
ENDROOT
BRANCH   1   7
HETATM    7  C2  UNL     1      24.912  -0.462  53.051  1.00  0.00     0.118 C 
BRANCH   7   8
HETATM    8  C1  UNL     1      25.269  -0.591  54.489  1.00  0.00     0.159 C 
HETATM    9  O1  UNL     1      24.501  -1.007  55.369  1.00  0.00    -0.296 OA
BRANCH   8  10
HETATM   10  C17 UNL     1      26.668  -0.158  54.744  1.00  0.00     0.350 C 
BRANCH  10  11
HETATM   11  N1  UNL     1      27.451  -0.098  53.538  1.00  0.00     0.099 N 
HETATM   12  C18 UNL     1      28.154   1.122  53.324  1.00  0.00     0.299 C 
HETATM   13  C19 UNL     1      29.474   1.031  54.066  1.00  0.00     0.198 C 
HETATM   14  O3  UNL     1      30.199   0.026  53.440  1.00  0.00    -0.388 OA
HETATM   15  C20 UNL     1      29.640  -1.232  53.596  1.00  0.00     0.198 C 
HETATM   16  C21 UNL     1      28.182  -1.303  53.330  1.00  0.00     0.299 C 
ENDBRANCH  10  11
ENDBRANCH   8  10
ENDBRANCH   7   8
ENDBRANCH   1   7
BRANCH   4  17
HETATM   17  O2  UNL     1      22.294   4.428  51.915  1.00  0.00    -0.351 OA
BRANCH  17  18
HETATM   18  C7  UNL     1      22.894   5.417  51.078  1.00  0.00     0.180 C 
BRANCH  18  19
HETATM   19  C8  UNL     1      23.117   4.847  49.687  1.00  0.00     0.065 C 
BRANCH  19  20
HETATM   20  C9  UNL     1      24.561   4.867  49.386  1.00  0.00    -0.056 A 
HETATM   21  C10 UNL     1      25.315   5.903  48.889  1.00  0.00     0.007 A 
HETATM   22  C11 UNL     1      26.669   5.745  48.661  1.00  0.00     0.001 A 
HETATM   23  C12 UNL     1      27.328   4.549  48.916  1.00  0.00     0.000 A 
HETATM   24  C13 UNL     1      26.568   3.498  49.418  1.00  0.00     0.001 A 
HETATM   25  C14 UNL     1      25.216   3.669  49.642  1.00  0.00     0.007 A 
ENDBRANCH  19  20
ENDBRANCH  18  19
ENDBRANCH  17  18
ENDBRANCH   4  17
TORSDOF 8
ENDMDL
MODEL 2
REMARK VINA RESULT:      -7.6      4.126      7.709
REMARK  8 active torsions:
REMARK  status: ('A' for Active; 'I' for Inactive)
REMARK    1  A    between atoms: C1_2  and  C2_3 
REMARK    2  A    between atoms: C1_2  and  C17_19 
REMARK    3  A    between atoms: C2_3  and  C3_4 
REMARK    4  A    between atoms: C6_7  and  O2_8 
REMARK    5  A    between atoms: O2_8  and  C7_9 
REMARK    6  A    between atoms: C7_9  and  C8_10 
REMARK    7  A    between atoms: C8_10  and  C9_11 
REMARK    8  A    between atoms: C17_19  and  N1_20 
ROOT
HETATM    1  C3  UNL     1      27.254   6.144  48.349  1.00  0.00    -0.051 A 
HETATM    2  C4  UNL     1      27.730   4.860  48.638  1.00  0.00     0.010 A 
HETATM    3  C5  UNL     1      26.958   3.939  49.320  1.00  0.00     0.037 A 
HETATM    4  C6  UNL     1      25.684   4.273  49.735  1.00  0.00     0.068 A 
HETATM    5  C15 UNL     1      25.132   5.514  49.494  1.00  0.00     0.037 A 
HETATM    6  C16 UNL     1      25.957   6.394  48.806  1.00  0.00     0.010 A 
ENDROOT
BRANCH   1   7
HETATM    7  C2  UNL     1      27.977   7.206  47.641  1.00  0.00     0.118 C 
BRANCH   7   8
HETATM    8  C1  UNL     1      29.036   7.868  48.447  1.00  0.00     0.159 C 
HETATM    9  O1  UNL     1      28.820   8.653  49.382  1.00  0.00    -0.296 OA
BRANCH   8  10
HETATM   10  C17 UNL     1      30.394   7.472  47.991  1.00  0.00     0.350 C 
BRANCH  10  11
HETATM   11  N1  UNL     1      31.305   7.279  49.088  1.00  0.00     0.099 N 
HETATM   12  C18 UNL     1      31.545   5.923  49.454  1.00  0.00     0.299 C 
HETATM   13  C19 UNL     1      32.651   5.392  48.563  1.00  0.00     0.198 C 
HETATM   14  O3  UNL     1      33.792   6.113  48.893  1.00  0.00    -0.388 OA
HETATM   15  C20 UNL     1      33.708   7.455  48.559  1.00  0.00     0.198 C 
HETATM   16  C21 UNL     1      32.448   8.122  48.972  1.00  0.00     0.299 C 
ENDBRANCH  10  11
ENDBRANCH   8  10
ENDBRANCH   7   8
ENDBRANCH   1   7
BRANCH   4  17
HETATM   17  O2  UNL     1      24.947   3.311  50.417  1.00  0.00    -0.351 OA
BRANCH  17  18
HETATM   18  C7  UNL     1      25.353   2.840  51.702  1.00  0.00     0.180 C 
BRANCH  18  19
HETATM   19  C8  UNL     1      25.665   1.354  51.631  1.00  0.00     0.065 C 
BRANCH  19  20
HETATM   20  C9  UNL     1      26.880   1.079  52.421  1.00  0.00    -0.056 A 
HETATM   21  C10 UNL     1      27.414  -0.138  52.768  1.00  0.00     0.007 A 
HETATM   22  C11 UNL     1      28.570  -0.212  53.524  1.00  0.00     0.001 A 
HETATM   23  C12 UNL     1      29.238   0.922  53.966  1.00  0.00     0.000 A 
HETATM   24  C13 UNL     1      28.700   2.155  53.618  1.00  0.00     0.001 A 
HETATM   25  C14 UNL     1      27.545   2.215  52.862  1.00  0.00     0.007 A 
ENDBRANCH  19  20
ENDBRANCH  18  19
ENDBRANCH  17  18
ENDBRANCH   4  17
TORSDOF 8
ENDMDL
MODEL 3
REMARK VINA RESULT:      -7.5      4.279      7.535
REMARK  8 active torsions:
REMARK  status: ('A' for Active; 'I' for Inactive)
REMARK    1  A    between atoms: C1_2  and  C2_3 
REMARK    2  A    between atoms: C1_2  and  C17_19 
REMARK    3  A    between atoms: C2_3  and  C3_4 
REMARK    4  A    between atoms: C6_7  and  O2_8 
REMARK    5  A    between atoms: O2_8  and  C7_9 
REMARK    6  A    between atoms: C7_9  and  C8_10 
REMARK    7  A    between atoms: C8_10  and  C9_11 
REMARK    8  A    between atoms: C17_19  and  N1_20 
ROOT
HETATM    1  C3  UNL     1      27.719   6.071  48.451  1.00  0.00    -0.051 A 
HETATM    2  C4  UNL     1      26.702   6.869  48.988  1.00  0.00     0.010 A 
HETATM    3  C5  UNL     1      25.657   6.324  49.707  1.00  0.00     0.037 A 
HETATM    4  C6  UNL     1      25.594   4.960  49.914  1.00  0.00     0.068 A 
HETATM    5  C15 UNL     1      26.552   4.095  49.424  1.00  0.00     0.037 A 
HETATM    6  C16 UNL     1      27.575   4.704  48.710  1.00  0.00     0.010 A 
ENDROOT
BRANCH   1   7
HETATM    7  C2  UNL     1      28.872   6.530  47.670  1.00  0.00     0.118 C 
BRANCH   7   8
HETATM    8  C1  UNL     1      29.987   7.076  48.488  1.00  0.00     0.159 C 
HETATM    9  O1  UNL     1      30.031   8.232  48.934  1.00  0.00    -0.296 OA
BRANCH   8  10
HETATM   10  C17 UNL     1      31.050   6.060  48.707  1.00  0.00     0.350 C 
BRANCH  10  11
HETATM   11  N1  UNL     1      31.694   5.668  47.482  1.00  0.00     0.099 N 
HETATM   12  C18 UNL     1      32.768   6.504  47.059  1.00  0.00     0.299 C 
HETATM   13  C19 UNL     1      34.026   6.031  47.762  1.00  0.00     0.198 C 
HETATM   14  O3  UNL     1      34.283   4.756  47.276  1.00  0.00    -0.388 OA
HETATM   15  C20 UNL     1      33.325   3.825  47.643  1.00  0.00     0.198 C 
HETATM   16  C21 UNL     1      31.922   4.262  47.439  1.00  0.00     0.299 C 
ENDBRANCH  10  11
ENDBRANCH   8  10
ENDBRANCH   7   8
ENDBRANCH   1   7
BRANCH   4  17
HETATM   17  O2  UNL     1      24.522   4.459  50.644  1.00  0.00    -0.351 OA
BRANCH  17  18
HETATM   18  C7  UNL     1      24.302   3.053  50.768  1.00  0.00     0.180 C 
BRANCH  18  19
HETATM   19  C8  UNL     1      24.091   2.692  52.229  1.00  0.00     0.065 C 
BRANCH  19  20
HETATM   20  C9  UNL     1      24.765   1.409  52.509  1.00  0.00    -0.056 A 
HETATM   21  C10 UNL     1      24.354   0.394  53.339  1.00  0.00     0.007 A 
HETATM   22  C11 UNL     1      25.119  -0.749  53.488  1.00  0.00     0.001 A 
HETATM   23  C12 UNL     1      26.323  -0.926  52.819  1.00  0.00     0.000 A 
HETATM   24  C13 UNL     1      26.742   0.101  51.979  1.00  0.00     0.001 A 
HETATM   25  C14 UNL     1      25.968   1.236  51.839  1.00  0.00     0.007 A 
ENDBRANCH  19  20
ENDBRANCH  18  19
ENDBRANCH  17  18
ENDBRANCH   4  17
TORSDOF 8
ENDMDL
MODEL 4
REMARK VINA RESULT:      -7.2      4.577      8.520
REMARK  8 active torsions:
REMARK  status: ('A' for Active; 'I' for Inactive)
REMARK    1  A    between atoms: C1_2  and  C2_3 
REMARK    2  A    between atoms: C1_2  and  C17_19 
REMARK    3  A    between atoms: C2_3  and  C3_4 
REMARK    4  A    between atoms: C6_7  and  O2_8 
REMARK    5  A    between atoms: O2_8  and  C7_9 
REMARK    6  A    between atoms: C7_9  and  C8_10 
REMARK    7  A    between atoms: C8_10  and  C9_11 
REMARK    8  A    between atoms: C17_19  and  N1_20 
ROOT
HETATM    1  C3  UNL     1      27.754   6.013  48.387  1.00  0.00    -0.051 A 
HETATM    2  C4  UNL     1      26.747   6.851  48.881  1.00  0.00     0.010 A 
HETATM    3  C5  UNL     1      25.692   6.356  49.622  1.00  0.00     0.037 A 
HETATM    4  C6  UNL     1      25.609   5.005  49.895  1.00  0.00     0.068 A 
HETATM    5  C15 UNL     1      26.554   4.104  49.450  1.00  0.00     0.037 A 
HETATM    6  C16 UNL     1      27.588   4.663  48.711  1.00  0.00     0.010 A 
ENDROOT
BRANCH   1   7
HETATM    7  C2  UNL     1      28.915   6.416  47.588  1.00  0.00     0.118 C 
BRANCH   7   8
HETATM    8  C1  UNL     1      29.917   7.226  48.331  1.00  0.00     0.159 C 
HETATM    9  O1  UNL     1      30.726   6.764  49.149  1.00  0.00    -0.296 OA
BRANCH   8  10
HETATM   10  C17 UNL     1      29.830   8.665  47.970  1.00  0.00     0.350 C 
BRANCH  10  11
HETATM   11  N1  UNL     1      29.678   9.511  49.123  1.00  0.00     0.099 N 
HETATM   12  C18 UNL     1      30.834  10.256  49.494  1.00  0.00     0.299 C 
HETATM   13  C19 UNL     1      30.844  11.532  48.675  1.00  0.00     0.198 C 
HETATM   14  O3  UNL     1      29.737  12.263  49.087  1.00  0.00    -0.388 OA
HETATM   15  C20 UNL     1      28.531  11.664  48.759  1.00  0.00     0.198 C 
HETATM   16  C21 UNL     1      28.443  10.221  49.091  1.00  0.00     0.299 C 
ENDBRANCH  10  11
ENDBRANCH   8  10
ENDBRANCH   7   8
ENDBRANCH   1   7
BRANCH   4  17
HETATM   17  O2  UNL     1      24.528   4.556  50.645  1.00  0.00    -0.351 OA
BRANCH  17  18
HETATM   18  C7  UNL     1      24.297   3.162  50.852  1.00  0.00     0.180 C 
BRANCH  18  19
HETATM   19  C8  UNL     1      24.456   2.827  52.326  1.00  0.00     0.065 C 
BRANCH  19  20
HETATM   20  C9  UNL     1      25.173   1.543  52.452  1.00  0.00    -0.056 A 
HETATM   21  C10 UNL     1      26.340   1.154  51.839  1.00  0.00     0.007 A 
HETATM   22  C11 UNL     1      26.874  -0.101  52.071  1.00  0.00     0.001 A 
HETATM   23  C12 UNL     1      26.268  -1.018  52.920  1.00  0.00     0.000 A 
HETATM   24  C13 UNL     1      25.086  -0.628  53.540  1.00  0.00     0.001 A 
HETATM   25  C14 UNL     1      24.564   0.628  53.301  1.00  0.00     0.007 A 
ENDBRANCH  19  20
ENDBRANCH  18  19
ENDBRANCH  17  18
ENDBRANCH   4  17
TORSDOF 8
ENDMDL
MODEL 5
REMARK VINA RESULT:      -7.2      4.126      7.871
REMARK  8 active torsions:
REMARK  status: ('A' for Active; 'I' for Inactive)
REMARK    1  A    between atoms: C1_2  and  C2_3 
REMARK    2  A    between atoms: C1_2  and  C17_19 
REMARK    3  A    between atoms: C2_3  and  C3_4 
REMARK    4  A    between atoms: C6_7  and  O2_8 
REMARK    5  A    between atoms: O2_8  and  C7_9 
REMARK    6  A    between atoms: C7_9  and  C8_10 
REMARK    7  A    between atoms: C8_10  and  C9_11 
REMARK    8  A    between atoms: C17_19  and  N1_20 
ROOT
HETATM    1  C3  UNL     1      27.220   6.239  48.386  1.00  0.00    -0.051 A 
HETATM    2  C4  UNL     1      27.703   4.941  48.592  1.00  0.00     0.010 A 
HETATM    3  C5  UNL     1      26.967   3.994  49.277  1.00  0.00     0.037 A 
HETATM    4  C6  UNL     1      25.721   4.314  49.779  1.00  0.00     0.068 A 
HETATM    5  C15 UNL     1      25.164   5.567  49.625  1.00  0.00     0.037 A 
HETATM    6  C16 UNL     1      25.952   6.473  48.929  1.00  0.00     0.010 A 
ENDROOT
BRANCH   1   7
HETATM    7  C2  UNL     1      27.906   7.327  47.683  1.00  0.00     0.118 C 
BRANCH   7   8
HETATM    8  C1  UNL     1      28.978   7.987  48.475  1.00  0.00     0.159 C 
HETATM    9  O1  UNL     1      28.777   8.771  49.414  1.00  0.00    -0.296 OA
BRANCH   8  10
HETATM   10  C17 UNL     1      30.329   7.588  48.001  1.00  0.00     0.350 C 
BRANCH  10  11
HETATM   11  N1  UNL     1      31.230   7.307  49.086  1.00  0.00     0.099 N 
HETATM   12  C18 UNL     1      31.475   5.927  49.338  1.00  0.00     0.299 C 
HETATM   13  C19 UNL     1      32.595   5.480  48.417  1.00  0.00     0.198 C 
HETATM   14  O3  UNL     1      33.727   6.177  48.819  1.00  0.00    -0.388 OA
HETATM   15  C20 UNL     1      33.637   7.542  48.600  1.00  0.00     0.198 C 
HETATM   16  C21 UNL     1      32.368   8.164  49.055  1.00  0.00     0.299 C 
ENDBRANCH  10  11
ENDBRANCH   8  10
ENDBRANCH   7   8
ENDBRANCH   1   7
BRANCH   4  17
HETATM   17  O2  UNL     1      25.019   3.327  50.461  1.00  0.00    -0.351 OA
BRANCH  17  18
HETATM   18  C7  UNL     1      25.682   2.421  51.344  1.00  0.00     0.180 C 
BRANCH  18  19
HETATM   19  C8  UNL     1      25.095   2.543  52.741  1.00  0.00     0.065 C 
BRANCH  19  20
HETATM   20  C9  UNL     1      24.107   1.465  52.942  1.00  0.00    -0.056 A 
HETATM   21  C10 UNL     1      24.328   0.173  53.356  1.00  0.00     0.007 A 
HETATM   22  C11 UNL     1      23.276  -0.715  53.488  1.00  0.00     0.001 A 
HETATM   23  C12 UNL     1      21.963  -0.354  53.213  1.00  0.00     0.000 A 
HETATM   24  C13 UNL     1      21.737   0.952  52.793  1.00  0.00     0.001 A 
HETATM   25  C14 UNL     1      22.797   1.830  52.666  1.00  0.00     0.007 A 
ENDBRANCH  19  20
ENDBRANCH  18  19
ENDBRANCH  17  18
ENDBRANCH   4  17
TORSDOF 8
ENDMDL
MODEL 6
REMARK VINA RESULT:      -7.0      4.300      7.940
REMARK  8 active torsions:
REMARK  status: ('A' for Active; 'I' for Inactive)
REMARK    1  A    between atoms: C1_2  and  C2_3 
REMARK    2  A    between atoms: C1_2  and  C17_19 
REMARK    3  A    between atoms: C2_3  and  C3_4 
REMARK    4  A    between atoms: C6_7  and  O2_8 
REMARK    5  A    between atoms: O2_8  and  C7_9 
REMARK    6  A    between atoms: C7_9  and  C8_10 
REMARK    7  A    between atoms: C8_10  and  C9_11 
REMARK    8  A    between atoms: C17_19  and  N1_20 
ROOT
HETATM    1  C3  UNL     1      26.792   5.415  48.898  1.00  0.00    -0.051 A 
HETATM    2  C4  UNL     1      27.126   4.059  48.997  1.00  0.00     0.010 A 
HETATM    3  C5  UNL     1      26.359   3.177  49.732  1.00  0.00     0.037 A 
HETATM    4  C6  UNL     1      25.232   3.622  50.394  1.00  0.00     0.068 A 
HETATM    5  C15 UNL     1      24.826   4.940  50.354  1.00  0.00     0.037 A 
HETATM    6  C16 UNL     1      25.638   5.776  49.599  1.00  0.00     0.010 A 
ENDROOT
BRANCH   1   7
HETATM    7  C2  UNL     1      27.527   6.445  48.156  1.00  0.00     0.118 C 
BRANCH   7   8
HETATM    8  C1  UNL     1      29.006   6.333  48.256  1.00  0.00     0.159 C 
HETATM    9  O1  UNL     1      29.608   5.345  48.703  1.00  0.00    -0.296 OA
BRANCH   8  10
HETATM   10  C17 UNL     1      29.680   7.557  47.749  1.00  0.00     0.350 C 
BRANCH  10  11
HETATM   11  N1  UNL     1      30.354   8.283  48.793  1.00  0.00     0.099 N 
HETATM   12  C18 UNL     1      31.716   8.610  48.530  1.00  0.00     0.299 C 
HETATM   13  C19 UNL     1      31.735   9.908  47.744  1.00  0.00     0.198 C 
HETATM   14  O3  UNL     1      31.236  10.883  48.597  1.00  0.00    -0.388 OA
HETATM   15  C20 UNL     1      29.900  10.704  48.914  1.00  0.00     0.198 C 
HETATM   16  C21 UNL     1      29.535   9.323  49.319  1.00  0.00     0.299 C 
ENDBRANCH  10  11
ENDBRANCH   8  10
ENDBRANCH   7   8
ENDBRANCH   1   7
BRANCH   4  17
HETATM   17  O2  UNL     1      24.492   2.695  51.121  1.00  0.00    -0.351 OA
BRANCH  17  18
HETATM   18  C7  UNL     1      24.642   2.573  52.536  1.00  0.00     0.180 C 
BRANCH  18  19
HETATM   19  C8  UNL     1      25.070   1.157  52.887  1.00  0.00     0.065 C 
BRANCH  19  20
HETATM   20  C9  UNL     1      26.521   1.147  53.156  1.00  0.00    -0.056 A 
HETATM   21  C10 UNL     1      27.351   2.215  53.396  1.00  0.00     0.007 A 
HETATM   22  C11 UNL     1      28.701   2.021  53.628  1.00  0.00     0.001 A 
HETATM   23  C12 UNL     1      29.278   0.758  53.628  1.00  0.00     0.000 A 
HETATM   24  C13 UNL     1      28.441  -0.324  53.383  1.00  0.00     0.001 A 
HETATM   25  C14 UNL     1      27.095  -0.118  53.154  1.00  0.00     0.007 A 
ENDBRANCH  19  20
ENDBRANCH  18  19
ENDBRANCH  17  18
ENDBRANCH   4  17
TORSDOF 8
ENDMDL
MODEL 7
REMARK VINA RESULT:      -7.0      4.735      7.591
REMARK  8 active torsions:
REMARK  status: ('A' for Active; 'I' for Inactive)
REMARK    1  A    between atoms: C1_2  and  C2_3 
REMARK    2  A    between atoms: C1_2  and  C17_19 
REMARK    3  A    between atoms: C2_3  and  C3_4 
REMARK    4  A    between atoms: C6_7  and  O2_8 
REMARK    5  A    between atoms: O2_8  and  C7_9 
REMARK    6  A    between atoms: C7_9  and  C8_10 
REMARK    7  A    between atoms: C8_10  and  C9_11 
REMARK    8  A    between atoms: C17_19  and  N1_20 
ROOT
HETATM    1  C3  UNL     1      22.928   1.231  51.584  1.00  0.00    -0.051 A 
HETATM    2  C4  UNL     1      22.148   1.228  50.422  1.00  0.00     0.010 A 
HETATM    3  C5  UNL     1      20.846   0.767  50.426  1.00  0.00     0.037 A 
HETATM    4  C6  UNL     1      20.281   0.294  51.594  1.00  0.00     0.068 A 
HETATM    5  C15 UNL     1      20.974   0.259  52.787  1.00  0.00     0.037 A 
HETATM    6  C16 UNL     1      22.276   0.735  52.717  1.00  0.00     0.010 A 
ENDROOT
BRANCH   1   7
HETATM    7  C2  UNL     1      24.317   1.689  51.704  1.00  0.00     0.118 C 
BRANCH   7   8
HETATM    8  C1  UNL     1      24.533   2.716  52.757  1.00  0.00     0.159 C 
HETATM    9  O1  UNL     1      23.961   3.815  52.795  1.00  0.00    -0.296 OA
BRANCH   8  10
HETATM   10  C17 UNL     1      25.527   2.262  53.764  1.00  0.00     0.350 C 
BRANCH  10  11
HETATM   11  N1  UNL     1      26.547   1.426  53.189  1.00  0.00     0.099 N 
HETATM   12  C18 UNL     1      27.666   2.115  52.639  1.00  0.00     0.299 C 
HETATM   13  C19 UNL     1      28.647   2.378  53.766  1.00  0.00     0.198 C 
HETATM   14  O3  UNL     1      29.098   1.132  54.182  1.00  0.00    -0.388 OA
HETATM   15  C20 UNL     1      28.110   0.360  54.772  1.00  0.00     0.198 C 
HETATM   16  C21 UNL     1      26.832   0.304  54.020  1.00  0.00     0.299 C 
ENDBRANCH  10  11
ENDBRANCH   8  10
ENDBRANCH   7   8
ENDBRANCH   1   7
BRANCH   4  17
HETATM   17  O2  UNL     1      18.967  -0.159  51.547  1.00  0.00    -0.351 OA
BRANCH  17  18
HETATM   18  C7  UNL     1      18.347  -0.754  52.688  1.00  0.00     0.180 C 
BRANCH  18  19
HETATM   19  C8  UNL     1      16.885  -1.043  52.386  1.00  0.00     0.065 C 
BRANCH  19  20
HETATM   20  C9  UNL     1      16.571  -2.421  52.812  1.00  0.00    -0.056 A 
HETATM   21  C10 UNL     1      17.349  -3.286  53.542  1.00  0.00     0.007 A 
HETATM   22  C11 UNL     1      16.894  -4.555  53.851  1.00  0.00     0.001 A 
HETATM   23  C12 UNL     1      15.648  -5.013  53.446  1.00  0.00     0.000 A 
HETATM   24  C13 UNL     1      14.858  -4.140  52.706  1.00  0.00     0.001 A 
HETATM   25  C14 UNL     1      15.324  -2.876  52.404  1.00  0.00     0.007 A 
ENDBRANCH  19  20
ENDBRANCH  18  19
ENDBRANCH  17  18
ENDBRANCH   4  17
TORSDOF 8
ENDMDL
MODEL 8
REMARK VINA RESULT:      -6.9      4.918      8.884
REMARK  8 active torsions:
REMARK  status: ('A' for Active; 'I' for Inactive)
REMARK    1  A    between atoms: C1_2  and  C2_3 
REMARK    2  A    between atoms: C1_2  and  C17_19 
REMARK    3  A    between atoms: C2_3  and  C3_4 
REMARK    4  A    between atoms: C6_7  and  O2_8 
REMARK    5  A    between atoms: O2_8  and  C7_9 
REMARK    6  A    between atoms: C7_9  and  C8_10 
REMARK    7  A    between atoms: C8_10  and  C9_11 
REMARK    8  A    between atoms: C17_19  and  N1_20 
ROOT
HETATM    1  C3  UNL     1      27.069   7.159  48.309  1.00  0.00    -0.051 A 
HETATM    2  C4  UNL     1      28.006   6.127  48.178  1.00  0.00     0.010 A 
HETATM    3  C5  UNL     1      27.744   4.850  48.634  1.00  0.00     0.037 A 
HETATM    4  C6  UNL     1      26.536   4.563  49.237  1.00  0.00     0.068 A 
HETATM    5  C15 UNL     1      25.552   5.515  49.409  1.00  0.00     0.037 A 
HETATM    6  C16 UNL     1      25.876   6.777  48.930  1.00  0.00     0.010 A 
ENDROOT
BRANCH   1   7
HETATM    7  C2  UNL     1      27.232   8.549  47.871  1.00  0.00     0.118 C 
BRANCH   7   8
HETATM    8  C1  UNL     1      27.662   9.483  48.945  1.00  0.00     0.159 C 
HETATM    9  O1  UNL     1      26.889  10.160  49.639  1.00  0.00    -0.296 OA
BRANCH   8  10
HETATM   10  C17 UNL     1      29.141   9.505  49.086  1.00  0.00     0.350 C 
BRANCH  10  11
HETATM   11  N1  UNL     1      29.810   9.670  47.823  1.00  0.00     0.099 N 
HETATM   12  C18 UNL     1      30.065  11.017  47.436  1.00  0.00     0.299 C 
HETATM   13  C19 UNL     1      31.371  11.443  48.078  1.00  0.00     0.198 C 
HETATM   14  O3  UNL     1      32.359  10.658  47.500  1.00  0.00    -0.388 OA
HETATM   15  C20 UNL     1      32.251   9.314  47.822  1.00  0.00     0.198 C 
HETATM   16  C21 UNL     1      30.887   8.748  47.678  1.00  0.00     0.299 C 
ENDBRANCH  10  11
ENDBRANCH   8  10
ENDBRANCH   7   8
ENDBRANCH   1   7
BRANCH   4  17
HETATM   17  O2  UNL     1      26.320   3.262  49.679  1.00  0.00    -0.351 OA
BRANCH  17  18
HETATM   18  C7  UNL     1      26.134   2.972  51.065  1.00  0.00     0.180 C 
BRANCH  18  19
HETATM   19  C8  UNL     1      26.315   1.483  51.308  1.00  0.00     0.065 C 
BRANCH  19  20
HETATM   20  C9  UNL     1      27.282   1.289  52.406  1.00  0.00    -0.056 A 
HETATM   21  C10 UNL     1      28.039   2.236  53.052  1.00  0.00     0.007 A 
HETATM   22  C11 UNL     1      28.906   1.874  54.067  1.00  0.00     0.001 A 
HETATM   23  C12 UNL     1      29.055   0.555  54.478  1.00  0.00     0.000 A 
HETATM   24  C13 UNL     1      28.291  -0.405  53.825  1.00  0.00     0.001 A 
HETATM   25  C14 UNL     1      27.428  -0.030  52.813  1.00  0.00     0.007 A 
ENDBRANCH  19  20
ENDBRANCH  18  19
ENDBRANCH  17  18
ENDBRANCH   4  17
TORSDOF 8
ENDMDL
MODEL 9
REMARK VINA RESULT:      -6.9      3.142      5.050
REMARK  8 active torsions:
REMARK  status: ('A' for Active; 'I' for Inactive)
REMARK    1  A    between atoms: C1_2  and  C2_3 
REMARK    2  A    between atoms: C1_2  and  C17_19 
REMARK    3  A    between atoms: C2_3  and  C3_4 
REMARK    4  A    between atoms: C6_7  and  O2_8 
REMARK    5  A    between atoms: O2_8  and  C7_9 
REMARK    6  A    between atoms: C7_9  and  C8_10 
REMARK    7  A    between atoms: C8_10  and  C9_11 
REMARK    8  A    between atoms: C17_19  and  N1_20 
ROOT
HETATM    1  C3  UNL     1      24.974   3.613  49.840  1.00  0.00    -0.051 A 
HETATM    2  C4  UNL     1      26.359   3.504  49.668  1.00  0.00     0.010 A 
HETATM    3  C5  UNL     1      27.096   4.509  49.071  1.00  0.00     0.037 A 
HETATM    4  C6  UNL     1      26.470   5.657  48.628  1.00  0.00     0.068 A 
HETATM    5  C15 UNL     1      25.110   5.852  48.755  1.00  0.00     0.037 A 
HETATM    6  C16 UNL     1      24.427   4.807  49.362  1.00  0.00     0.010 A 
ENDROOT
BRANCH   1   7
HETATM    7  C2  UNL     1      24.088   2.617  50.451  1.00  0.00     0.118 C 
BRANCH   7   8
HETATM    8  C1  UNL     1      24.174   2.548  51.934  1.00  0.00     0.159 C 
HETATM    9  O1  UNL     1      23.899   3.485  52.698  1.00  0.00    -0.296 OA
BRANCH   8  10
HETATM   10  C17 UNL     1      24.634   1.210  52.391  1.00  0.00     0.350 C 
BRANCH  10  11
HETATM   11  N1  UNL     1      26.057   1.162  52.601  1.00  0.00     0.099 N 
HETATM   12  C18 UNL     1      26.490   1.450  53.927  1.00  0.00     0.299 C 
HETATM   13  C19 UNL     1      26.422   0.162  54.725  1.00  0.00     0.198 C 
HETATM   14  O3  UNL     1      27.364  -0.690  54.163  1.00  0.00    -0.388 OA
HETATM   15  C20 UNL     1      27.049  -1.079  52.872  1.00  0.00     0.198 C 
HETATM   16  C21 UNL     1      26.640   0.026  51.970  1.00  0.00     0.299 C 
ENDBRANCH  10  11
ENDBRANCH   8  10
ENDBRANCH   7   8
ENDBRANCH   1   7
BRANCH   4  17
HETATM   17  O2  UNL     1      27.255   6.641  48.034  1.00  0.00    -0.351 OA
BRANCH  17  18
HETATM   18  C7  UNL     1      28.555   6.953  48.535  1.00  0.00     0.180 C 
BRANCH  18  19
HETATM   19  C8  UNL     1      29.369   7.645  47.454  1.00  0.00     0.065 C 
BRANCH  19  20
HETATM   20  C9  UNL     1      30.512   6.785  47.089  1.00  0.00    -0.056 A 
HETATM   21  C10 UNL     1      31.507   7.033  46.174  1.00  0.00     0.007 A 
HETATM   22  C11 UNL     1      32.508   6.105  45.953  1.00  0.00     0.001 A 
HETATM   23  C12 UNL     1      32.559   4.894  46.632  1.00  0.00     0.000 A 
HETATM   24  C13 UNL     1      31.553   4.641  47.558  1.00  0.00     0.001 A 
HETATM   25  C14 UNL     1      30.559   5.576  47.769  1.00  0.00     0.007 A 
ENDBRANCH  19  20
ENDBRANCH  18  19
ENDBRANCH  17  18
ENDBRANCH   4  17
TORSDOF 8
ENDMDL
