MODEL 1
REMARK VINA RESULT:      -7.8      0.000      0.000
REMARK  8 active torsions:
REMARK  status: ('A' for Active; 'I' for Inactive)
REMARK    1  A    between atoms: C2_2  and  C3_3 
REMARK    2  A    between atoms: C3_3  and  C4_4 
REMARK    3  A    between atoms: C4_4  and  N1_5 
REMARK    4  A    between atoms: N1_5  and  C5_6 
REMARK    5  A    between atoms: N1_5  and  C13_15 
REMARK    6  A    between atoms: C5_6  and  C6_7 
REMARK    7  A    between atoms: C10_11  and  O1_12 
REMARK    8  A    between atoms: C13_15  and  N2_17 
ROOT
HETATM    1  N1  UNL     1      25.159   2.087  52.002  1.00  0.00    -0.354 N 
ENDROOT
BRANCH   1   2
HETATM    2  C4  UNL     1      25.313   2.528  50.604  1.00  0.00     0.125 C 
BRANCH   2   3
HETATM    3  C3  UNL     1      26.523   3.374  50.379  1.00  0.00     0.020 C 
BRANCH   3   4
HETATM    4  C2  UNL     1      26.270   4.506  49.403  1.00  0.00    -0.003 C 
HETATM    5  C1  UNL     1      27.544   4.876  48.669  1.00  0.00     0.005 C 
ENDBRANCH   3   4
ENDBRANCH   2   3
ENDBRANCH   1   2
BRANCH   1   6
HETATM    6  C5  UNL     1      26.441   2.005  52.676  1.00  0.00     0.164 C 
BRANCH   6   7
HETATM    7  C6  UNL     1      27.095   0.705  52.715  1.00  0.00    -0.037 C 
HETATM    8  C7  UNL     1      28.242   0.430  53.391  1.00  0.00    -0.070 C 
HETATM    9  C8  UNL     1      28.916   1.503  54.159  1.00  0.00     0.044 C 
HETATM   10  C9  UNL     1      28.924  -0.892  53.456  1.00  0.00     0.099 C 
HETATM   11  C10 UNL     1      28.020  -1.964  52.987  1.00  0.00     0.058 C 
HETATM   12  C11 UNL     1      26.792  -1.635  52.608  1.00  0.00     0.006 C 
HETATM   13  C12 UNL     1      26.631  -0.473  51.985  1.00  0.00     0.024 C 
BRANCH  11  14
HETATM   14  O1  UNL     1      28.336  -3.299  52.904  1.00  0.00    -0.364 OA
HETATM   15  H17 UNL     1      28.764  -3.768  52.122  1.00  0.00     0.217 HD
ENDBRANCH  11  14
ENDBRANCH   6   7
ENDBRANCH   1   6
BRANCH   1  16
HETATM   16  C13 UNL     1      23.815   1.802  52.510  1.00  0.00     0.176 C 
HETATM   17  S1  UNL     1      22.775   3.037  52.071  1.00  0.00    -0.040 SA
BRANCH  16  18
HETATM   18  N2  UNL     1      23.157   0.807  53.248  1.00  0.00    -0.331 N 
HETATM   19  C14 UNL     1      23.654  -0.249  54.038  1.00  0.00     0.093 A 
HETATM   20  C15 UNL     1      23.061  -1.183  54.746  1.00  0.00     0.017 A 
HETATM   21  C16 UNL     1      21.605  -1.155  54.733  1.00  0.00    -0.001 A 
HETATM   22  C17 UNL     1      21.069  -0.198  54.013  1.00  0.00    -0.007 A 
HETATM   23  C18 UNL     1      21.703   0.853  53.214  1.00  0.00     0.158 A 
ENDBRANCH  16  18
ENDBRANCH   1  16
TORSDOF 8
ENDMDL
MODEL 2
REMARK VINA RESULT:      -7.5      1.774      5.478
REMARK  8 active torsions:
REMARK  status: ('A' for Active; 'I' for Inactive)
REMARK    1  A    between atoms: C2_2  and  C3_3 
REMARK    2  A    between atoms: C3_3  and  C4_4 
REMARK    3  A    between atoms: C4_4  and  N1_5 
REMARK    4  A    between atoms: N1_5  and  C5_6 
REMARK    5  A    between atoms: N1_5  and  C13_15 
REMARK    6  A    between atoms: C5_6  and  C6_7 
REMARK    7  A    between atoms: C10_11  and  O1_12 
REMARK    8  A    between atoms: C13_15  and  N2_17 
ROOT
HETATM    1  N1  UNL     1      24.755   1.232  51.978  1.00  0.00    -0.354 N 
ENDROOT
BRANCH   1   2
HETATM    2  C4  UNL     1      23.772   0.991  53.049  1.00  0.00     0.125 C 
BRANCH   2   3
HETATM    3  C3  UNL     1      23.657  -0.446  53.437  1.00  0.00     0.020 C 
BRANCH   3   4
HETATM    4  C2  UNL     1      22.220  -0.928  53.470  1.00  0.00    -0.003 C 
HETATM    5  C1  UNL     1      21.542  -0.499  54.757  1.00  0.00     0.005 C 
ENDBRANCH   3   4
ENDBRANCH   2   3
ENDBRANCH   1   2
BRANCH   1   6
HETATM    6  C5  UNL     1      25.891   0.335  52.089  1.00  0.00     0.164 C 
BRANCH   6   7
HETATM    7  C6  UNL     1      26.989   0.749  52.950  1.00  0.00    -0.037 C 
HETATM    8  C7  UNL     1      27.963  -0.073  53.420  1.00  0.00    -0.070 C 
HETATM    9  C8  UNL     1      27.948  -1.510  53.058  1.00  0.00     0.044 C 
HETATM   10  C9  UNL     1      29.102   0.327  54.292  1.00  0.00     0.099 C 
HETATM   11  C10 UNL     1      29.253   1.798  54.303  1.00  0.00     0.058 C 
HETATM   12  C11 UNL     1      28.419   2.525  53.571  1.00  0.00     0.006 C 
HETATM   13  C12 UNL     1      27.162   2.106  53.470  1.00  0.00     0.024 C 
BRANCH  11  14
HETATM   14  O1  UNL     1      30.194   2.502  55.015  1.00  0.00    -0.364 OA
HETATM   15  H17 UNL     1      31.181   2.305  55.066  1.00  0.00     0.217 HD
ENDBRANCH  11  14
ENDBRANCH   6   7
ENDBRANCH   1   6
BRANCH   1  16
HETATM   16  C13 UNL     1      24.484   2.281  50.992  1.00  0.00     0.176 C 
HETATM   17  S1  UNL     1      22.871   2.238  50.553  1.00  0.00    -0.040 SA
BRANCH  16  18
HETATM   18  N2  UNL     1      25.178   3.298  50.319  1.00  0.00    -0.331 N 
HETATM   19  C14 UNL     1      26.462   3.324  49.740  1.00  0.00     0.093 A 
HETATM   20  C15 UNL     1      27.128   4.256  49.096  1.00  0.00     0.017 A 
HETATM   21  C16 UNL     1      26.434   5.526  48.932  1.00  0.00    -0.001 A 
HETATM   22  C17 UNL     1      25.230   5.578  49.451  1.00  0.00    -0.007 A 
HETATM   23  C18 UNL     1      24.466   4.559  50.174  1.00  0.00     0.158 A 
ENDBRANCH  16  18
ENDBRANCH   1  16
TORSDOF 8
ENDMDL
MODEL 3
REMARK VINA RESULT:      -7.4      1.838      4.303
REMARK  8 active torsions:
REMARK  status: ('A' for Active; 'I' for Inactive)
REMARK    1  A    between atoms: C2_2  and  C3_3 
REMARK    2  A    between atoms: C3_3  and  C4_4 
REMARK    3  A    between atoms: C4_4  and  N1_5 
REMARK    4  A    between atoms: N1_5  and  C5_6 
REMARK    5  A    between atoms: N1_5  and  C13_15 
REMARK    6  A    between atoms: C5_6  and  C6_7 
REMARK    7  A    between atoms: C10_11  and  O1_12 
REMARK    8  A    between atoms: C13_15  and  N2_17 
ROOT
HETATM    1  N1  UNL     1      25.021   1.765  52.467  1.00  0.00    -0.354 N 
ENDROOT
BRANCH   1   2
HETATM    2  C4  UNL     1      24.609   0.943  53.618  1.00  0.00     0.125 C 
BRANCH   2   3
HETATM    3  C3  UNL     1      23.452   0.045  53.322  1.00  0.00     0.020 C 
BRANCH   3   4
HETATM    4  C2  UNL     1      23.155  -0.916  54.457  1.00  0.00    -0.003 C 
HETATM    5  C1  UNL     1      21.672  -0.934  54.768  1.00  0.00     0.005 C 
ENDBRANCH   3   4
ENDBRANCH   2   3
ENDBRANCH   1   2
BRANCH   1   6
HETATM    6  C5  UNL     1      26.463   1.767  52.307  1.00  0.00     0.164 C 
BRANCH   6   7
HETATM    7  C6  UNL     1      27.163   0.510  52.529  1.00  0.00    -0.037 C 
HETATM    8  C7  UNL     1      28.288   0.366  53.278  1.00  0.00    -0.070 C 
HETATM    9  C8  UNL     1      28.885   1.551  53.939  1.00  0.00     0.044 C 
HETATM   10  C9  UNL     1      29.016  -0.908  53.530  1.00  0.00     0.099 C 
HETATM   11  C10 UNL     1      28.175  -2.066  53.158  1.00  0.00     0.058 C 
HETATM   12  C11 UNL     1      26.953  -1.838  52.692  1.00  0.00     0.006 C 
HETATM   13  C12 UNL     1      26.777  -0.766  51.927  1.00  0.00     0.024 C 
BRANCH  11  14
HETATM   14  O1  UNL     1      28.544  -3.386  53.248  1.00  0.00    -0.364 OA
HETATM   15  H17 UNL     1      29.209  -3.867  52.664  1.00  0.00     0.217 HD
ENDBRANCH  11  14
ENDBRANCH   6   7
ENDBRANCH   1   6
BRANCH   1  16
HETATM   16  C13 UNL     1      23.990   2.440  51.674  1.00  0.00     0.176 C 
HETATM   17  S1  UNL     1      23.593   3.897  52.391  1.00  0.00    -0.040 SA
BRANCH  16  18
HETATM   18  N2  UNL     1      23.250   2.219  50.502  1.00  0.00    -0.331 N 
HETATM   19  C14 UNL     1      22.202   1.321  50.219  1.00  0.00     0.093 A 
HETATM   20  C15 UNL     1      21.487   1.104  49.138  1.00  0.00     0.017 A 
HETATM   21  C16 UNL     1      21.817   1.933  47.987  1.00  0.00    -0.001 A 
HETATM   22  C17 UNL     1      22.789   2.793  48.176  1.00  0.00    -0.007 A 
HETATM   23  C18 UNL     1      23.603   3.055  49.365  1.00  0.00     0.158 A 
ENDBRANCH  16  18
ENDBRANCH   1  16
TORSDOF 8
ENDMDL
MODEL 4
REMARK VINA RESULT:      -7.0      2.636      5.701
REMARK  8 active torsions:
REMARK  status: ('A' for Active; 'I' for Inactive)
REMARK    1  A    between atoms: C2_2  and  C3_3 
REMARK    2  A    between atoms: C3_3  and  C4_4 
REMARK    3  A    between atoms: C4_4  and  N1_5 
REMARK    4  A    between atoms: N1_5  and  C5_6 
REMARK    5  A    between atoms: N1_5  and  C13_15 
REMARK    6  A    between atoms: C5_6  and  C6_7 
REMARK    7  A    between atoms: C10_11  and  O1_12 
REMARK    8  A    between atoms: C13_15  and  N2_17 
ROOT
HETATM    1  N1  UNL     1      24.363   2.392  51.643  1.00  0.00    -0.354 N 
ENDROOT
BRANCH   1   2
HETATM    2  C4  UNL     1      23.901   3.638  52.279  1.00  0.00     0.125 C 
BRANCH   2   3
HETATM    3  C3  UNL     1      23.097   4.507  51.369  1.00  0.00     0.020 C 
BRANCH   3   4
HETATM    4  C2  UNL     1      21.730   4.836  51.936  1.00  0.00    -0.003 C 
HETATM    5  C1  UNL     1      20.640   4.486  50.941  1.00  0.00     0.005 C 
ENDBRANCH   3   4
ENDBRANCH   2   3
ENDBRANCH   1   2
BRANCH   1   6
HETATM    6  C5  UNL     1      23.248   1.608  51.143  1.00  0.00     0.164 C 
BRANCH   6   7
HETATM    7  C6  UNL     1      22.491   0.827  52.111  1.00  0.00    -0.037 C 
HETATM    8  C7  UNL     1      21.193   0.452  51.965  1.00  0.00    -0.070 C 
HETATM    9  C8  UNL     1      20.448   0.847  50.746  1.00  0.00     0.044 C 
HETATM   10  C9  UNL     1      20.400  -0.355  52.933  1.00  0.00     0.099 C 
HETATM   11  C10 UNL     1      21.293  -1.006  53.917  1.00  0.00     0.058 C 
HETATM   12  C11 UNL     1      22.601  -0.813  53.809  1.00  0.00     0.006 C 
HETATM   13  C12 UNL     1      23.015   0.382  53.402  1.00  0.00     0.024 C 
BRANCH  11  14
HETATM   14  O1  UNL     1      20.889  -1.809  54.956  1.00  0.00    -0.364 OA
HETATM   15  H17 UNL     1      21.484  -2.291  55.610  1.00  0.00     0.217 HD
ENDBRANCH  11  14
ENDBRANCH   6   7
ENDBRANCH   1   6
BRANCH   1  16
HETATM   16  C13 UNL     1      25.800   2.111  51.596  1.00  0.00     0.176 C 
HETATM   17  S1  UNL     1      26.522   3.072  50.433  1.00  0.00    -0.040 SA
BRANCH  16  18
HETATM   18  N2  UNL     1      26.732   1.280  52.235  1.00  0.00    -0.331 N 
HETATM   19  C14 UNL     1      26.821  -0.124  52.324  1.00  0.00     0.093 A 
HETATM   20  C15 UNL     1      27.687  -0.923  52.904  1.00  0.00     0.017 A 
HETATM   21  C16 UNL     1      28.783  -0.265  53.603  1.00  0.00    -0.001 A 
HETATM   22  C17 UNL     1      28.764   1.046  53.566  1.00  0.00    -0.007 A 
HETATM   23  C18 UNL     1      27.813   1.962  52.931  1.00  0.00     0.158 A 
ENDBRANCH  16  18
ENDBRANCH   1  16
TORSDOF 8
ENDMDL
MODEL 5
REMARK VINA RESULT:      -7.0      1.521      2.173
REMARK  8 active torsions:
REMARK  status: ('A' for Active; 'I' for Inactive)
REMARK    1  A    between atoms: C2_2  and  C3_3 
REMARK    2  A    between atoms: C3_3  and  C4_4 
REMARK    3  A    between atoms: C4_4  and  N1_5 
REMARK    4  A    between atoms: N1_5  and  C5_6 
REMARK    5  A    between atoms: N1_5  and  C13_15 
REMARK    6  A    between atoms: C5_6  and  C6_7 
REMARK    7  A    between atoms: C10_11  and  O1_12 
REMARK    8  A    between atoms: C13_15  and  N2_17 
ROOT
HETATM    1  N1  UNL     1      24.627   2.280  52.417  1.00  0.00    -0.354 N 
ENDROOT
BRANCH   1   2
HETATM    2  C4  UNL     1      24.528   3.402  53.367  1.00  0.00     0.125 C 
BRANCH   2   3
HETATM    3  C3  UNL     1      23.486   4.405  52.995  1.00  0.00     0.020 C 
BRANCH   3   4
HETATM    4  C2  UNL     1      23.841   5.177  51.740  1.00  0.00    -0.003 C 
HETATM    5  C1  UNL     1      22.608   5.410  50.888  1.00  0.00     0.005 C 
ENDBRANCH   3   4
ENDBRANCH   2   3
ENDBRANCH   1   2
BRANCH   1   6
HETATM    6  C5  UNL     1      25.954   2.194  51.836  1.00  0.00     0.164 C 
BRANCH   6   7
HETATM    7  C6  UNL     1      26.787   1.067  52.232  1.00  0.00    -0.037 C 
HETATM    8  C7  UNL     1      27.893   1.153  53.016  1.00  0.00    -0.070 C 
HETATM    9  C8  UNL     1      28.326   2.474  53.529  1.00  0.00     0.044 C 
HETATM   10  C9  UNL     1      28.754   0.017  53.444  1.00  0.00     0.099 C 
HETATM   11  C10 UNL     1      28.066  -1.271  53.208  1.00  0.00     0.058 C 
HETATM   12  C11 UNL     1      26.843  -1.249  52.693  1.00  0.00     0.006 C 
HETATM   13  C12 UNL     1      26.571  -0.311  51.793  1.00  0.00     0.024 C 
BRANCH  11  14
HETATM   14  O1  UNL     1      28.582  -2.516  53.476  1.00  0.00    -0.364 OA
HETATM   15  H17 UNL     1      28.571  -3.316  52.864  1.00  0.00     0.217 HD
ENDBRANCH  11  14
ENDBRANCH   6   7
ENDBRANCH   1   6
BRANCH   1  16
HETATM   16  C13 UNL     1      23.448   1.441  52.187  1.00  0.00     0.176 C 
HETATM   17  S1  UNL     1      22.933   1.618  50.606  1.00  0.00    -0.040 SA
BRANCH  16  18
HETATM   18  N2  UNL     1      22.638   0.545  52.901  1.00  0.00    -0.331 N 
HETATM   19  C14 UNL     1      21.241   0.361  52.914  1.00  0.00     0.093 A 
HETATM   20  C15 UNL     1      20.462  -0.476  53.562  1.00  0.00     0.017 A 
HETATM   21  C16 UNL     1      21.141  -1.407  54.453  1.00  0.00    -0.001 A 
HETATM   22  C17 UNL     1      22.447  -1.291  54.496  1.00  0.00    -0.007 A 
HETATM   23  C18 UNL     1      23.339  -0.370  53.789  1.00  0.00     0.158 A 
ENDBRANCH  16  18
ENDBRANCH   1  16
TORSDOF 8
ENDMDL
MODEL 6
REMARK VINA RESULT:      -6.9      1.834      5.740
REMARK  8 active torsions:
REMARK  status: ('A' for Active; 'I' for Inactive)
REMARK    1  A    between atoms: C2_2  and  C3_3 
REMARK    2  A    between atoms: C3_3  and  C4_4 
REMARK    3  A    between atoms: C4_4  and  N1_5 
REMARK    4  A    between atoms: N1_5  and  C5_6 
REMARK    5  A    between atoms: N1_5  and  C13_15 
REMARK    6  A    between atoms: C5_6  and  C6_7 
REMARK    7  A    between atoms: C10_11  and  O1_12 
REMARK    8  A    between atoms: C13_15  and  N2_17 
ROOT
HETATM    1  N1  UNL     1      23.798   2.999  51.272  1.00  0.00    -0.354 N 
ENDROOT
BRANCH   1   2
HETATM    2  C4  UNL     1      23.232   2.111  50.241  1.00  0.00     0.125 C 
BRANCH   2   3
HETATM    3  C3  UNL     1      21.744   1.994  50.310  1.00  0.00     0.020 C 
BRANCH   3   4
HETATM    4  C2  UNL     1      21.276   0.554  50.393  1.00  0.00    -0.003 C 
HETATM    5  C1  UNL     1      20.200   0.401  51.450  1.00  0.00     0.005 C 
ENDBRANCH   3   4
ENDBRANCH   2   3
ENDBRANCH   1   2
BRANCH   1   6
HETATM    6  C5  UNL     1      23.738   2.389  52.587  1.00  0.00     0.164 C 
BRANCH   6   7
HETATM    7  C6  UNL     1      24.710   1.348  52.888  1.00  0.00    -0.037 C 
HETATM    8  C7  UNL     1      24.415   0.144  53.445  1.00  0.00    -0.070 C 
HETATM    9  C8  UNL     1      23.011  -0.179  53.793  1.00  0.00     0.044 C 
HETATM   10  C9  UNL     1      25.388  -0.942  53.751  1.00  0.00     0.099 C 
HETATM   11  C10 UNL     1      26.669  -0.699  53.055  1.00  0.00     0.058 C 
HETATM   12  C11 UNL     1      26.777   0.375  52.284  1.00  0.00     0.006 C 
HETATM   13  C12 UNL     1      26.151   1.480  52.676  1.00  0.00     0.024 C 
BRANCH  11  14
HETATM   14  O1  UNL     1      27.786  -1.497  53.131  1.00  0.00    -0.364 OA
HETATM   15  H17 UNL     1      27.804  -2.500  53.210  1.00  0.00     0.217 HD
ENDBRANCH  11  14
ENDBRANCH   6   7
ENDBRANCH   1   6
BRANCH   1  16
HETATM   16  C13 UNL     1      24.319   4.307  50.870  1.00  0.00     0.176 C 
HETATM   17  S1  UNL     1      23.397   5.517  51.566  1.00  0.00    -0.040 SA
BRANCH  16  18
HETATM   18  N2  UNL     1      25.354   4.832  50.080  1.00  0.00    -0.331 N 
HETATM   19  C14 UNL     1      25.592   6.136  49.604  1.00  0.00     0.093 A 
HETATM   20  C15 UNL     1      26.556   6.653  48.876  1.00  0.00     0.017 A 
HETATM   21  C16 UNL     1      27.598   5.725  48.458  1.00  0.00    -0.001 A 
HETATM   22  C17 UNL     1      27.440   4.487  48.863  1.00  0.00    -0.007 A 
HETATM   23  C18 UNL     1      26.378   3.883  49.671  1.00  0.00     0.158 A 
ENDBRANCH  16  18
ENDBRANCH   1  16
TORSDOF 8
ENDMDL
MODEL 7
REMARK VINA RESULT:      -6.9      2.970      6.704
REMARK  8 active torsions:
REMARK  status: ('A' for Active; 'I' for Inactive)
REMARK    1  A    between atoms: C2_2  and  C3_3 
REMARK    2  A    between atoms: C3_3  and  C4_4 
REMARK    3  A    between atoms: C4_4  and  N1_5 
REMARK    4  A    between atoms: N1_5  and  C5_6 
REMARK    5  A    between atoms: N1_5  and  C13_15 
REMARK    6  A    between atoms: C5_6  and  C6_7 
REMARK    7  A    between atoms: C10_11  and  O1_12 
REMARK    8  A    between atoms: C13_15  and  N2_17 
ROOT
HETATM    1  N1  UNL     1      23.968   0.502  52.945  1.00  0.00    -0.354 N 
ENDROOT
BRANCH   1   2
HETATM    2  C4  UNL     1      23.304  -0.786  53.217  1.00  0.00     0.125 C 
BRANCH   2   3
HETATM    3  C3  UNL     1      22.999  -1.003  54.662  1.00  0.00     0.020 C 
BRANCH   3   4
HETATM    4  C2  UNL     1      21.553  -0.700  55.004  1.00  0.00    -0.003 C 
HETATM    5  C1  UNL     1      20.616  -1.546  54.165  1.00  0.00     0.005 C 
ENDBRANCH   3   4
ENDBRANCH   2   3
ENDBRANCH   1   2
BRANCH   1   6
HETATM    6  C5  UNL     1      23.018   1.502  52.493  1.00  0.00     0.164 C 
BRANCH   6   7
HETATM    7  C6  UNL     1      22.804   1.622  51.058  1.00  0.00    -0.037 C 
HETATM    8  C7  UNL     1      21.745   1.104  50.382  1.00  0.00    -0.070 C 
HETATM    9  C8  UNL     1      20.703   0.350  51.118  1.00  0.00     0.044 C 
HETATM   10  C9  UNL     1      21.497   1.223  48.919  1.00  0.00     0.099 C 
HETATM   11  C10 UNL     1      22.357   2.274  48.332  1.00  0.00     0.058 C 
HETATM   12  C11 UNL     1      23.174   2.943  49.135  1.00  0.00     0.006 C 
HETATM   13  C12 UNL     1      23.734   2.277  50.138  1.00  0.00     0.024 C 
BRANCH  11  14
HETATM   14  O1  UNL     1      22.393   2.631  47.006  1.00  0.00    -0.364 OA
HETATM   15  H17 UNL     1      22.108   3.514  46.613  1.00  0.00     0.217 HD
ENDBRANCH  11  14
ENDBRANCH   6   7
ENDBRANCH   1   6
BRANCH   1  16
HETATM   16  C13 UNL     1      25.414   0.610  53.150  1.00  0.00     0.176 C 
HETATM   17  S1  UNL     1      25.818   2.200  53.473  1.00  0.00    -0.040 SA
BRANCH  16  18
HETATM   18  N2  UNL     1      26.543  -0.224  53.154  1.00  0.00    -0.331 N 
HETATM   19  C14 UNL     1      26.717  -1.556  52.729  1.00  0.00     0.093 A 
HETATM   20  C15 UNL     1      27.762  -2.352  52.711  1.00  0.00     0.017 A 
HETATM   21  C16 UNL     1      29.000  -1.780  53.225  1.00  0.00    -0.001 A 
HETATM   22  C17 UNL     1      28.912  -0.540  53.643  1.00  0.00    -0.007 A 
HETATM   23  C18 UNL     1      27.764   0.369  53.677  1.00  0.00     0.158 A 
ENDBRANCH  16  18
ENDBRANCH   1  16
TORSDOF 8
ENDMDL
MODEL 8
REMARK VINA RESULT:      -6.9      3.077      6.225
REMARK  8 active torsions:
REMARK  status: ('A' for Active; 'I' for Inactive)
REMARK    1  A    between atoms: C2_2  and  C3_3 
REMARK    2  A    between atoms: C3_3  and  C4_4 
REMARK    3  A    between atoms: C4_4  and  N1_5 
REMARK    4  A    between atoms: N1_5  and  C5_6 
REMARK    5  A    between atoms: N1_5  and  C13_15 
REMARK    6  A    between atoms: C5_6  and  C6_7 
REMARK    7  A    between atoms: C10_11  and  O1_12 
REMARK    8  A    between atoms: C13_15  and  N2_17 
ROOT
HETATM    1  N1  UNL     1      24.611   1.139  52.965  1.00  0.00    -0.354 N 
ENDROOT
BRANCH   1   2
HETATM    2  C4  UNL     1      24.472   2.552  53.357  1.00  0.00     0.125 C 
BRANCH   2   3
HETATM    3  C3  UNL     1      24.242   3.469  52.200  1.00  0.00     0.020 C 
BRANCH   3   4
HETATM    4  C2  UNL     1      23.265   4.582  52.524  1.00  0.00    -0.003 C 
HETATM    5  C1  UNL     1      21.845   4.157  52.203  1.00  0.00     0.005 C 
ENDBRANCH   3   4
ENDBRANCH   2   3
ENDBRANCH   1   2
BRANCH   1   6
HETATM    6  C5  UNL     1      23.655   0.778  51.934  1.00  0.00     0.164 C 
BRANCH   6   7
HETATM    7  C6  UNL     1      22.288   0.506  52.354  1.00  0.00    -0.037 C 
HETATM    8  C7  UNL     1      21.207   0.496  51.530  1.00  0.00    -0.070 C 
HETATM    9  C8  UNL     1      21.384   0.779  50.086  1.00  0.00     0.044 C 
HETATM   10  C9  UNL     1      19.802   0.210  51.932  1.00  0.00     0.099 C 
HETATM   11  C10 UNL     1      19.764  -0.410  53.274  1.00  0.00     0.058 C 
HETATM   12  C11 UNL     1      20.912  -0.632  53.901  1.00  0.00     0.006 C 
HETATM   13  C12 UNL     1      21.885   0.258  53.738  1.00  0.00     0.024 C 
BRANCH  11  14
HETATM   14  O1  UNL     1      18.629  -0.786  53.951  1.00  0.00    -0.364 OA
HETATM   15  H17 UNL     1      18.587  -1.244  54.847  1.00  0.00     0.217 HD
ENDBRANCH  11  14
ENDBRANCH   6   7
ENDBRANCH   1   6
BRANCH   1  16
HETATM   16  C13 UNL     1      25.633   0.320  53.622  1.00  0.00     0.176 C 
HETATM   17  S1  UNL     1      24.899  -0.763  54.665  1.00  0.00    -0.040 SA
BRANCH  16  18
HETATM   18  N2  UNL     1      27.029   0.183  53.630  1.00  0.00    -0.331 N 
HETATM   19  C14 UNL     1      28.050   1.078  54.006  1.00  0.00     0.093 A 
HETATM   20  C15 UNL     1      29.359   0.971  54.034  1.00  0.00     0.017 A 
HETATM   21  C16 UNL     1      29.896  -0.310  53.592  1.00  0.00    -0.001 A 
HETATM   22  C17 UNL     1      29.001  -1.194  53.221  1.00  0.00    -0.007 A 
HETATM   23  C18 UNL     1      27.540  -1.102  53.178  1.00  0.00     0.158 A 
ENDBRANCH  16  18
ENDBRANCH   1  16
TORSDOF 8
ENDMDL
MODEL 9
REMARK VINA RESULT:      -6.9      2.783      5.364
REMARK  8 active torsions:
REMARK  status: ('A' for Active; 'I' for Inactive)
REMARK    1  A    between atoms: C2_2  and  C3_3 
REMARK    2  A    between atoms: C3_3  and  C4_4 
REMARK    3  A    between atoms: C4_4  and  N1_5 
REMARK    4  A    between atoms: N1_5  and  C5_6 
REMARK    5  A    between atoms: N1_5  and  C13_15 
REMARK    6  A    between atoms: C5_6  and  C6_7 
REMARK    7  A    between atoms: C10_11  and  O1_12 
REMARK    8  A    between atoms: C13_15  and  N2_17 
ROOT
HETATM    1  N1  UNL     1      25.626   1.387  52.799  1.00  0.00    -0.354 N 
ENDROOT
BRANCH   1   2
HETATM    2  C4  UNL     1      26.660   1.722  53.795  1.00  0.00     0.125 C 
BRANCH   2   3
HETATM    3  C3  UNL     1      27.515   0.559  54.177  1.00  0.00     0.020 C 
BRANCH   3   4
HETATM    4  C2  UNL     1      28.906   0.636  53.580  1.00  0.00    -0.003 C 
HETATM    5  C1  UNL     1      29.620  -0.694  53.713  1.00  0.00     0.005 C 
ENDBRANCH   3   4
ENDBRANCH   2   3
ENDBRANCH   1   2
BRANCH   1   6
HETATM    6  C5  UNL     1      25.206   0.003  52.918  1.00  0.00     0.164 C 
BRANCH   6   7
HETATM    7  C6  UNL     1      23.833  -0.247  53.331  1.00  0.00    -0.037 C 
HETATM    8  C7  UNL     1      23.464  -0.809  54.512  1.00  0.00    -0.070 C 
HETATM    9  C8  UNL     1      24.505  -1.217  55.485  1.00  0.00     0.044 C 
HETATM   10  C9  UNL     1      22.069  -1.064  54.963  1.00  0.00     0.099 C 
HETATM   11  C10 UNL     1      21.109  -0.313  54.126  1.00  0.00     0.058 C 
HETATM   12  C11 UNL     1      21.584   0.456  53.154  1.00  0.00     0.006 C 
HETATM   13  C12 UNL     1      22.659   0.029  52.502  1.00  0.00     0.024 C 
BRANCH  11  14
HETATM   14  O1  UNL     1      19.742  -0.333  54.260  1.00  0.00    -0.364 OA
HETATM   15  H17 UNL     1      19.064  -0.334  53.515  1.00  0.00     0.217 HD
ENDBRANCH  11  14
ENDBRANCH   6   7
ENDBRANCH   1   6
BRANCH   1  16
HETATM   16  C13 UNL     1      25.177   2.426  51.869  1.00  0.00     0.176 C 
HETATM   17  S1  UNL     1      26.420   2.819  50.823  1.00  0.00    -0.040 SA
BRANCH  16  18
HETATM   18  N2  UNL     1      24.020   3.176  51.607  1.00  0.00    -0.331 N 
HETATM   19  C14 UNL     1      23.177   3.224  50.479  1.00  0.00     0.093 A 
HETATM   20  C15 UNL     1      22.086   3.906  50.214  1.00  0.00     0.017 A 
HETATM   21  C16 UNL     1      21.630   4.801  51.270  1.00  0.00    -0.001 A 
HETATM   22  C17 UNL     1      22.371   4.812  52.353  1.00  0.00    -0.007 A 
HETATM   23  C18 UNL     1      23.589   4.066  52.675  1.00  0.00     0.158 A 
ENDBRANCH  16  18
ENDBRANCH   1  16
TORSDOF 8
ENDMDL
