MODEL 1
REMARK VINA RESULT:      -8.0      0.000      0.000
REMARK  6 active torsions:
REMARK  status: ('A' for Active; 'I' for Inactive)
REMARK    1  A    between atoms: C7_9  and  N3_10 
REMARK       I    between atoms: N3_10  and  C8_11 
REMARK    2  A    between atoms: C8_11  and  C9_13 
REMARK    3  A    between atoms: C10_14  and  C11_15 
REMARK    4  A    between atoms: C11_15  and  N4_16 
REMARK    5  A    between atoms: C18_24  and  C19_25 
REMARK    6  A    between atoms: C19_25  and  C20_27 
ROOT
HETATM    1  N1  UNL     1      27.598  -0.165  54.950  1.00  0.00    -0.191 NA
HETATM    2  C1  UNL     1      26.449  -0.282  54.816  1.00  0.00     0.101 C 
HETATM    3  C2  UNL     1      25.044  -0.451  54.652  1.00  0.00     0.070 A 
HETATM    4  C3  UNL     1      24.439  -1.327  55.552  1.00  0.00     0.140 A 
HETATM    5  N2  UNL     1      23.117  -1.550  55.466  1.00  0.00    -0.259 NA
HETATM    6  C4  UNL     1      22.386  -0.918  54.503  1.00  0.00     0.067 A 
HETATM    7  C5  UNL     1      21.033  -1.208  54.484  1.00  0.00     0.035 A 
HETATM    8  C6  UNL     1      20.268  -0.572  53.501  1.00  0.00     0.032 A 
HETATM    9  C7  UNL     1      20.879   0.306  52.602  1.00  0.00     0.035 A 
HETATM   10  C16 UNL     1      22.233   0.546  52.681  1.00  0.00     0.044 A 
HETATM   11  C17 UNL     1      23.018  -0.060  53.632  1.00  0.00     0.004 A 
HETATM   12  C18 UNL     1      24.360   0.225  53.649  1.00  0.00    -0.003 A 
ENDROOT
BRANCH  12  13
HETATM   13  C19 UNL     1      25.015   1.147  52.713  1.00  0.00     0.146 C 
HETATM   14 CL1  UNL     1      25.754   2.548  53.559  1.00  0.00    -0.117 Cl
BRANCH  13  15
HETATM   15  C20 UNL     1      26.113   0.458  51.914  1.00  0.00     0.247 C 
HETATM   16  F1  UNL     1      27.072   1.407  51.606  1.00  0.00    -0.254 F 
ENDBRANCH  13  15
ENDBRANCH  12  13
BRANCH   9  17
HETATM   17  N3  UNL     1      19.906   0.821  51.705  1.00  0.00    -0.324 N 
HETATM   18  C8  UNL     1      19.548   2.167  52.000  1.00  0.00     0.245 C 
HETATM   19  O1  UNL     1      20.207   2.535  53.004  1.00  0.00    -0.268 OA
HETATM   20  H4  UNL     1      19.478   0.320  50.916  1.00  0.00     0.169 HD
BRANCH  18  21
HETATM   21  C9  UNL     1      18.604   2.966  51.280  1.00  0.00     0.072 C 
HETATM   22  C10 UNL     1      18.655   4.088  50.590  1.00  0.00     0.008 C 
BRANCH  22  23
HETATM   23  C11 UNL     1      19.464   5.203  50.081  1.00  0.00     0.300 C 
BRANCH  23  24
HETATM   24  N4  UNL     1      20.804   5.270  50.646  1.00  0.00     0.096 N 
HETATM   25  C12 UNL     1      21.335   6.614  50.564  1.00  0.00     0.299 C 
HETATM   26  C13 UNL     1      22.813   6.609  50.764  1.00  0.00     0.198 C 
HETATM   27  O2  UNL     1      23.266   5.505  51.486  1.00  0.00    -0.388 OA
HETATM   28  C14 UNL     1      22.975   4.309  50.860  1.00  0.00     0.198 C 
HETATM   29  C15 UNL     1      21.727   4.371  50.007  1.00  0.00     0.299 C 
ENDBRANCH  23  24
ENDBRANCH  22  23
ENDBRANCH  18  21
ENDBRANCH   9  17
TORSDOF 6
ENDMDL
MODEL 2
REMARK VINA RESULT:      -7.6      4.664      6.290
REMARK  6 active torsions:
REMARK  status: ('A' for Active; 'I' for Inactive)
REMARK    1  A    between atoms: C7_9  and  N3_10 
REMARK       I    between atoms: N3_10  and  C8_11 
REMARK    2  A    between atoms: C8_11  and  C9_13 
REMARK    3  A    between atoms: C10_14  and  C11_15 
REMARK    4  A    between atoms: C11_15  and  N4_16 
REMARK    5  A    between atoms: C18_24  and  C19_25 
REMARK    6  A    between atoms: C19_25  and  C20_27 
ROOT
HETATM    1  N1  UNL     1      23.104  -1.545  55.523  1.00  0.00    -0.191 NA
HETATM    2  C1  UNL     1      23.034  -0.873  54.578  1.00  0.00     0.101 C 
HETATM    3  C2  UNL     1      22.935  -0.068  53.407  1.00  0.00     0.070 A 
HETATM    4  C3  UNL     1      21.677  -0.038  52.807  1.00  0.00     0.140 A 
HETATM    5  N2  UNL     1      21.495   0.692  51.694  1.00  0.00    -0.259 NA
HETATM    6  C4  UNL     1      22.541   1.392  51.167  1.00  0.00     0.067 A 
HETATM    7  C5  UNL     1      22.266   2.113  50.018  1.00  0.00     0.035 A 
HETATM    8  C6  UNL     1      23.327   2.836  49.461  1.00  0.00     0.032 A 
HETATM    9  C7  UNL     1      24.586   2.802  50.066  1.00  0.00     0.035 A 
HETATM   10  C16 UNL     1      24.785   2.061  51.210  1.00  0.00     0.044 A 
HETATM   11  C17 UNL     1      23.769   1.339  51.787  1.00  0.00     0.004 A 
HETATM   12  C18 UNL     1      24.041   0.621  52.924  1.00  0.00    -0.003 A 
ENDROOT
BRANCH  12  13
HETATM   13  C19 UNL     1      25.358   0.580  53.572  1.00  0.00     0.146 C 
HETATM   14 CL1  UNL     1      26.601  -0.167  52.513  1.00  0.00    -0.117 Cl
BRANCH  13  15
HETATM   15  C20 UNL     1      25.847   1.972  53.948  1.00  0.00     0.247 C 
HETATM   16  F1  UNL     1      27.199   2.037  53.661  1.00  0.00    -0.254 F 
ENDBRANCH  13  15
ENDBRANCH  12  13
BRANCH   9  17
HETATM   17  N3  UNL     1      25.492   3.605  49.323  1.00  0.00    -0.324 N 
HETATM   18  C8  UNL     1      25.413   4.983  49.667  1.00  0.00     0.245 C 
HETATM   19  O1  UNL     1      24.534   5.113  50.556  1.00  0.00    -0.268 OA
HETATM   20  H4  UNL     1      26.152   3.274  48.606  1.00  0.00     0.169 HD
BRANCH  18  21
HETATM   21  C9  UNL     1      26.197   6.040  49.104  1.00  0.00     0.072 C 
HETATM   22  C10 UNL     1      27.402   6.140  48.581  1.00  0.00     0.008 C 
BRANCH  22  23
HETATM   23  C11 UNL     1      28.659   5.476  48.207  1.00  0.00     0.300 C 
BRANCH  23  24
HETATM   24  N4  UNL     1      29.853   6.147  48.700  1.00  0.00     0.096 N 
HETATM   25  C12 UNL     1      29.744   7.582  48.547  1.00  0.00     0.299 C 
HETATM   26  C13 UNL     1      31.082   8.228  48.671  1.00  0.00     0.198 C 
HETATM   27  O2  UNL     1      31.993   7.468  49.405  1.00  0.00    -0.388 OA
HETATM   28  C14 UNL     1      32.231   6.233  48.836  1.00  0.00     0.198 C 
HETATM   29  C15 UNL     1      31.055   5.703  48.047  1.00  0.00     0.299 C 
ENDBRANCH  23  24
ENDBRANCH  22  23
ENDBRANCH  18  21
ENDBRANCH   9  17
TORSDOF 6
ENDMDL
MODEL 3
REMARK VINA RESULT:      -7.6      5.049      6.804
REMARK  6 active torsions:
REMARK  status: ('A' for Active; 'I' for Inactive)
REMARK    1  A    between atoms: C7_9  and  N3_10 
REMARK       I    between atoms: N3_10  and  C8_11 
REMARK    2  A    between atoms: C8_11  and  C9_13 
REMARK    3  A    between atoms: C10_14  and  C11_15 
REMARK    4  A    between atoms: C11_15  and  N4_16 
REMARK    5  A    between atoms: C18_24  and  C19_25 
REMARK    6  A    between atoms: C19_25  and  C20_27 
ROOT
HETATM    1  N1  UNL     1      19.956  -0.409  53.559  1.00  0.00    -0.191 NA
HETATM    2  C1  UNL     1      21.075  -0.186  53.336  1.00  0.00     0.101 C 
HETATM    3  C2  UNL     1      22.451   0.083  53.086  1.00  0.00     0.070 A 
HETATM    4  C3  UNL     1      23.343  -0.872  53.571  1.00  0.00     0.140 A 
HETATM    5  N2  UNL     1      24.662  -0.696  53.386  1.00  0.00    -0.259 NA
HETATM    6  C4  UNL     1      25.110   0.412  52.727  1.00  0.00     0.067 A 
HETATM    7  C5  UNL     1      26.482   0.515  52.584  1.00  0.00     0.035 A 
HETATM    8  C6  UNL     1      26.961   1.646  51.913  1.00  0.00     0.032 A 
HETATM    9  C7  UNL     1      26.062   2.600  51.429  1.00  0.00     0.035 A 
HETATM   10  C16 UNL     1      24.707   2.430  51.609  1.00  0.00     0.044 A 
HETATM   11  C17 UNL     1      24.199   1.334  52.262  1.00  0.00     0.004 A 
HETATM   12  C18 UNL     1      22.839   1.232  52.408  1.00  0.00    -0.003 A 
ENDROOT
BRANCH  12  13
HETATM   13  C19 UNL     1      21.884   2.225  51.901  1.00  0.00     0.146 C 
HETATM   14 CL1  UNL     1      22.354   3.898  52.354  1.00  0.00    -0.117 Cl
BRANCH  13  15
HETATM   15  C20 UNL     1      21.765   2.173  50.384  1.00  0.00     0.247 C 
HETATM   16  F1  UNL     1      21.751   0.842  50.006  1.00  0.00    -0.254 F 
ENDBRANCH  13  15
ENDBRANCH  12  13
BRANCH   9  17
HETATM   17  N3  UNL     1      26.779   3.649  50.793  1.00  0.00    -0.324 N 
HETATM   18  C8  UNL     1      26.112   4.147  49.640  1.00  0.00     0.245 C 
HETATM   19  O1  UNL     1      25.045   3.500  49.495  1.00  0.00    -0.268 OA
HETATM   20  H4  UNL     1      27.682   4.040  51.094  1.00  0.00     0.169 HD
BRANCH  18  21
HETATM   21  C9  UNL     1      26.572   5.204  48.790  1.00  0.00     0.072 C 
HETATM   22  C10 UNL     1      27.746   5.624  48.365  1.00  0.00     0.008 C 
BRANCH  22  23
HETATM   23  C11 UNL     1      29.206   5.456  48.364  1.00  0.00     0.300 C 
BRANCH  23  24
HETATM   24  N4  UNL     1      29.946   6.701  48.505  1.00  0.00     0.096 N 
HETATM   25  C12 UNL     1      30.071   7.379  47.232  1.00  0.00     0.299 C 
HETATM   26  C13 UNL     1      31.140   8.417  47.291  1.00  0.00     0.198 C 
HETATM   27  O2  UNL     1      31.387   8.879  48.585  1.00  0.00    -0.388 OA
HETATM   28  C14 UNL     1      31.802   7.873  49.434  1.00  0.00     0.198 C 
HETATM   29  C15 UNL     1      31.260   6.512  49.058  1.00  0.00     0.299 C 
ENDBRANCH  23  24
ENDBRANCH  22  23
ENDBRANCH  18  21
ENDBRANCH   9  17
TORSDOF 6
ENDMDL
MODEL 4
REMARK VINA RESULT:      -7.6      3.312      5.279
REMARK  6 active torsions:
REMARK  status: ('A' for Active; 'I' for Inactive)
REMARK    1  A    between atoms: C7_9  and  N3_10 
REMARK       I    between atoms: N3_10  and  C8_11 
REMARK    2  A    between atoms: C8_11  and  C9_13 
REMARK    3  A    between atoms: C10_14  and  C11_15 
REMARK    4  A    between atoms: C11_15  and  N4_16 
REMARK    5  A    between atoms: C18_24  and  C19_25 
REMARK    6  A    between atoms: C19_25  and  C20_27 
ROOT
HETATM    1  N1  UNL     1      28.141   2.165  52.611  1.00  0.00    -0.191 NA
HETATM    2  C1  UNL     1      27.179   1.616  52.964  1.00  0.00     0.101 C 
HETATM    3  C2  UNL     1      26.012   0.920  53.391  1.00  0.00     0.070 A 
HETATM    4  C3  UNL     1      26.235  -0.133  54.277  1.00  0.00     0.140 A 
HETATM    5  N2  UNL     1      25.190  -0.848  54.727  1.00  0.00    -0.259 NA
HETATM    6  C4  UNL     1      23.928  -0.534  54.313  1.00  0.00     0.067 A 
HETATM    7  C5  UNL     1      22.913  -1.323  54.823  1.00  0.00     0.035 A 
HETATM    8  C6  UNL     1      21.612  -1.020  54.407  1.00  0.00     0.032 A 
HETATM    9  C7  UNL     1      21.394   0.037  53.519  1.00  0.00     0.035 A 
HETATM   10  C16 UNL     1      22.456   0.780  53.053  1.00  0.00     0.044 A 
HETATM   11  C17 UNL     1      23.747   0.512  53.437  1.00  0.00     0.004 A 
HETATM   12  C18 UNL     1      24.755   1.293  52.930  1.00  0.00    -0.003 A 
ENDROOT
BRANCH  12  13
HETATM   13  C19 UNL     1      24.540   2.407  51.999  1.00  0.00     0.146 C 
HETATM   14 CL1  UNL     1      23.489   1.936  50.622  1.00  0.00    -0.117 Cl
BRANCH  13  15
HETATM   15  C20 UNL     1      23.892   3.602  52.687  1.00  0.00     0.247 C 
HETATM   16  F1  UNL     1      24.433   3.703  53.957  1.00  0.00    -0.254 F 
ENDBRANCH  13  15
ENDBRANCH  12  13
BRANCH   9  17
HETATM   17  N3  UNL     1      20.004   0.149  53.245  1.00  0.00    -0.324 N 
HETATM   18  C8  UNL     1      19.714   0.088  51.854  1.00  0.00     0.245 C 
HETATM   19  O1  UNL     1      20.799  -0.045  51.234  1.00  0.00    -0.268 OA
HETATM   20  H4  UNL     1      19.254   0.260  53.940  1.00  0.00     0.169 HD
BRANCH  18  21
HETATM   21  C9  UNL     1      18.414   0.164  51.259  1.00  0.00     0.072 C 
HETATM   22  C10 UNL     1      17.193  -0.169  51.625  1.00  0.00     0.008 C 
BRANCH  22  23
HETATM   23  C11 UNL     1      16.310  -0.741  52.651  1.00  0.00     0.300 C 
BRANCH  23  24
HETATM   24  N4  UNL     1      15.181   0.108  53.002  1.00  0.00     0.096 N 
HETATM   25  C12 UNL     1      13.926  -0.565  52.746  1.00  0.00     0.299 C 
HETATM   26  C13 UNL     1      12.800   0.412  52.722  1.00  0.00     0.198 C 
HETATM   27  O2  UNL     1      13.066   1.575  53.445  1.00  0.00    -0.388 OA
HETATM   28  C14 UNL     1      14.161   2.261  52.958  1.00  0.00     0.198 C 
HETATM   29  C15 UNL     1      15.183   1.362  52.299  1.00  0.00     0.299 C 
ENDBRANCH  23  24
ENDBRANCH  22  23
ENDBRANCH  18  21
ENDBRANCH   9  17
TORSDOF 6
ENDMDL
MODEL 5
REMARK VINA RESULT:      -7.5      2.873      5.244
REMARK  6 active torsions:
REMARK  status: ('A' for Active; 'I' for Inactive)
REMARK    1  A    between atoms: C7_9  and  N3_10 
REMARK       I    between atoms: N3_10  and  C8_11 
REMARK    2  A    between atoms: C8_11  and  C9_13 
REMARK    3  A    between atoms: C10_14  and  C11_15 
REMARK    4  A    between atoms: C11_15  and  N4_16 
REMARK    5  A    between atoms: C18_24  and  C19_25 
REMARK    6  A    between atoms: C19_25  and  C20_27 
ROOT
HETATM    1  N1  UNL     1      19.483  -0.185  53.223  1.00  0.00    -0.191 NA
HETATM    2  C1  UNL     1      20.632  -0.042  53.120  1.00  0.00     0.101 C 
HETATM    3  C2  UNL     1      22.042   0.128  53.018  1.00  0.00     0.070 A 
HETATM    4  C3  UNL     1      22.809  -0.870  53.618  1.00  0.00     0.140 A 
HETATM    5  N2  UNL     1      24.149  -0.786  53.575  1.00  0.00    -0.259 NA
HETATM    6  C4  UNL     1      24.741   0.271  52.946  1.00  0.00     0.067 A 
HETATM    7  C5  UNL     1      26.124   0.280  52.952  1.00  0.00     0.035 A 
HETATM    8  C6  UNL     1      26.749   1.357  52.315  1.00  0.00     0.032 A 
HETATM    9  C7  UNL     1      25.975   2.354  51.714  1.00  0.00     0.035 A 
HETATM   10  C16 UNL     1      24.600   2.278  51.748  1.00  0.00     0.044 A 
HETATM   11  C17 UNL     1      23.951   1.237  52.364  1.00  0.00     0.004 A 
HETATM   12  C18 UNL     1      22.578   1.229  52.361  1.00  0.00    -0.003 A 
ENDROOT
BRANCH  12  13
HETATM   13  C19 UNL     1      21.754   2.268  51.732  1.00  0.00     0.146 C 
HETATM   14 CL1  UNL     1      22.089   3.894  52.416  1.00  0.00    -0.117 Cl
BRANCH  13  15
HETATM   15  C20 UNL     1      21.988   2.342  50.229  1.00  0.00     0.247 C 
HETATM   16  F1  UNL     1      21.864   1.061  49.718  1.00  0.00    -0.254 F 
ENDBRANCH  13  15
ENDBRANCH  12  13
BRANCH   9  17
HETATM   17  N3  UNL     1      26.827   3.334  51.139  1.00  0.00    -0.324 N 
HETATM   18  C8  UNL     1      26.477   3.644  49.795  1.00  0.00     0.245 C 
HETATM   19  O1  UNL     1      25.485   2.940  49.478  1.00  0.00    -0.268 OA
HETATM   20  H4  UNL     1      27.620   3.799  51.600  1.00  0.00     0.169 HD
BRANCH  18  21
HETATM   21  C9  UNL     1      27.135   4.592  48.948  1.00  0.00     0.072 C 
HETATM   22  C10 UNL     1      26.875   5.812  48.524  1.00  0.00     0.008 C 
BRANCH  22  23
HETATM   23  C11 UNL     1      25.964   6.966  48.525  1.00  0.00     0.300 C 
BRANCH  23  24
HETATM   24  N4  UNL     1      24.685   6.711  49.172  1.00  0.00     0.096 N 
HETATM   25  C12 UNL     1      23.708   6.230  48.219  1.00  0.00     0.299 C 
HETATM   26  C13 UNL     1      22.329   6.349  48.773  1.00  0.00     0.198 C 
HETATM   27  O2  UNL     1      22.296   6.359  50.168  1.00  0.00    -0.388 OA
HETATM   28  C14 UNL     1      23.003   7.417  50.705  1.00  0.00     0.198 C 
HETATM   29  C15 UNL     1      24.152   7.872  49.833  1.00  0.00     0.299 C 
ENDBRANCH  23  24
ENDBRANCH  22  23
ENDBRANCH  18  21
ENDBRANCH   9  17
TORSDOF 6
ENDMDL
MODEL 6
REMARK VINA RESULT:      -7.4      2.190      2.913
REMARK  6 active torsions:
REMARK  status: ('A' for Active; 'I' for Inactive)
REMARK    1  A    between atoms: C7_9  and  N3_10 
REMARK       I    between atoms: N3_10  and  C8_11 
REMARK    2  A    between atoms: C8_11  and  C9_13 
REMARK    3  A    between atoms: C10_14  and  C11_15 
REMARK    4  A    between atoms: C11_15  and  N4_16 
REMARK    5  A    between atoms: C18_24  and  C19_25 
REMARK    6  A    between atoms: C19_25  and  C20_27 
ROOT
HETATM    1  N1  UNL     1      27.916   2.279  52.338  1.00  0.00    -0.191 NA
HETATM    2  C1  UNL     1      27.002   1.696  52.757  1.00  0.00     0.101 C 
HETATM    3  C2  UNL     1      25.894   0.959  53.265  1.00  0.00     0.070 A 
HETATM    4  C3  UNL     1      26.217  -0.083  54.134  1.00  0.00     0.140 A 
HETATM    5  N2  UNL     1      25.233  -0.834  54.655  1.00  0.00    -0.259 NA
HETATM    6  C4  UNL     1      23.935  -0.569  54.330  1.00  0.00     0.067 A 
HETATM    7  C5  UNL     1      22.987  -1.394  54.909  1.00  0.00     0.035 A 
HETATM    8  C6  UNL     1      21.650  -1.140  54.585  1.00  0.00     0.032 A 
HETATM    9  C7  UNL     1      21.332  -0.094  53.713  1.00  0.00     0.035 A 
HETATM   10  C16 UNL     1      22.331   0.686  53.174  1.00  0.00     0.044 A 
HETATM   11  C17 UNL     1      23.654   0.468  53.468  1.00  0.00     0.004 A 
HETATM   12  C18 UNL     1      24.595   1.283  52.892  1.00  0.00    -0.003 A 
ENDROOT
BRANCH  12  13
HETATM   13  C19 UNL     1      24.274   2.386  51.978  1.00  0.00     0.146 C 
HETATM   14 CL1  UNL     1      23.350   1.822  50.546  1.00  0.00    -0.117 Cl
BRANCH  13  15
HETATM   15  C20 UNL     1      23.449   3.467  52.664  1.00  0.00     0.247 C 
HETATM   16  F1  UNL     1      24.225   4.018  53.668  1.00  0.00    -0.254 F 
ENDBRANCH  13  15
ENDBRANCH  12  13
BRANCH   9  17
HETATM   17  N3  UNL     1      19.923  -0.035  53.537  1.00  0.00    -0.324 N 
HETATM   18  C8  UNL     1      19.544   0.000  52.166  1.00  0.00     0.245 C 
HETATM   19  O1  UNL     1      20.591  -0.026  51.471  1.00  0.00    -0.268 OA
HETATM   20  H4  UNL     1      19.216  -0.019  54.284  1.00  0.00     0.169 HD
BRANCH  18  21
HETATM   21  C9  UNL     1      18.206   0.054  51.662  1.00  0.00     0.072 C 
HETATM   22  C10 UNL     1      17.591   0.706  50.695  1.00  0.00     0.008 C 
BRANCH  22  23
HETATM   23  C11 UNL     1      17.677   1.670  49.590  1.00  0.00     0.300 C 
BRANCH  23  24
HETATM   24  N4  UNL     1      18.893   2.471  49.595  1.00  0.00     0.096 N 
HETATM   25  C12 UNL     1      18.803   3.545  50.561  1.00  0.00     0.299 C 
HETATM   26  C13 UNL     1      19.843   4.580  50.297  1.00  0.00     0.198 C 
HETATM   27  O2  UNL     1      20.947   4.084  49.602  1.00  0.00    -0.388 OA
HETATM   28  C14 UNL     1      20.608   3.577  48.364  1.00  0.00     0.198 C 
HETATM   29  C15 UNL     1      19.197   3.034  48.307  1.00  0.00     0.299 C 
ENDBRANCH  23  24
ENDBRANCH  22  23
ENDBRANCH  18  21
ENDBRANCH   9  17
TORSDOF 6
ENDMDL
MODEL 7
REMARK VINA RESULT:      -7.4      3.128      4.755
REMARK  6 active torsions:
REMARK  status: ('A' for Active; 'I' for Inactive)
REMARK    1  A    between atoms: C7_9  and  N3_10 
REMARK       I    between atoms: N3_10  and  C8_11 
REMARK    2  A    between atoms: C8_11  and  C9_13 
REMARK    3  A    between atoms: C10_14  and  C11_15 
REMARK    4  A    between atoms: C11_15  and  N4_16 
REMARK    5  A    between atoms: C18_24  and  C19_25 
REMARK    6  A    between atoms: C19_25  and  C20_27 
ROOT
HETATM    1  N1  UNL     1      26.810   2.864  51.191  1.00  0.00    -0.191 NA
HETATM    2  C1  UNL     1      26.070   2.167  51.755  1.00  0.00     0.101 C 
HETATM    3  C2  UNL     1      25.176   1.292  52.436  1.00  0.00     0.070 A 
HETATM    4  C3  UNL     1      25.779   0.244  53.131  1.00  0.00     0.140 A 
HETATM    5  N2  UNL     1      25.011  -0.633  53.797  1.00  0.00    -0.259 NA
HETATM    6  C4  UNL     1      23.654  -0.488  53.785  1.00  0.00     0.067 A 
HETATM    7  C5  UNL     1      22.939  -1.438  54.494  1.00  0.00     0.035 A 
HETATM    8  C6  UNL     1      21.546  -1.308  54.491  1.00  0.00     0.032 A 
HETATM    9  C7  UNL     1      20.947  -0.256  53.793  1.00  0.00     0.035 A 
HETATM   10  C16 UNL     1      21.724   0.653  53.109  1.00  0.00     0.044 A 
HETATM   11  C17 UNL     1      23.094   0.558  53.088  1.00  0.00     0.004 A 
HETATM   12  C18 UNL     1      23.803   1.498  52.383  1.00  0.00    -0.003 A 
ENDROOT
BRANCH  12  13
HETATM   13  C19 UNL     1      23.186   2.609  51.648  1.00  0.00     0.146 C 
HETATM   14 CL1  UNL     1      23.826   4.200  52.181  1.00  0.00    -0.117 Cl
BRANCH  13  15
HETATM   15  C20 UNL     1      23.422   2.495  50.148  1.00  0.00     0.247 C 
HETATM   16  F1  UNL     1      22.652   1.446  49.678  1.00  0.00    -0.254 F 
ENDBRANCH  13  15
ENDBRANCH  12  13
BRANCH   9  17
HETATM   17  N3  UNL     1      19.536  -0.335  53.935  1.00  0.00    -0.324 N 
HETATM   18  C8  UNL     1      18.860  -0.361  52.683  1.00  0.00     0.245 C 
HETATM   19  O1  UNL     1      19.724  -0.299  51.772  1.00  0.00    -0.268 OA
HETATM   20  H4  UNL     1      19.013  -0.373  54.820  1.00  0.00     0.169 HD
BRANCH  18  21
HETATM   21  C9  UNL     1      17.444  -0.444  52.490  1.00  0.00     0.072 C 
HETATM   22  C10 UNL     1      16.533   0.292  51.887  1.00  0.00     0.008 C 
BRANCH  22  23
HETATM   23  C11 UNL     1      16.220   1.495  51.103  1.00  0.00     0.300 C 
BRANCH  23  24
HETATM   24  N4  UNL     1      15.269   2.390  51.746  1.00  0.00     0.096 N 
HETATM   25  C12 UNL     1      15.934   3.561  52.277  1.00  0.00     0.299 C 
HETATM   26  C13 UNL     1      15.058   4.264  53.258  1.00  0.00     0.198 C 
HETATM   27  O2  UNL     1      13.700   4.012  53.062  1.00  0.00    -0.388 OA
HETATM   28  C14 UNL     1      13.388   2.672  53.183  1.00  0.00     0.198 C 
HETATM   29  C15 UNL     1      14.532   1.757  52.806  1.00  0.00     0.299 C 
ENDBRANCH  23  24
ENDBRANCH  22  23
ENDBRANCH  18  21
ENDBRANCH   9  17
TORSDOF 6
ENDMDL
MODEL 8
REMARK VINA RESULT:      -7.4      4.321      6.286
REMARK  6 active torsions:
REMARK  status: ('A' for Active; 'I' for Inactive)
REMARK    1  A    between atoms: C7_9  and  N3_10 
REMARK       I    between atoms: N3_10  and  C8_11 
REMARK    2  A    between atoms: C8_11  and  C9_13 
REMARK    3  A    between atoms: C10_14  and  C11_15 
REMARK    4  A    between atoms: C11_15  and  N4_16 
REMARK    5  A    between atoms: C18_24  and  C19_25 
REMARK    6  A    between atoms: C19_25  and  C20_27 
ROOT
HETATM    1  N1  UNL     1      19.616  -0.475  53.344  1.00  0.00    -0.191 NA
HETATM    2  C1  UNL     1      20.756  -0.257  53.277  1.00  0.00     0.101 C 
HETATM    3  C2  UNL     1      22.154   0.009  53.220  1.00  0.00     0.070 A 
HETATM    4  C3  UNL     1      22.955  -0.847  53.975  1.00  0.00     0.140 A 
HETATM    5  N2  UNL     1      24.287  -0.665  53.985  1.00  0.00    -0.259 NA
HETATM    6  C4  UNL     1      24.835   0.351  53.258  1.00  0.00     0.067 A 
HETATM    7  C5  UNL     1      26.212   0.468  53.327  1.00  0.00     0.035 A 
HETATM    8  C6  UNL     1      26.793   1.505  52.591  1.00  0.00     0.032 A 
HETATM    9  C7  UNL     1      25.985   2.360  51.835  1.00  0.00     0.035 A 
HETATM   10  C16 UNL     1      24.619   2.182  51.814  1.00  0.00     0.044 A 
HETATM   11  C17 UNL     1      24.012   1.175  52.524  1.00  0.00     0.004 A 
HETATM   12  C18 UNL     1      22.646   1.061  52.458  1.00  0.00    -0.003 A 
ENDROOT
BRANCH  12  13
HETATM   13  C19 UNL     1      21.787   1.949  51.666  1.00  0.00     0.146 C 
HETATM   14 CL1  UNL     1      20.896   1.055  50.389  1.00  0.00    -0.117 Cl
BRANCH  13  15
HETATM   15  C20 UNL     1      20.759   2.662  52.534  1.00  0.00     0.247 C 
HETATM   16  F1  UNL     1      20.658   3.967  52.084  1.00  0.00    -0.254 F 
ENDBRANCH  13  15
ENDBRANCH  12  13
BRANCH   9  17
HETATM   17  N3  UNL     1      26.796   3.327  51.183  1.00  0.00    -0.324 N 
HETATM   18  C8  UNL     1      26.390   3.566  49.841  1.00  0.00     0.245 C 
HETATM   19  O1  UNL     1      25.401   2.830  49.594  1.00  0.00    -0.268 OA
HETATM   20  H4  UNL     1      27.596   3.827  51.592  1.00  0.00     0.169 HD
BRANCH  18  21
HETATM   21  C9  UNL     1      26.998   4.485  48.926  1.00  0.00     0.072 C 
HETATM   22  C10 UNL     1      27.000   5.793  48.772  1.00  0.00     0.008 C 
BRANCH  22  23
HETATM   23  C11 UNL     1      26.535   7.106  49.241  1.00  0.00     0.300 C 
BRANCH  23  24
HETATM   24  N4  UNL     1      27.311   8.227  48.732  1.00  0.00     0.096 N 
HETATM   25  C12 UNL     1      28.463   7.765  47.988  1.00  0.00     0.299 C 
HETATM   26  C13 UNL     1      29.453   8.866  47.813  1.00  0.00     0.198 C 
HETATM   27  O2  UNL     1      28.881  10.137  47.890  1.00  0.00    -0.388 OA
HETATM   28  C14 UNL     1      28.279  10.372  49.110  1.00  0.00     0.198 C 
HETATM   29  C15 UNL     1      27.760   9.115  49.771  1.00  0.00     0.299 C 
ENDBRANCH  23  24
ENDBRANCH  22  23
ENDBRANCH  18  21
ENDBRANCH   9  17
TORSDOF 6
ENDMDL
MODEL 9
REMARK VINA RESULT:      -7.3      3.807      8.304
REMARK  6 active torsions:
REMARK  status: ('A' for Active; 'I' for Inactive)
REMARK    1  A    between atoms: C7_9  and  N3_10 
REMARK       I    between atoms: N3_10  and  C8_11 
REMARK    2  A    between atoms: C8_11  and  C9_13 
REMARK    3  A    between atoms: C10_14  and  C11_15 
REMARK    4  A    between atoms: C11_15  and  N4_16 
REMARK    5  A    between atoms: C18_24  and  C19_25 
REMARK    6  A    between atoms: C19_25  and  C20_27 
ROOT
HETATM    1  N1  UNL     1      25.061   9.262  47.109  1.00  0.00    -0.191 NA
HETATM    2  C1  UNL     1      24.662   8.210  47.401  1.00  0.00     0.101 C 
HETATM    3  C2  UNL     1      24.149   6.931  47.761  1.00  0.00     0.070 A 
HETATM    4  C3  UNL     1      22.965   6.561  47.126  1.00  0.00     0.140 A 
HETATM    5  N2  UNL     1      22.407   5.373  47.411  1.00  0.00    -0.259 NA
HETATM    6  C4  UNL     1      23.005   4.546  48.316  1.00  0.00     0.067 A 
HETATM    7  C5  UNL     1      22.362   3.344  48.553  1.00  0.00     0.035 A 
HETATM    8  C6  UNL     1      22.959   2.483  49.480  1.00  0.00     0.032 A 
HETATM    9  C7  UNL     1      24.147   2.859  50.115  1.00  0.00     0.035 A 
HETATM   10  C16 UNL     1      24.731   4.073  49.828  1.00  0.00     0.044 A 
HETATM   11  C17 UNL     1      24.175   4.945  48.924  1.00  0.00     0.004 A 
HETATM   12  C18 UNL     1      24.811   6.138  48.691  1.00  0.00    -0.003 A 
ENDROOT
BRANCH  12  13
HETATM   13  C19 UNL     1      26.059   6.543  49.348  1.00  0.00     0.146 C 
HETATM   14 CL1  UNL     1      27.367   6.864  48.159  1.00  0.00    -0.117 Cl
BRANCH  13  15
HETATM   15  C20 UNL     1      25.876   7.802  50.184  1.00  0.00     0.247 C 
HETATM   16  F1  UNL     1      27.122   8.380  50.358  1.00  0.00    -0.254 F 
ENDBRANCH  13  15
ENDBRANCH  12  13
BRANCH   9  17
HETATM   17  N3  UNL     1      24.554   1.831  51.006  1.00  0.00    -0.324 N 
HETATM   18  C8  UNL     1      24.023   1.999  52.315  1.00  0.00     0.245 C 
HETATM   19  O1  UNL     1      23.324   3.044  52.322  1.00  0.00    -0.268 OA
HETATM   20  H4  UNL     1      25.162   1.033  50.779  1.00  0.00     0.169 HD
BRANCH  18  21
HETATM   21  C9  UNL     1      24.241   1.132  53.433  1.00  0.00     0.072 C 
HETATM   22  C10 UNL     1      25.004   0.085  53.675  1.00  0.00     0.008 C 
BRANCH  22  23
HETATM   23  C11 UNL     1      26.015  -0.862  53.184  1.00  0.00     0.300 C 
BRANCH  23  24
HETATM   24  N4  UNL     1      27.385  -0.385  53.309  1.00  0.00     0.096 N 
HETATM   25  C12 UNL     1      28.330  -1.456  53.082  1.00  0.00     0.299 C 
HETATM   26  C13 UNL     1      29.681  -1.082  53.590  1.00  0.00     0.198 C 
HETATM   27  O2  UNL     1      29.882   0.297  53.654  1.00  0.00    -0.388 OA
HETATM   28  C14 UNL     1      28.985   0.923  54.497  1.00  0.00     0.198 C 
HETATM   29  C15 UNL     1      27.657   0.206  54.592  1.00  0.00     0.299 C 
ENDBRANCH  23  24
ENDBRANCH  22  23
ENDBRANCH  18  21
ENDBRANCH   9  17
TORSDOF 6
ENDMDL
