MODEL 1
REMARK VINA RESULT:      -8.2      0.000      0.000
REMARK  4 active torsions:
REMARK  status: ('A' for Active; 'I' for Inactive)
REMARK    1  A    between atoms: C1_1  and  C14_18 
REMARK    2  A    between atoms: C2_2  and  N1_3 
REMARK    3  A    between atoms: C7_10  and  C8_11 
REMARK    4  A    between atoms: C8_11  and  N4_12 
ROOT
HETATM    1  N1  UNL     1      26.026   1.300  52.267  1.00  0.00    -0.367 N 
HETATM    2  C3  UNL     1      27.310   0.631  51.994  1.00  0.00     0.274 C 
HETATM    3  N2  UNL     1      28.016   0.668  53.267  1.00  0.00    -0.263 NA
HETATM    4  C4  UNL     1      27.732   0.329  54.479  1.00  0.00     0.227 C 
HETATM    5  N3  UNL     1      26.579  -0.238  55.094  1.00  0.00    -0.258 NA
HETATM    6  C5  UNL     1      25.400  -0.626  54.723  1.00  0.00     0.098 C 
HETATM    7  C6  UNL     1      24.894  -0.558  53.330  1.00  0.00     0.055 C 
HETATM    8  C7  UNL     1      23.392  -0.552  53.147  1.00  0.00     0.016 C 
HETATM    9  C12 UNL     1      23.593   0.648  52.245  1.00  0.00     0.033 C 
HETATM   10  C13 UNL     1      24.847   0.939  53.021  1.00  0.00     0.095 C 
ENDROOT
BRANCH   1  11
HETATM   11  C2  UNL     1      25.973   2.575  51.636  1.00  0.00     0.088 C 
HETATM   12  C1  UNL     1      26.387   2.746  50.393  1.00  0.00     0.028 C 
BRANCH  12  13
HETATM   13  C14 UNL     1      26.349   4.025  49.720  1.00  0.00    -0.035 A 
HETATM   14  C15 UNL     1      25.245   4.850  49.703  1.00  0.00     0.011 A 
HETATM   15  C16 UNL     1      25.267   6.061  49.045  1.00  0.00     0.001 A 
HETATM   16  C17 UNL     1      26.373   6.520  48.371  1.00  0.00     0.000 A 
HETATM   17  C18 UNL     1      27.474   5.712  48.380  1.00  0.00     0.001 A 
HETATM   18  C19 UNL     1      27.447   4.504  49.039  1.00  0.00     0.011 A 
ENDBRANCH  12  13
ENDBRANCH   1  11
BRANCH   8  19
HETATM   19  C8  UNL     1      22.651  -0.368  54.410  1.00  0.00     0.122 C 
BRANCH  19  20
HETATM   20  N4  UNL     1      21.284  -0.445  54.480  1.00  0.00    -0.412 N 
HETATM   21  C9  UNL     1      20.473  -1.531  54.155  1.00  0.00     0.118 C 
HETATM   22  C10 UNL     1      19.563  -0.599  53.384  1.00  0.00     0.039 C 
HETATM   23  C11 UNL     1      20.335   0.509  54.117  1.00  0.00     0.118 C 
ENDBRANCH  19  20
ENDBRANCH   8  19
TORSDOF 4
ENDMDL
MODEL 2
REMARK VINA RESULT:      -8.0      3.363      5.484
REMARK  4 active torsions:
REMARK  status: ('A' for Active; 'I' for Inactive)
REMARK    1  A    between atoms: C1_1  and  C14_18 
REMARK    2  A    between atoms: C2_2  and  N1_3 
REMARK    3  A    between atoms: C7_10  and  C8_11 
REMARK    4  A    between atoms: C8_11  and  N4_12 
ROOT
HETATM    1  N1  UNL     1      23.643   0.691  53.058  1.00  0.00    -0.367 N 
HETATM    2  C3  UNL     1      23.842   2.101  52.677  1.00  0.00     0.274 C 
HETATM    3  N2  UNL     1      23.615   2.123  51.239  1.00  0.00    -0.263 NA
HETATM    4  C4  UNL     1      22.676   1.711  50.456  1.00  0.00     0.227 C 
HETATM    5  N3  UNL     1      21.436   1.045  50.677  1.00  0.00    -0.258 NA
HETATM    6  C5  UNL     1      20.769   0.596  51.693  1.00  0.00     0.098 C 
HETATM    7  C6  UNL     1      21.223   0.689  53.103  1.00  0.00     0.055 C 
HETATM    8  C7  UNL     1      20.624  -0.298  54.081  1.00  0.00     0.016 C 
HETATM    9  C12 UNL     1      22.043  -0.590  54.522  1.00  0.00     0.033 C 
HETATM   10  C13 UNL     1      22.487  -0.170  53.148  1.00  0.00     0.095 C 
ENDROOT
BRANCH   1  11
HETATM   11  C2  UNL     1      24.882   0.080  53.405  1.00  0.00     0.088 C 
HETATM   12  C1  UNL     1      25.852  -0.061  52.520  1.00  0.00     0.028 C 
BRANCH  12  13
HETATM   13  C14 UNL     1      27.122  -0.676  52.836  1.00  0.00    -0.035 A 
HETATM   14  C15 UNL     1      27.384  -2.020  52.679  1.00  0.00     0.011 A 
HETATM   15  C16 UNL     1      28.616  -2.551  52.997  1.00  0.00     0.001 A 
HETATM   16  C17 UNL     1      29.650  -1.788  53.486  1.00  0.00     0.000 A 
HETATM   17  C18 UNL     1      29.403  -0.454  53.646  1.00  0.00     0.001 A 
HETATM   18  C19 UNL     1      28.171   0.071  53.326  1.00  0.00     0.011 A 
ENDBRANCH  12  13
ENDBRANCH   1  11
BRANCH   8  19
HETATM   19  C8  UNL     1      19.853  -1.373  53.427  1.00  0.00     0.122 C 
BRANCH  19  20
HETATM   20  N4  UNL     1      18.500  -1.514  53.594  1.00  0.00    -0.412 N 
HETATM   21  C9  UNL     1      17.780  -2.697  53.761  1.00  0.00     0.118 C 
HETATM   22  C10 UNL     1      16.777  -2.211  52.736  1.00  0.00     0.039 C 
HETATM   23  C11 UNL     1      17.464  -0.852  52.937  1.00  0.00     0.118 C 
ENDBRANCH  19  20
ENDBRANCH   8  19
TORSDOF 4
ENDMDL
MODEL 3
REMARK VINA RESULT:      -7.8      2.294      6.132
REMARK  4 active torsions:
REMARK  status: ('A' for Active; 'I' for Inactive)
REMARK    1  A    between atoms: C1_1  and  C14_18 
REMARK    2  A    between atoms: C2_2  and  N1_3 
REMARK    3  A    between atoms: C7_10  and  C8_11 
REMARK    4  A    between atoms: C8_11  and  N4_12 
ROOT
HETATM    1  N1  UNL     1      23.647   0.105  53.054  1.00  0.00    -0.367 N 
HETATM    2  C3  UNL     1      23.031  -1.205  53.329  1.00  0.00     0.274 C 
HETATM    3  N2  UNL     1      22.152  -0.961  54.464  1.00  0.00    -0.263 NA
HETATM    4  C4  UNL     1      21.221  -0.109  54.732  1.00  0.00     0.227 C 
HETATM    5  N3  UNL     1      20.649   0.978  54.009  1.00  0.00    -0.258 NA
HETATM    6  C5  UNL     1      20.812   1.538  52.852  1.00  0.00     0.098 C 
HETATM    7  C6  UNL     1      21.804   1.099  51.839  1.00  0.00     0.055 C 
HETATM    8  C7  UNL     1      22.225   2.122  50.806  1.00  0.00     0.016 C 
HETATM    9  C12 UNL     1      23.653   1.748  51.145  1.00  0.00     0.033 C 
HETATM   10  C13 UNL     1      23.157   1.349  52.507  1.00  0.00     0.095 C 
ENDROOT
BRANCH   1  11
HETATM   11  C2  UNL     1      25.024   0.105  53.420  1.00  0.00     0.088 C 
HETATM   12  C1  UNL     1      25.927  -0.540  52.703  1.00  0.00     0.028 C 
BRANCH  12  13
HETATM   13  C14 UNL     1      27.332  -0.561  53.045  1.00  0.00    -0.035 A 
HETATM   14  C15 UNL     1      28.043   0.552  53.438  1.00  0.00     0.011 A 
HETATM   15  C16 UNL     1      29.382   0.471  53.753  1.00  0.00     0.001 A 
HETATM   16  C17 UNL     1      30.089  -0.707  53.696  1.00  0.00     0.000 A 
HETATM   17  C18 UNL     1      29.396  -1.818  53.307  1.00  0.00     0.001 A 
HETATM   18  C19 UNL     1      28.058  -1.731  52.994  1.00  0.00     0.011 A 
ENDBRANCH  12  13
ENDBRANCH   1  11
BRANCH   8  19
HETATM   19  C8  UNL     1      21.762   3.488  51.115  1.00  0.00     0.122 C 
BRANCH  19  20
HETATM   20  N4  UNL     1      22.407   4.606  50.655  1.00  0.00    -0.412 N 
HETATM   21  C9  UNL     1      22.806   4.883  49.348  1.00  0.00     0.118 C 
HETATM   22  C10 UNL     1      24.159   5.318  49.871  1.00  0.00     0.039 C 
HETATM   23  C11 UNL     1      23.459   5.312  51.238  1.00  0.00     0.118 C 
ENDBRANCH  19  20
ENDBRANCH   8  19
TORSDOF 4
ENDMDL
MODEL 4
REMARK VINA RESULT:      -7.8      2.218      4.598
REMARK  4 active torsions:
REMARK  status: ('A' for Active; 'I' for Inactive)
REMARK    1  A    between atoms: C1_1  and  C14_18 
REMARK    2  A    between atoms: C2_2  and  N1_3 
REMARK    3  A    between atoms: C7_10  and  C8_11 
REMARK    4  A    between atoms: C8_11  and  N4_12 
ROOT
HETATM    1  N1  UNL     1      23.644   3.821  51.058  1.00  0.00    -0.367 N 
HETATM    2  C3  UNL     1      22.294   4.400  50.944  1.00  0.00     0.274 C 
HETATM    3  N2  UNL     1      21.635   3.589  49.930  1.00  0.00    -0.263 NA
HETATM    4  C4  UNL     1      21.456   2.325  49.746  1.00  0.00     0.227 C 
HETATM    5  N3  UNL     1      21.837   1.163  50.478  1.00  0.00    -0.258 NA
HETATM    6  C5  UNL     1      22.486   0.900  51.568  1.00  0.00     0.098 C 
HETATM    7  C6  UNL     1      23.085   1.926  52.458  1.00  0.00     0.055 C 
HETATM    8  C7  UNL     1      24.210   1.474  53.363  1.00  0.00     0.016 C 
HETATM    9  C12 UNL     1      24.986   2.670  52.852  1.00  0.00     0.033 C 
HETATM   10  C13 UNL     1      24.164   2.585  51.596  1.00  0.00     0.095 C 
ENDROOT
BRANCH   1  11
HETATM   11  C2  UNL     1      24.621   4.698  50.506  1.00  0.00     0.088 C 
HETATM   12  C1  UNL     1      25.448   4.297  49.556  1.00  0.00     0.028 C 
BRANCH  12  13
HETATM   13  C14 UNL     1      26.451   5.160  48.972  1.00  0.00    -0.035 A 
HETATM   14  C15 UNL     1      26.218   6.467  48.603  1.00  0.00     0.011 A 
HETATM   15  C16 UNL     1      27.215   7.243  48.051  1.00  0.00     0.001 A 
HETATM   16  C17 UNL     1      28.488   6.773  47.835  1.00  0.00     0.000 A 
HETATM   17  C18 UNL     1      28.732   5.478  48.197  1.00  0.00     0.001 A 
HETATM   18  C19 UNL     1      27.733   4.708  48.748  1.00  0.00     0.011 A 
ENDBRANCH  12  13
ENDBRANCH   1  11
BRANCH   8  19
HETATM   19  C8  UNL     1      24.708   0.122  53.045  1.00  0.00     0.122 C 
BRANCH  19  20
HETATM   20  N4  UNL     1      25.836  -0.401  53.622  1.00  0.00    -0.412 N 
HETATM   21  C9  UNL     1      26.408  -0.054  54.844  1.00  0.00     0.118 C 
HETATM   22  C10 UNL     1      27.765  -0.004  54.175  1.00  0.00     0.039 C 
HETATM   23  C11 UNL     1      27.052  -0.730  53.024  1.00  0.00     0.118 C 
ENDBRANCH  19  20
ENDBRANCH   8  19
TORSDOF 4
ENDMDL
MODEL 5
REMARK VINA RESULT:      -7.6      2.546      4.230
REMARK  4 active torsions:
REMARK  status: ('A' for Active; 'I' for Inactive)
REMARK    1  A    between atoms: C1_1  and  C14_18 
REMARK    2  A    between atoms: C2_2  and  N1_3 
REMARK    3  A    between atoms: C7_10  and  C8_11 
REMARK    4  A    between atoms: C8_11  and  N4_12 
ROOT
HETATM    1  N1  UNL     1      23.817   3.423  49.734  1.00  0.00    -0.367 N 
HETATM    2  C3  UNL     1      22.795   4.106  48.922  1.00  0.00     0.274 C 
HETATM    3  N2  UNL     1      22.300   3.076  48.021  1.00  0.00    -0.263 NA
HETATM    4  C4  UNL     1      21.844   1.877  48.165  1.00  0.00     0.227 C 
HETATM    5  N3  UNL     1      21.628   1.040  49.298  1.00  0.00    -0.258 NA
HETATM    6  C5  UNL     1      21.790   1.120  50.581  1.00  0.00     0.098 C 
HETATM    7  C6  UNL     1      22.332   2.308  51.287  1.00  0.00     0.055 C 
HETATM    8  C7  UNL     1      22.931   2.076  52.657  1.00  0.00     0.016 C 
HETATM    9  C12 UNL     1      24.131   2.860  52.169  1.00  0.00     0.033 C 
HETATM   10  C13 UNL     1      23.769   2.424  50.777  1.00  0.00     0.095 C 
ENDROOT
BRANCH   1  11
HETATM   11  C2  UNL     1      25.124   3.872  49.386  1.00  0.00     0.088 C 
HETATM   12  C1  UNL     1      25.353   5.128  49.049  1.00  0.00     0.028 C 
BRANCH  12  13
HETATM   13  C14 UNL     1      26.666   5.619  48.691  1.00  0.00    -0.035 A 
HETATM   14  C15 UNL     1      27.791   4.825  48.629  1.00  0.00     0.011 A 
HETATM   15  C16 UNL     1      29.017   5.348  48.279  1.00  0.00     0.001 A 
HETATM   16  C17 UNL     1      29.198   6.676  47.974  1.00  0.00     0.000 A 
HETATM   17  C18 UNL     1      28.091   7.474  48.032  1.00  0.00     0.001 A 
HETATM   18  C19 UNL     1      26.869   6.946  48.381  1.00  0.00     0.011 A 
ENDBRANCH  12  13
ENDBRANCH   1  11
BRANCH   8  19
HETATM   19  C8  UNL     1      23.106   0.647  52.982  1.00  0.00     0.122 C 
BRANCH  19  20
HETATM   20  N4  UNL     1      22.373   0.019  53.955  1.00  0.00    -0.412 N 
HETATM   21  C9  UNL     1      22.726  -1.111  54.692  1.00  0.00     0.118 C 
HETATM   22  C10 UNL     1      21.350  -1.688  54.433  1.00  0.00     0.039 C 
HETATM   23  C11 UNL     1      21.008  -0.261  53.978  1.00  0.00     0.118 C 
ENDBRANCH  19  20
ENDBRANCH   8  19
TORSDOF 4
ENDMDL
MODEL 6
REMARK VINA RESULT:      -7.5      3.511      8.217
REMARK  4 active torsions:
REMARK  status: ('A' for Active; 'I' for Inactive)
REMARK    1  A    between atoms: C1_1  and  C14_18 
REMARK    2  A    between atoms: C2_2  and  N1_3 
REMARK    3  A    between atoms: C7_10  and  C8_11 
REMARK    4  A    between atoms: C8_11  and  N4_12 
ROOT
HETATM    1  N1  UNL     1      25.301   3.287  50.541  1.00  0.00    -0.367 N 
HETATM    2  C3  UNL     1      23.887   2.875  50.522  1.00  0.00     0.274 C 
HETATM    3  N2  UNL     1      23.274   3.631  51.605  1.00  0.00    -0.263 NA
HETATM    4  C4  UNL     1      23.239   4.876  51.944  1.00  0.00     0.227 C 
HETATM    5  N3  UNL     1      23.799   6.061  51.385  1.00  0.00    -0.258 NA
HETATM    6  C5  UNL     1      24.537   6.372  50.366  1.00  0.00     0.098 C 
HETATM    7  C6  UNL     1      25.057   5.396  49.377  1.00  0.00     0.055 C 
HETATM    8  C7  UNL     1      26.279   5.809  48.585  1.00  0.00     0.016 C 
HETATM    9  C12 UNL     1      26.874   4.470  48.968  1.00  0.00     0.033 C 
HETATM   10  C13 UNL     1      25.997   4.503  50.189  1.00  0.00     0.095 C 
ENDROOT
BRANCH   1  11
HETATM   11  C2  UNL     1      26.131   2.231  51.015  1.00  0.00     0.088 C 
HETATM   12  C1  UNL     1      26.693   2.280  52.210  1.00  0.00     0.028 C 
BRANCH  12  13
HETATM   13  C14 UNL     1      27.541   1.227  52.724  1.00  0.00    -0.035 A 
HETATM   14  C15 UNL     1      28.738   1.451  53.368  1.00  0.00     0.011 A 
HETATM   15  C16 UNL     1      29.504   0.407  53.838  1.00  0.00     0.001 A 
HETATM   16  C17 UNL     1      29.132  -0.909  53.698  1.00  0.00     0.000 A 
HETATM   17  C18 UNL     1      27.947  -1.146  53.062  1.00  0.00     0.001 A 
HETATM   18  C19 UNL     1      27.185  -0.098  52.594  1.00  0.00     0.011 A 
ENDBRANCH  12  13
ENDBRANCH   1  11
BRANCH   8  19
HETATM   19  C8  UNL     1      26.918   7.037  49.097  1.00  0.00     0.122 C 
BRANCH  19  20
HETATM   20  N4  UNL     1      27.931   7.673  48.428  1.00  0.00    -0.412 N 
HETATM   21  C9  UNL     1      27.890   8.237  47.153  1.00  0.00     0.118 C 
HETATM   22  C10 UNL     1      29.205   7.559  46.830  1.00  0.00     0.039 C 
HETATM   23  C11 UNL     1      29.279   7.326  48.347  1.00  0.00     0.118 C 
ENDBRANCH  19  20
ENDBRANCH   8  19
TORSDOF 4
ENDMDL
MODEL 7
REMARK VINA RESULT:      -6.7      2.337      3.129
REMARK  4 active torsions:
REMARK  status: ('A' for Active; 'I' for Inactive)
REMARK    1  A    between atoms: C1_1  and  C14_18 
REMARK    2  A    between atoms: C2_2  and  N1_3 
REMARK    3  A    between atoms: C7_10  and  C8_11 
REMARK    4  A    between atoms: C8_11  and  N4_12 
ROOT
HETATM    1  N1  UNL     1      25.538   2.682  50.412  1.00  0.00    -0.367 N 
HETATM    2  C3  UNL     1      26.507   1.781  51.060  1.00  0.00     0.274 C 
HETATM    3  N2  UNL     1      26.560   2.238  52.441  1.00  0.00    -0.263 NA
HETATM    4  C4  UNL     1      25.685   2.478  53.358  1.00  0.00     0.227 C 
HETATM    5  N3  UNL     1      24.264   2.392  53.404  1.00  0.00    -0.258 NA
HETATM    6  C5  UNL     1      23.307   2.061  52.595  1.00  0.00     0.098 C 
HETATM    7  C6  UNL     1      23.509   1.619  51.193  1.00  0.00     0.055 C 
HETATM    8  C7  UNL     1      22.332   1.768  50.253  1.00  0.00     0.016 C 
HETATM    9  C12 UNL     1      23.293   2.442  49.296  1.00  0.00     0.033 C 
HETATM   10  C13 UNL     1      24.105   2.843  50.496  1.00  0.00     0.095 C 
ENDROOT
BRANCH   1  11
HETATM   11  C2  UNL     1      26.195   3.574  49.516  1.00  0.00     0.088 C 
HETATM   12  C1  UNL     1      26.150   4.883  49.691  1.00  0.00     0.028 C 
BRANCH  12  13
HETATM   13  C14 UNL     1      26.805   5.817  48.803  1.00  0.00    -0.035 A 
HETATM   14  C15 UNL     1      26.170   6.889  48.213  1.00  0.00     0.011 A 
HETATM   15  C16 UNL     1      26.846   7.749  47.375  1.00  0.00     0.001 A 
HETATM   16  C17 UNL     1      28.179   7.597  47.074  1.00  0.00     0.000 A 
HETATM   17  C18 UNL     1      28.821   6.539  47.652  1.00  0.00     0.001 A 
HETATM   18  C19 UNL     1      28.140   5.684  48.489  1.00  0.00     0.011 A 
ENDBRANCH  12  13
ENDBRANCH   1  11
BRANCH   8  19
HETATM   19  C8  UNL     1      21.228   2.564  50.822  1.00  0.00     0.122 C 
BRANCH  19  20
HETATM   20  N4  UNL     1      20.041   2.003  51.215  1.00  0.00    -0.412 N 
HETATM   21  C9  UNL     1      19.819   0.697  51.651  1.00  0.00     0.118 C 
HETATM   22  C10 UNL     1      18.612   0.616  50.739  1.00  0.00     0.039 C 
HETATM   23  C11 UNL     1      18.776   2.141  50.645  1.00  0.00     0.118 C 
ENDBRANCH  19  20
ENDBRANCH   8  19
TORSDOF 4
ENDMDL
MODEL 8
REMARK VINA RESULT:      -6.5      2.971      5.459
REMARK  4 active torsions:
REMARK  status: ('A' for Active; 'I' for Inactive)
REMARK    1  A    between atoms: C1_1  and  C14_18 
REMARK    2  A    between atoms: C2_2  and  N1_3 
REMARK    3  A    between atoms: C7_10  and  C8_11 
REMARK    4  A    between atoms: C8_11  and  N4_12 
ROOT
HETATM    1  N1  UNL     1      21.492   1.991  51.198  1.00  0.00    -0.367 N 
HETATM    2  C3  UNL     1      20.318   2.591  51.856  1.00  0.00     0.274 C 
HETATM    3  N2  UNL     1      19.399   1.477  52.045  1.00  0.00    -0.263 NA
HETATM    4  C4  UNL     1      19.487   0.299  52.563  1.00  0.00     0.227 C 
HETATM    5  N3  UNL     1      20.547  -0.424  53.182  1.00  0.00    -0.258 NA
HETATM    6  C5  UNL     1      21.794  -0.219  53.469  1.00  0.00     0.098 C 
HETATM    7  C6  UNL     1      22.531   1.033  53.164  1.00  0.00     0.055 C 
HETATM    8  C7  UNL     1      24.039   0.935  53.080  1.00  0.00     0.016 C 
HETATM    9  C12 UNL     1      23.926   1.668  51.760  1.00  0.00     0.033 C 
HETATM   10  C13 UNL     1      22.541   1.098  51.636  1.00  0.00     0.095 C 
ENDROOT
BRANCH   1  11
HETATM   11  C2  UNL     1      21.577   2.403  49.838  1.00  0.00     0.088 C 
HETATM   12  C1  UNL     1      21.868   3.651  49.513  1.00  0.00     0.028 C 
BRANCH  12  13
HETATM   13  C14 UNL     1      21.964   4.105  48.143  1.00  0.00    -0.035 A 
HETATM   14  C15 UNL     1      22.177   5.417  47.783  1.00  0.00     0.011 A 
HETATM   15  C16 UNL     1      22.260   5.792  46.459  1.00  0.00     0.001 A 
HETATM   16  C17 UNL     1      22.137   4.895  45.425  1.00  0.00     0.000 A 
HETATM   17  C18 UNL     1      21.926   3.590  45.768  1.00  0.00     0.001 A 
HETATM   18  C19 UNL     1      21.844   3.222  47.092  1.00  0.00     0.011 A 
ENDBRANCH  12  13
ENDBRANCH   1  11
BRANCH   8  19
HETATM   19  C8  UNL     1      24.535  -0.454  53.076  1.00  0.00     0.122 C 
BRANCH  19  20
HETATM   20  N4  UNL     1      25.821  -0.778  53.420  1.00  0.00    -0.412 N 
HETATM   21  C9  UNL     1      26.758   0.025  54.070  1.00  0.00     0.118 C 
HETATM   22  C10 UNL     1      27.796  -0.390  53.048  1.00  0.00     0.039 C 
HETATM   23  C11 UNL     1      26.775  -1.477  52.682  1.00  0.00     0.118 C 
ENDBRANCH  19  20
ENDBRANCH   8  19
TORSDOF 4
ENDMDL
MODEL 9
REMARK VINA RESULT:      -6.5      3.497      5.496
REMARK  4 active torsions:
REMARK  status: ('A' for Active; 'I' for Inactive)
REMARK    1  A    between atoms: C1_1  and  C14_18 
REMARK    2  A    between atoms: C2_2  and  N1_3 
REMARK    3  A    between atoms: C7_10  and  C8_11 
REMARK    4  A    between atoms: C8_11  and  N4_12 
ROOT
HETATM    1  N1  UNL     1      23.895   6.361  50.631  1.00  0.00    -0.367 N 
HETATM    2  C3  UNL     1      23.240   7.666  50.831  1.00  0.00     0.274 C 
HETATM    3  N2  UNL     1      22.263   7.750  49.754  1.00  0.00    -0.263 NA
HETATM    4  C4  UNL     1      21.322   6.986  49.313  1.00  0.00     0.227 C 
HETATM    5  N3  UNL     1      20.833   5.706  49.705  1.00  0.00    -0.258 NA
HETATM    6  C5  UNL     1      21.109   4.822  50.611  1.00  0.00     0.098 C 
HETATM    7  C6  UNL     1      22.185   4.966  51.624  1.00  0.00     0.055 C 
HETATM    8  C7  UNL     1      22.712   3.691  52.247  1.00  0.00     0.016 C 
HETATM    9  C12 UNL     1      24.098   4.209  51.923  1.00  0.00     0.033 C 
HETATM   10  C13 UNL     1      23.474   4.990  50.801  1.00  0.00     0.095 C 
ENDROOT
BRANCH   1  11
HETATM   11  C2  UNL     1      25.232   6.530  50.169  1.00  0.00     0.088 C 
HETATM   12  C1  UNL     1      25.669   5.912  49.086  1.00  0.00     0.028 C 
BRANCH  12  13
HETATM   13  C14 UNL     1      27.019   6.060  48.587  1.00  0.00    -0.035 A 
HETATM   14  C15 UNL     1      27.951   5.045  48.584  1.00  0.00     0.011 A 
HETATM   15  C16 UNL     1      29.224   5.244  48.095  1.00  0.00     0.001 A 
HETATM   16  C17 UNL     1      29.643   6.450  47.585  1.00  0.00     0.000 A 
HETATM   17  C18 UNL     1      28.729   7.464  47.581  1.00  0.00     0.001 A 
HETATM   18  C19 UNL     1      27.458   7.259  48.071  1.00  0.00     0.011 A 
ENDBRANCH  12  13
ENDBRANCH   1  11
BRANCH   8  19
HETATM   19  C8  UNL     1      22.239   2.470  51.567  1.00  0.00     0.122 C 
BRANCH  19  20
HETATM   20  N4  UNL     1      21.449   1.539  52.190  1.00  0.00    -0.412 N 
HETATM   21  C9  UNL     1      21.356   0.176  51.913  1.00  0.00     0.118 C 
HETATM   22  C10 UNL     1      19.847   0.287  51.959  1.00  0.00     0.039 C 
HETATM   23  C11 UNL     1      20.122   1.654  52.603  1.00  0.00     0.118 C 
ENDBRANCH  19  20
ENDBRANCH   8  19
TORSDOF 4
ENDMDL
