MODEL 1
REMARK VINA RESULT:      -7.3      0.000      0.000
REMARK  10 active torsions:
REMARK  status: ('A' for Active; 'I' for Inactive)
REMARK    1  A    between atoms: N1_2  and  C2_3 
REMARK    2  A    between atoms: C3_4  and  C4_5 
REMARK    3  A    between atoms: C5_6  and  C6_7 
REMARK    4  A    between atoms: C9_11  and  N3_12 
REMARK    5  A    between atoms: N3_12  and  C10_13 
REMARK    6  A    between atoms: C12_15  and  S1_16 
REMARK    7  A    between atoms: S1_16  and  C13_18 
REMARK    8  A    between atoms: C13_18  and  C14_19 
REMARK    9  A    between atoms: C14_19  and  C15_20 
REMARK   10  A    between atoms: C15_20  and  N4_21 
ROOT
HETATM    1  N3  UNL     1      24.335   3.853  51.794  1.00  0.00    -0.192 N 
HETATM    2  H11 UNL     1      23.730   4.478  52.405  1.00  0.00     0.184 HD
ENDROOT
BRANCH   1   3
HETATM    3  C9  UNL     1      24.677   4.676  50.709  1.00  0.00     0.727 A 
HETATM    4  N2  UNL     1      23.824   5.598  50.237  1.00  0.00    -0.075 NA
HETATM    5  C8  UNL     1      24.181   6.368  49.198  1.00  0.00     0.139 A 
HETATM    6  C7  UNL     1      25.432   6.155  48.672  1.00  0.00     0.052 A 
HETATM    7  C6  UNL     1      26.334   5.229  49.120  1.00  0.00     0.077 A 
HETATM    8  N5  UNL     1      25.888   4.513  50.154  1.00  0.00    -0.063 NA
BRANCH   7   9
HETATM    9  C5  UNL     1      27.663   4.947  48.618  1.00  0.00     0.032 C 
HETATM   10  C4  UNL     1      28.670   5.696  48.251  1.00  0.00     0.004 C 
BRANCH  10  11
HETATM   11  C3  UNL     1      29.332   6.953  48.020  1.00  0.00     0.017 C 
HETATM   12  C2  UNL     1      29.627   8.173  48.341  1.00  0.00     0.082 C 
BRANCH  12  13
HETATM   13  N1  UNL     1      29.043   8.624  49.554  1.00  0.00    -0.403 N 
HETATM   14  C1  UNL     1      27.697   9.091  49.772  1.00  0.00     0.145 C 
HETATM   15  H4  UNL     1      29.771   8.564  50.299  1.00  0.00     0.158 HD
ENDBRANCH  12  13
ENDBRANCH  10  11
ENDBRANCH   7   9
ENDBRANCH   1   3
BRANCH   1  16
HETATM   16  C10 UNL     1      24.490   2.558  52.350  1.00  0.00     0.031 A 
HETATM   17  C11 UNL     1      25.424   2.350  53.272  1.00  0.00     0.046 A 
HETATM   18  C12 UNL     1      25.415   0.962  53.708  1.00  0.00     0.029 A 
HETATM   19  C16 UNL     1      24.442   0.368  53.009  1.00  0.00     0.000 A 
HETATM   20  C17 UNL     1      23.746   1.301  52.073  1.00  0.00     0.086 A 
BRANCH  18  21
HETATM   21  S1  UNL     1      26.442   0.171  54.910  1.00  0.00     0.049 S 
HETATM   22  O1  UNL     1      25.712  -1.007  55.532  1.00  0.00    -0.253 OA
BRANCH  21  23
HETATM   23  C13 UNL     1      28.023  -0.327  54.280  1.00  0.00     0.116 C 
BRANCH  23  24
HETATM   24  C14 UNL     1      27.906  -0.831  52.871  1.00  0.00     0.042 C 
BRANCH  24  25
HETATM   25  C15 UNL     1      27.377  -2.251  52.828  1.00  0.00     0.267 C 
BRANCH  25  26
HETATM   26  N4  UNL     1      28.486  -3.141  53.114  1.00  0.00     0.078 N 
HETATM   27  H19 UNL     1      29.232  -2.944  52.413  1.00  0.00     0.312 HD
HETATM   28  H20 UNL     1      28.116  -4.123  53.070  1.00  0.00     0.312 HD
ENDBRANCH  25  26
ENDBRANCH  24  25
ENDBRANCH  23  24
ENDBRANCH  21  23
ENDBRANCH  18  21
ENDBRANCH   1  16
TORSDOF 10
ENDMDL
MODEL 2
REMARK VINA RESULT:      -7.1      1.451      1.818
REMARK  10 active torsions:
REMARK  status: ('A' for Active; 'I' for Inactive)
REMARK    1  A    between atoms: N1_2  and  C2_3 
REMARK    2  A    between atoms: C3_4  and  C4_5 
REMARK    3  A    between atoms: C5_6  and  C6_7 
REMARK    4  A    between atoms: C9_11  and  N3_12 
REMARK    5  A    between atoms: N3_12  and  C10_13 
REMARK    6  A    between atoms: C12_15  and  S1_16 
REMARK    7  A    between atoms: S1_16  and  C13_18 
REMARK    8  A    between atoms: C13_18  and  C14_19 
REMARK    9  A    between atoms: C14_19  and  C15_20 
REMARK   10  A    between atoms: C15_20  and  N4_21 
ROOT
HETATM    1  N3  UNL     1      26.346   3.133  50.121  1.00  0.00    -0.192 N 
HETATM    2  H11 UNL     1      26.642   2.404  49.405  1.00  0.00     0.184 HD
ENDROOT
BRANCH   1   3
HETATM    3  C9  UNL     1      26.567   4.354  49.466  1.00  0.00     0.727 A 
HETATM    4  N2  UNL     1      25.590   5.267  49.343  1.00  0.00    -0.075 NA
HETATM    5  C8  UNL     1      25.834   6.424  48.711  1.00  0.00     0.139 A 
HETATM    6  C7  UNL     1      27.103   6.604  48.217  1.00  0.00     0.052 A 
HETATM    7  C6  UNL     1      28.129   5.704  48.318  1.00  0.00     0.077 A 
HETATM    8  N5  UNL     1      27.790   4.586  48.962  1.00  0.00    -0.063 NA
BRANCH   7   9
HETATM    9  C5  UNL     1      29.485   5.822  47.824  1.00  0.00     0.032 C 
HETATM   10  C4  UNL     1      30.472   6.641  48.075  1.00  0.00     0.004 C 
BRANCH  10  11
HETATM   11  C3  UNL     1      31.090   7.760  48.737  1.00  0.00     0.017 C 
HETATM   12  C2  UNL     1      31.052   8.815  49.487  1.00  0.00     0.082 C 
BRANCH  12  13
HETATM   13  N1  UNL     1      29.763   9.143  49.986  1.00  0.00    -0.403 N 
HETATM   14  C1  UNL     1      28.673   9.771  49.284  1.00  0.00     0.145 C 
HETATM   15  H4  UNL     1      29.725   8.846  50.985  1.00  0.00     0.158 HD
ENDBRANCH  12  13
ENDBRANCH  10  11
ENDBRANCH   7   9
ENDBRANCH   1   3
BRANCH   1  16
HETATM   16  C10 UNL     1      25.896   2.538  51.327  1.00  0.00     0.031 A 
HETATM   17  C11 UNL     1      26.616   1.574  51.889  1.00  0.00     0.046 A 
HETATM   18  C12 UNL     1      25.981   1.104  53.110  1.00  0.00     0.029 A 
HETATM   19  C16 UNL     1      24.865   1.829  53.242  1.00  0.00     0.000 A 
HETATM   20  C17 UNL     1      24.680   2.816  52.136  1.00  0.00     0.086 A 
BRANCH  18  21
HETATM   21  S1  UNL     1      26.525  -0.151  54.231  1.00  0.00     0.049 S 
HETATM   22  O1  UNL     1      26.202  -1.528  53.676  1.00  0.00    -0.253 OA
BRANCH  21  23
HETATM   23  C13 UNL     1      28.242  -0.029  54.659  1.00  0.00     0.116 C 
BRANCH  23  24
HETATM   24  C14 UNL     1      29.114  -0.412  53.499  1.00  0.00     0.042 C 
BRANCH  24  25
HETATM   25  C15 UNL     1      29.865  -1.701  53.765  1.00  0.00     0.267 C 
BRANCH  25  26
HETATM   26  N4  UNL     1      29.001  -2.800  53.378  1.00  0.00     0.078 N 
HETATM   27  H19 UNL     1      28.579  -3.186  54.250  1.00  0.00     0.312 HD
HETATM   28  H20 UNL     1      29.593  -3.492  52.856  1.00  0.00     0.312 HD
ENDBRANCH  25  26
ENDBRANCH  24  25
ENDBRANCH  23  24
ENDBRANCH  21  23
ENDBRANCH  18  21
ENDBRANCH   1  16
TORSDOF 10
ENDMDL
MODEL 3
REMARK VINA RESULT:      -7.0      3.953      8.342
REMARK  10 active torsions:
REMARK  status: ('A' for Active; 'I' for Inactive)
REMARK    1  A    between atoms: N1_2  and  C2_3 
REMARK    2  A    between atoms: C3_4  and  C4_5 
REMARK    3  A    between atoms: C5_6  and  C6_7 
REMARK    4  A    between atoms: C9_11  and  N3_12 
REMARK    5  A    between atoms: N3_12  and  C10_13 
REMARK    6  A    between atoms: C12_15  and  S1_16 
REMARK    7  A    between atoms: S1_16  and  C13_18 
REMARK    8  A    between atoms: C13_18  and  C14_19 
REMARK    9  A    between atoms: C14_19  and  C15_20 
REMARK   10  A    between atoms: C15_20  and  N4_21 
ROOT
HETATM    1  N3  UNL     1      26.739   3.712  49.392  1.00  0.00    -0.192 N 
HETATM    2  H11 UNL     1      26.731   2.973  48.628  1.00  0.00     0.184 HD
ENDROOT
BRANCH   1   3
HETATM    3  C9  UNL     1      26.375   3.003  50.547  1.00  0.00     0.727 A 
HETATM    4  N2  UNL     1      25.109   2.604  50.752  1.00  0.00    -0.075 NA
HETATM    5  C8  UNL     1      24.794   1.929  51.867  1.00  0.00     0.139 A 
HETATM    6  C7  UNL     1      25.816   1.684  52.750  1.00  0.00     0.052 A 
HETATM    7  C6  UNL     1      27.118   2.069  52.585  1.00  0.00     0.077 A 
HETATM    8  N5  UNL     1      27.333   2.733  51.448  1.00  0.00    -0.063 NA
BRANCH   7   9
HETATM    9  C5  UNL     1      28.244   1.849  53.469  1.00  0.00     0.032 C 
HETATM   10  C4  UNL     1      29.045   0.838  53.681  1.00  0.00     0.004 C 
BRANCH  10  11
HETATM   11  C3  UNL     1      29.530  -0.499  53.456  1.00  0.00     0.017 C 
HETATM   12  C2  UNL     1      29.357  -1.772  53.293  1.00  0.00     0.082 C 
BRANCH  12  13
HETATM   13  N1  UNL     1      28.002  -2.197  53.337  1.00  0.00    -0.403 N 
HETATM   14  C1  UNL     1      26.940  -1.872  52.420  1.00  0.00     0.145 C 
HETATM   15  H4  UNL     1      27.888  -2.807  54.175  1.00  0.00     0.158 HD
ENDBRANCH  12  13
ENDBRANCH  10  11
ENDBRANCH   7   9
ENDBRANCH   1   3
BRANCH   1  16
HETATM   16  C10 UNL     1      27.095   4.989  48.890  1.00  0.00     0.031 A 
HETATM   17  C11 UNL     1      28.294   5.167  48.348  1.00  0.00     0.046 A 
HETATM   18  C12 UNL     1      28.457   6.541  47.898  1.00  0.00     0.029 A 
HETATM   19  C16 UNL     1      27.309   7.159  48.196  1.00  0.00     0.000 A 
HETATM   20  C17 UNL     1      26.318   6.256  48.855  1.00  0.00     0.086 A 
BRANCH  18  21
HETATM   21  S1  UNL     1      29.850   7.293  47.110  1.00  0.00     0.049 S 
HETATM   22  O1  UNL     1      30.172   8.624  47.769  1.00  0.00    -0.253 OA
BRANCH  21  23
HETATM   23  C13 UNL     1      31.284   6.252  47.054  1.00  0.00     0.116 C 
BRANCH  23  24
HETATM   24  C14 UNL     1      32.352   6.757  47.980  1.00  0.00     0.042 C 
BRANCH  24  25
HETATM   25  C15 UNL     1      32.190   6.195  49.378  1.00  0.00     0.267 C 
BRANCH  25  26
HETATM   26  N4  UNL     1      31.510   7.195  50.178  1.00  0.00     0.078 N 
HETATM   27  H19 UNL     1      31.682   6.961  51.179  1.00  0.00     0.312 HD
HETATM   28  H20 UNL     1      30.496   7.172  49.909  1.00  0.00     0.312 HD
ENDBRANCH  25  26
ENDBRANCH  24  25
ENDBRANCH  23  24
ENDBRANCH  21  23
ENDBRANCH  18  21
ENDBRANCH   1  16
TORSDOF 10
ENDMDL
MODEL 4
REMARK VINA RESULT:      -7.0      1.716      3.511
REMARK  10 active torsions:
REMARK  status: ('A' for Active; 'I' for Inactive)
REMARK    1  A    between atoms: N1_2  and  C2_3 
REMARK    2  A    between atoms: C3_4  and  C4_5 
REMARK    3  A    between atoms: C5_6  and  C6_7 
REMARK    4  A    between atoms: C9_11  and  N3_12 
REMARK    5  A    between atoms: N3_12  and  C10_13 
REMARK    6  A    between atoms: C12_15  and  S1_16 
REMARK    7  A    between atoms: S1_16  and  C13_18 
REMARK    8  A    between atoms: C13_18  and  C14_19 
REMARK    9  A    between atoms: C14_19  and  C15_20 
REMARK   10  A    between atoms: C15_20  and  N4_21 
ROOT
HETATM    1  N3  UNL     1      24.664   3.557  50.946  1.00  0.00    -0.192 N 
HETATM    2  H11 UNL     1      23.730   4.063  50.906  1.00  0.00     0.184 HD
ENDROOT
BRANCH   1   3
HETATM    3  C9  UNL     1      25.494   4.318  50.108  1.00  0.00     0.727 A 
HETATM    4  N2  UNL     1      26.655   3.828  49.644  1.00  0.00    -0.075 NA
HETATM    5  C8  UNL     1      27.426   4.580  48.845  1.00  0.00     0.139 A 
HETATM    6  C7  UNL     1      26.962   5.839  48.546  1.00  0.00     0.052 A 
HETATM    7  C6  UNL     1      25.788   6.379  48.994  1.00  0.00     0.077 A 
HETATM    8  N5  UNL     1      25.093   5.556  49.780  1.00  0.00    -0.063 NA
BRANCH   7   9
HETATM    9  C5  UNL     1      25.238   7.692  48.724  1.00  0.00     0.032 C 
HETATM   10  C4  UNL     1      24.118   8.286  49.042  1.00  0.00     0.004 C 
BRANCH  10  11
HETATM   11  C3  UNL     1      22.823   8.361  49.666  1.00  0.00     0.017 C 
HETATM   12  C2  UNL     1      21.911   7.926  50.477  1.00  0.00     0.082 C 
BRANCH  12  13
HETATM   13  N1  UNL     1      22.265   6.752  51.192  1.00  0.00    -0.403 N 
HETATM   14  C1  UNL     1      21.606   5.470  51.179  1.00  0.00     0.145 C 
HETATM   15  H4  UNL     1      23.115   6.968  51.757  1.00  0.00     0.158 HD
ENDBRANCH  12  13
ENDBRANCH  10  11
ENDBRANCH   7   9
ENDBRANCH   1   3
BRANCH   1  16
HETATM   16  C10 UNL     1      24.613   2.417  51.788  1.00  0.00     0.031 A 
HETATM   17  C11 UNL     1      25.582   2.213  52.673  1.00  0.00     0.046 A 
HETATM   18  C12 UNL     1      25.340   0.996  53.430  1.00  0.00     0.029 A 
HETATM   19  C16 UNL     1      24.193   0.496  52.957  1.00  0.00     0.000 A 
HETATM   20  C17 UNL     1      23.601   1.331  51.869  1.00  0.00     0.086 A 
BRANCH  18  21
HETATM   21  S1  UNL     1      26.313   0.281  54.722  1.00  0.00     0.049 S 
HETATM   22  O1  UNL     1      25.706  -1.039  55.168  1.00  0.00    -0.253 OA
BRANCH  21  23
HETATM   23  C13 UNL     1      28.022   0.079  54.298  1.00  0.00     0.116 C 
BRANCH  23  24
HETATM   24  C14 UNL     1      28.179  -0.824  53.109  1.00  0.00     0.042 C 
BRANCH  24  25
HETATM   25  C15 UNL     1      29.238  -1.881  53.346  1.00  0.00     0.267 C 
BRANCH  25  26
HETATM   26  N4  UNL     1      28.610  -3.178  53.177  1.00  0.00     0.078 N 
HETATM   27  H19 UNL     1      29.342  -3.901  53.345  1.00  0.00     0.312 HD
HETATM   28  H20 UNL     1      28.207  -3.205  52.209  1.00  0.00     0.312 HD
ENDBRANCH  25  26
ENDBRANCH  24  25
ENDBRANCH  23  24
ENDBRANCH  21  23
ENDBRANCH  18  21
ENDBRANCH   1  16
TORSDOF 10
ENDMDL
MODEL 5
REMARK VINA RESULT:      -7.0      2.115      2.632
REMARK  10 active torsions:
REMARK  status: ('A' for Active; 'I' for Inactive)
REMARK    1  A    between atoms: N1_2  and  C2_3 
REMARK    2  A    between atoms: C3_4  and  C4_5 
REMARK    3  A    between atoms: C5_6  and  C6_7 
REMARK    4  A    between atoms: C9_11  and  N3_12 
REMARK    5  A    between atoms: N3_12  and  C10_13 
REMARK    6  A    between atoms: C12_15  and  S1_16 
REMARK    7  A    between atoms: S1_16  and  C13_18 
REMARK    8  A    between atoms: C13_18  and  C14_19 
REMARK    9  A    between atoms: C14_19  and  C15_20 
REMARK   10  A    between atoms: C15_20  and  N4_21 
ROOT
HETATM    1  N3  UNL     1      26.493   3.194  50.043  1.00  0.00    -0.192 N 
HETATM    2  H11 UNL     1      27.120   2.659  49.372  1.00  0.00     0.184 HD
ENDROOT
BRANCH   1   3
HETATM    3  C9  UNL     1      26.475   4.496  49.518  1.00  0.00     0.727 A 
HETATM    4  N2  UNL     1      25.402   5.290  49.660  1.00  0.00    -0.075 NA
HETATM    5  C8  UNL     1      25.416   6.529  49.146  1.00  0.00     0.139 A 
HETATM    6  C7  UNL     1      26.561   6.913  48.490  1.00  0.00     0.052 A 
HETATM    7  C6  UNL     1      27.676   6.140  48.322  1.00  0.00     0.077 A 
HETATM    8  N5  UNL     1      27.566   4.927  48.867  1.00  0.00    -0.063 NA
BRANCH   7   9
HETATM    9  C5  UNL     1      28.912   6.474  47.644  1.00  0.00     0.032 C 
HETATM   10  C4  UNL     1      30.161   6.544  48.023  1.00  0.00     0.004 C 
BRANCH  10  11
HETATM   11  C3  UNL     1      31.232   6.446  48.980  1.00  0.00     0.017 C 
HETATM   12  C2  UNL     1      32.324   5.916  49.433  1.00  0.00     0.082 C 
BRANCH  12  13
HETATM   13  N1  UNL     1      32.838   4.852  48.645  1.00  0.00    -0.403 N 
HETATM   14  C1  UNL     1      34.151   4.732  48.064  1.00  0.00     0.145 C 
HETATM   15  H4  UNL     1      32.084   4.138  48.545  1.00  0.00     0.158 HD
ENDBRANCH  12  13
ENDBRANCH  10  11
ENDBRANCH   7   9
ENDBRANCH   1   3
BRANCH   1  16
HETATM   16  C10 UNL     1      26.008   2.367  51.087  1.00  0.00     0.031 A 
HETATM   17  C11 UNL     1      26.861   1.864  51.972  1.00  0.00     0.046 A 
HETATM   18  C12 UNL     1      26.162   1.049  52.954  1.00  0.00     0.029 A 
HETATM   19  C16 UNL     1      24.870   1.096  52.612  1.00  0.00     0.000 A 
HETATM   20  C17 UNL     1      24.621   1.930  51.398  1.00  0.00     0.086 A 
BRANCH  18  21
HETATM   21  S1  UNL     1      26.824   0.167  54.336  1.00  0.00     0.049 S 
HETATM   22  O1  UNL     1      26.152  -1.190  54.463  1.00  0.00    -0.253 OA
BRANCH  21  23
HETATM   23  C13 UNL     1      28.588  -0.004  54.294  1.00  0.00     0.116 C 
BRANCH  23  24
HETATM   24  C14 UNL     1      29.023  -0.812  53.107  1.00  0.00     0.042 C 
BRANCH  24  25
HETATM   25  C15 UNL     1      29.470  -2.203  53.511  1.00  0.00     0.267 C 
BRANCH  25  26
HETATM   26  N4  UNL     1      28.423  -3.130  53.125  1.00  0.00     0.078 N 
HETATM   27  H19 UNL     1      28.876  -3.906  52.597  1.00  0.00     0.312 HD
HETATM   28  H20 UNL     1      27.722  -2.590  52.560  1.00  0.00     0.312 HD
ENDBRANCH  25  26
ENDBRANCH  24  25
ENDBRANCH  23  24
ENDBRANCH  21  23
ENDBRANCH  18  21
ENDBRANCH   1  16
TORSDOF 10
ENDMDL
MODEL 6
REMARK VINA RESULT:      -6.9      3.846      7.954
REMARK  10 active torsions:
REMARK  status: ('A' for Active; 'I' for Inactive)
REMARK    1  A    between atoms: N1_2  and  C2_3 
REMARK    2  A    between atoms: C3_4  and  C4_5 
REMARK    3  A    between atoms: C5_6  and  C6_7 
REMARK    4  A    between atoms: C9_11  and  N3_12 
REMARK    5  A    between atoms: N3_12  and  C10_13 
REMARK    6  A    between atoms: C12_15  and  S1_16 
REMARK    7  A    between atoms: S1_16  and  C13_18 
REMARK    8  A    between atoms: C13_18  and  C14_19 
REMARK    9  A    between atoms: C14_19  and  C15_20 
REMARK   10  A    between atoms: C15_20  and  N4_21 
ROOT
HETATM    1  N3  UNL     1      26.566   3.288  49.867  1.00  0.00    -0.192 N 
HETATM    2  H11 UNL     1      27.131   2.485  49.463  1.00  0.00     0.184 HD
ENDROOT
BRANCH   1   3
HETATM    3  C9  UNL     1      25.836   2.694  50.908  1.00  0.00     0.727 A 
HETATM    4  N2  UNL     1      24.759   3.297  51.439  1.00  0.00    -0.075 NA
HETATM    5  C8  UNL     1      24.084   2.703  52.434  1.00  0.00     0.139 A 
HETATM    6  C7  UNL     1      24.553   1.482  52.856  1.00  0.00     0.052 A 
HETATM    7  C6  UNL     1      25.642   0.831  52.346  1.00  0.00     0.077 A 
HETATM    8  N5  UNL     1      26.246   1.500  51.363  1.00  0.00    -0.063 NA
BRANCH   7   9
HETATM    9  C5  UNL     1      26.193  -0.450  52.739  1.00  0.00     0.032 C 
HETATM   10  C4  UNL     1      27.394  -0.860  53.055  1.00  0.00     0.004 C 
BRANCH  10  11
HETATM   11  C3  UNL     1      28.805  -0.686  53.276  1.00  0.00     0.017 C 
HETATM   12  C2  UNL     1      29.828  -0.011  53.697  1.00  0.00     0.082 C 
BRANCH  12  13
HETATM   13  N1  UNL     1      29.512   1.250  54.268  1.00  0.00    -0.403 N 
HETATM   14  C1  UNL     1      28.832   2.360  53.649  1.00  0.00     0.145 C 
HETATM   15  H4  UNL     1      29.865   1.252  55.249  1.00  0.00     0.158 HD
ENDBRANCH  12  13
ENDBRANCH  10  11
ENDBRANCH   7   9
ENDBRANCH   1   3
BRANCH   1  16
HETATM   16  C10 UNL     1      26.815   4.507  49.186  1.00  0.00     0.031 A 
HETATM   17  C11 UNL     1      25.807   5.335  48.937  1.00  0.00     0.046 A 
HETATM   18  C12 UNL     1      26.276   6.519  48.235  1.00  0.00     0.029 A 
HETATM   19  C16 UNL     1      27.594   6.354  48.084  1.00  0.00     0.000 A 
HETATM   20  C17 UNL     1      28.089   5.069  48.664  1.00  0.00     0.086 A 
BRANCH  18  21
HETATM   21  S1  UNL     1      25.350   7.919  47.680  1.00  0.00     0.049 S 
HETATM   22  O1  UNL     1      23.985   7.480  47.176  1.00  0.00    -0.253 OA
BRANCH  21  23
HETATM   23  C13 UNL     1      25.191   9.198  48.898  1.00  0.00     0.116 C 
BRANCH  23  24
HETATM   24  C14 UNL     1      25.324   8.639  50.285  1.00  0.00     0.042 C 
BRANCH  24  25
HETATM   25  C15 UNL     1      24.038   7.983  50.747  1.00  0.00     0.267 C 
BRANCH  25  26
HETATM   26  N4  UNL     1      24.376   7.057  51.812  1.00  0.00     0.078 N 
HETATM   27  H19 UNL     1      24.942   7.582  52.512  1.00  0.00     0.312 HD
HETATM   28  H20 UNL     1      24.890   6.253  51.374  1.00  0.00     0.312 HD
ENDBRANCH  25  26
ENDBRANCH  24  25
ENDBRANCH  23  24
ENDBRANCH  21  23
ENDBRANCH  18  21
ENDBRANCH   1  16
TORSDOF 10
ENDMDL
MODEL 7
REMARK VINA RESULT:      -6.9      3.853      8.269
REMARK  10 active torsions:
REMARK  status: ('A' for Active; 'I' for Inactive)
REMARK    1  A    between atoms: N1_2  and  C2_3 
REMARK    2  A    between atoms: C3_4  and  C4_5 
REMARK    3  A    between atoms: C5_6  and  C6_7 
REMARK    4  A    between atoms: C9_11  and  N3_12 
REMARK    5  A    between atoms: N3_12  and  C10_13 
REMARK    6  A    between atoms: C12_15  and  S1_16 
REMARK    7  A    between atoms: S1_16  and  C13_18 
REMARK    8  A    between atoms: C13_18  and  C14_19 
REMARK    9  A    between atoms: C14_19  and  C15_20 
REMARK   10  A    between atoms: C15_20  and  N4_21 
ROOT
HETATM    1  N3  UNL     1      26.342   3.465  49.767  1.00  0.00    -0.192 N 
HETATM    2  H11 UNL     1      26.654   2.634  49.182  1.00  0.00     0.184 HD
ENDROOT
BRANCH   1   3
HETATM    3  C9  UNL     1      25.689   2.876  50.861  1.00  0.00     0.727 A 
HETATM    4  N2  UNL     1      24.713   3.520  51.521  1.00  0.00    -0.075 NA
HETATM    5  C8  UNL     1      24.110   2.930  52.564  1.00  0.00     0.139 A 
HETATM    6  C7  UNL     1      24.545   1.670  52.897  1.00  0.00     0.052 A 
HETATM    7  C6  UNL     1      25.534   0.976  52.256  1.00  0.00     0.077 A 
HETATM    8  N5  UNL     1      26.072   1.644  51.234  1.00  0.00    -0.063 NA
BRANCH   7   9
HETATM    9  C5  UNL     1      26.044  -0.347  52.549  1.00  0.00     0.032 C 
HETATM   10  C4  UNL     1      27.171  -0.795  53.039  1.00  0.00     0.004 C 
BRANCH  10  11
HETATM   11  C3  UNL     1      28.500  -0.649  53.572  1.00  0.00     0.017 C 
HETATM   12  C2  UNL     1      29.429   0.022  54.175  1.00  0.00     0.082 C 
BRANCH  12  13
HETATM   13  N1  UNL     1      29.051   1.332  54.572  1.00  0.00    -0.403 N 
HETATM   14  C1  UNL     1      28.714   2.453  53.731  1.00  0.00     0.145 C 
HETATM   15  H4  UNL     1      29.055   1.362  55.615  1.00  0.00     0.158 HD
ENDBRANCH  12  13
ENDBRANCH  10  11
ENDBRANCH   7   9
ENDBRANCH   1   3
BRANCH   1  16
HETATM   16  C10 UNL     1      26.720   4.699  49.180  1.00  0.00     0.031 A 
HETATM   17  C11 UNL     1      27.938   4.834  48.669  1.00  0.00     0.046 A 
HETATM   18  C12 UNL     1      28.121   6.168  48.120  1.00  0.00     0.029 A 
HETATM   19  C16 UNL     1      26.965   6.808  48.328  1.00  0.00     0.000 A 
HETATM   20  C17 UNL     1      25.948   5.960  49.019  1.00  0.00     0.086 A 
BRANCH  18  21
HETATM   21  S1  UNL     1      29.543   6.856  47.326  1.00  0.00     0.049 S 
HETATM   22  O1  UNL     1      29.119   7.792  46.207  1.00  0.00    -0.253 OA
BRANCH  21  23
HETATM   23  C13 UNL     1      30.659   7.667  48.440  1.00  0.00     0.116 C 
BRANCH  23  24
HETATM   24  C14 UNL     1      30.613   9.156  48.258  1.00  0.00     0.042 C 
BRANCH  24  25
HETATM   25  C15 UNL     1      30.314   9.869  49.562  1.00  0.00     0.267 C 
BRANCH  25  26
HETATM   26  N4  UNL     1      29.015   9.417  50.023  1.00  0.00     0.078 N 
HETATM   27  H19 UNL     1      28.785   9.959  50.883  1.00  0.00     0.312 HD
HETATM   28  H20 UNL     1      29.085   8.382  50.184  1.00  0.00     0.312 HD
ENDBRANCH  25  26
ENDBRANCH  24  25
ENDBRANCH  23  24
ENDBRANCH  21  23
ENDBRANCH  18  21
ENDBRANCH   1  16
TORSDOF 10
ENDMDL
MODEL 8
REMARK VINA RESULT:      -6.9      2.944      3.813
REMARK  10 active torsions:
REMARK  status: ('A' for Active; 'I' for Inactive)
REMARK    1  A    between atoms: N1_2  and  C2_3 
REMARK    2  A    between atoms: C3_4  and  C4_5 
REMARK    3  A    between atoms: C5_6  and  C6_7 
REMARK    4  A    between atoms: C9_11  and  N3_12 
REMARK    5  A    between atoms: N3_12  and  C10_13 
REMARK    6  A    between atoms: C12_15  and  S1_16 
REMARK    7  A    between atoms: S1_16  and  C13_18 
REMARK    8  A    between atoms: C13_18  and  C14_19 
REMARK    9  A    between atoms: C14_19  and  C15_20 
REMARK   10  A    between atoms: C15_20  and  N4_21 
ROOT
HETATM    1  N3  UNL     1      26.841   3.724  49.371  1.00  0.00    -0.192 N 
HETATM    2  H11 UNL     1      27.625   3.038  49.165  1.00  0.00     0.184 HD
ENDROOT
BRANCH   1   3
HETATM    3  C9  UNL     1      27.292   4.928  48.809  1.00  0.00     0.727 A 
HETATM    4  N2  UNL     1      26.445   5.934  48.541  1.00  0.00    -0.075 NA
HETATM    5  C8  UNL     1      26.908   7.072  48.003  1.00  0.00     0.139 A 
HETATM    6  C7  UNL     1      28.257   7.133  47.754  1.00  0.00     0.052 A 
HETATM    7  C6  UNL     1      29.158   6.136  48.010  1.00  0.00     0.077 A 
HETATM    8  N5  UNL     1      28.602   5.046  48.544  1.00  0.00    -0.063 NA
BRANCH   7   9
HETATM    9  C5  UNL     1      30.587   6.127  47.774  1.00  0.00     0.032 C 
HETATM   10  C4  UNL     1      31.434   5.212  47.382  1.00  0.00     0.004 C 
BRANCH  10  11
HETATM   11  C3  UNL     1      31.805   3.889  46.954  1.00  0.00     0.017 C 
HETATM   12  C2  UNL     1      32.535   2.821  47.023  1.00  0.00     0.082 C 
BRANCH  12  13
HETATM   13  N1  UNL     1      33.545   2.856  48.021  1.00  0.00    -0.403 N 
HETATM   14  C1  UNL     1      34.840   3.484  47.952  1.00  0.00     0.145 C 
HETATM   15  H4  UNL     1      33.189   2.334  48.851  1.00  0.00     0.158 HD
ENDBRANCH  12  13
ENDBRANCH  10  11
ENDBRANCH   7   9
ENDBRANCH   1   3
BRANCH   1  16
HETATM   16  C10 UNL     1      25.775   3.113  50.079  1.00  0.00     0.031 A 
HETATM   17  C11 UNL     1      26.039   2.397  51.167  1.00  0.00     0.046 A 
HETATM   18  C12 UNL     1      24.814   1.861  51.739  1.00  0.00     0.029 A 
HETATM   19  C16 UNL     1      23.825   2.290  50.948  1.00  0.00     0.000 A 
HETATM   20  C17 UNL     1      24.313   3.128  49.812  1.00  0.00     0.086 A 
BRANCH  18  21
HETATM   21  S1  UNL     1      24.610   0.855  53.179  1.00  0.00     0.049 S 
HETATM   22  O1  UNL     1      23.528  -0.186  52.944  1.00  0.00    -0.253 OA
BRANCH  21  23
HETATM   23  C13 UNL     1      26.111   0.092  53.734  1.00  0.00     0.116 C 
BRANCH  23  24
HETATM   24  C14 UNL     1      26.461  -1.091  52.880  1.00  0.00     0.042 C 
BRANCH  24  25
HETATM   25  C15 UNL     1      27.930  -1.444  52.990  1.00  0.00     0.267 C 
BRANCH  25  26
HETATM   26  N4  UNL     1      28.032  -2.891  53.046  1.00  0.00     0.078 N 
HETATM   27  H19 UNL     1      28.583  -3.130  53.897  1.00  0.00     0.312 HD
HETATM   28  H20 UNL     1      28.480  -3.206  52.151  1.00  0.00     0.312 HD
ENDBRANCH  25  26
ENDBRANCH  24  25
ENDBRANCH  23  24
ENDBRANCH  21  23
ENDBRANCH  18  21
ENDBRANCH   1  16
TORSDOF 10
ENDMDL
MODEL 9
REMARK VINA RESULT:      -6.9      2.779      3.999
REMARK  10 active torsions:
REMARK  status: ('A' for Active; 'I' for Inactive)
REMARK    1  A    between atoms: N1_2  and  C2_3 
REMARK    2  A    between atoms: C3_4  and  C4_5 
REMARK    3  A    between atoms: C5_6  and  C6_7 
REMARK    4  A    between atoms: C9_11  and  N3_12 
REMARK    5  A    between atoms: N3_12  and  C10_13 
REMARK    6  A    between atoms: C12_15  and  S1_16 
REMARK    7  A    between atoms: S1_16  and  C13_18 
REMARK    8  A    between atoms: C13_18  and  C14_19 
REMARK    9  A    between atoms: C14_19  and  C15_20 
REMARK   10  A    between atoms: C15_20  and  N4_21 
ROOT
HETATM    1  N3  UNL     1      25.120   2.895  52.165  1.00  0.00    -0.192 N 
HETATM    2  H11 UNL     1      25.535   3.503  52.932  1.00  0.00     0.184 HD
ENDROOT
BRANCH   1   3
HETATM    3  C9  UNL     1      25.087   3.743  51.047  1.00  0.00     0.727 A 
HETATM    4  N2  UNL     1      23.953   4.356  50.670  1.00  0.00    -0.075 NA
HETATM    5  C8  UNL     1      23.954   5.159  49.596  1.00  0.00     0.139 A 
HETATM    6  C7  UNL     1      25.150   5.305  48.935  1.00  0.00     0.052 A 
HETATM    7  C6  UNL     1      26.328   4.702  49.281  1.00  0.00     0.077 A 
HETATM    8  N5  UNL     1      26.226   3.924  50.361  1.00  0.00    -0.063 NA
BRANCH   7   9
HETATM    9  C5  UNL     1      27.620   4.806  48.635  1.00  0.00     0.032 C 
HETATM   10  C4  UNL     1      28.369   5.812  48.267  1.00  0.00     0.004 C 
BRANCH  10  11
HETATM   11  C3  UNL     1      28.680   7.209  48.120  1.00  0.00     0.017 C 
HETATM   12  C2  UNL     1      29.331   8.282  48.441  1.00  0.00     0.082 C 
BRANCH  12  13
HETATM   13  N1  UNL     1      30.275   8.111  49.488  1.00  0.00    -0.403 N 
HETATM   14  C1  UNL     1      31.583   7.510  49.415  1.00  0.00     0.145 C 
HETATM   15  H4  UNL     1      29.859   8.505  50.359  1.00  0.00     0.158 HD
ENDBRANCH  12  13
ENDBRANCH  10  11
ENDBRANCH   7   9
ENDBRANCH   1   3
BRANCH   1  16
HETATM   16  C10 UNL     1      24.818   1.590  52.629  1.00  0.00     0.031 A 
HETATM   17  C11 UNL     1      23.574   1.296  52.990  1.00  0.00     0.046 A 
HETATM   18  C12 UNL     1      23.480  -0.087  53.431  1.00  0.00     0.029 A 
HETATM   19  C16 UNL     1      24.713  -0.590  53.315  1.00  0.00     0.000 A 
HETATM   20  C17 UNL     1      25.700   0.405  52.796  1.00  0.00     0.086 A 
BRANCH  18  21
HETATM   21  S1  UNL     1      22.062  -0.975  54.005  1.00  0.00     0.049 S 
HETATM   22  O1  UNL     1      22.329  -1.558  55.382  1.00  0.00    -0.253 OA
BRANCH  21  23
HETATM   23  C13 UNL     1      20.572  -0.014  54.002  1.00  0.00     0.116 C 
BRANCH  23  24
HETATM   24  C14 UNL     1      19.922  -0.033  52.649  1.00  0.00     0.042 C 
BRANCH  24  25
HETATM   25  C15 UNL     1      18.518  -0.600  52.712  1.00  0.00     0.267 C 
BRANCH  25  26
HETATM   26  N4  UNL     1      18.441  -1.455  53.882  1.00  0.00     0.078 N 
HETATM   27  H19 UNL     1      18.897  -0.946  54.669  1.00  0.00     0.312 HD
HETATM   28  H20 UNL     1      18.912  -2.360  53.637  1.00  0.00     0.312 HD
ENDBRANCH  25  26
ENDBRANCH  24  25
ENDBRANCH  23  24
ENDBRANCH  21  23
ENDBRANCH  18  21
ENDBRANCH   1  16
TORSDOF 10
ENDMDL
