MODEL 1
REMARK VINA RESULT:      -7.7      0.000      0.000
REMARK  7 active torsions:
REMARK  status: ('A' for Active; 'I' for Inactive)
REMARK    1  A    between atoms: O1_2  and  C2_3 
REMARK    2  A    between atoms: C5_6  and  C6_7 
REMARK    3  A    between atoms: C8_9  and  C9_10 
REMARK    4  A    between atoms: C9_10  and  C10_11 
REMARK    5  A    between atoms: C11_12  and  C12_13 
REMARK    6  A    between atoms: N2_16  and  C13_17 
REMARK    7  A    between atoms: C14_19  and  O2_20 
ROOT
HETATM    1  C6  UNL     1      24.458   2.201  52.643  1.00  0.00     0.151 C 
HETATM    2  C7  UNL     1      24.416   2.498  51.147  1.00  0.00     0.089 C 
HETATM    3  C8  UNL     1      23.029   3.087  51.099  1.00  0.00     0.038 C 
HETATM    4  N1  UNL     1      22.387   2.555  52.054  1.00  0.00    -0.178 NA
HETATM    5  N2  UNL     1      23.137   1.643  52.802  1.00  0.00    -0.237 N 
ENDROOT
BRANCH   1   6
HETATM    6  C5  UNL     1      25.564   1.308  52.991  1.00  0.00    -0.033 A 
HETATM    7  C4  UNL     1      25.993   0.373  52.074  1.00  0.00     0.012 A 
HETATM    8  C3  UNL     1      27.045  -0.485  52.384  1.00  0.00     0.037 A 
HETATM    9  C2  UNL     1      27.703  -0.455  53.589  1.00  0.00     0.068 A 
HETATM   10  C17 UNL     1      27.280   0.479  54.519  1.00  0.00     0.037 A 
HETATM   11  C16 UNL     1      26.236   1.318  54.187  1.00  0.00     0.012 A 
BRANCH   9  12
HETATM   12  O1  UNL     1      28.748  -1.303  53.904  1.00  0.00    -0.356 OA
HETATM   13  C1  UNL     1      30.089  -0.949  53.693  1.00  0.00     0.210 C 
ENDBRANCH   9  12
ENDBRANCH   1   6
BRANCH   5  14
HETATM   14  C13 UNL     1      22.577   0.512  53.478  1.00  0.00     0.192 A 
HETATM   15  N3  UNL     1      22.805  -0.285  54.277  1.00  0.00    -0.198 NA
HETATM   16  C14 UNL     1      22.052  -1.269  54.718  1.00  0.00     0.171 A 
HETATM   17  C15 UNL     1      20.758  -1.367  54.117  1.00  0.00     0.111 A 
HETATM   18  S1  UNL     1      20.815   0.086  52.909  1.00  0.00    -0.058 SA
BRANCH  16  19
HETATM   19  O2  UNL     1      22.659  -2.063  55.716  1.00  0.00    -0.344 OA
HETATM   20  H15 UNL     1      22.451  -1.959  56.691  1.00  0.00     0.219 HD
ENDBRANCH  16  19
ENDBRANCH   5  14
BRANCH   3  21
HETATM   21  C9  UNL     1      22.659   4.087  50.063  1.00  0.00     0.083 C 
BRANCH  21  22
HETATM   22  C10 UNL     1      23.142   3.612  48.749  1.00  0.00    -0.024 C 
HETATM   23  C11 UNL     1      22.464   2.796  47.967  1.00  0.00    -0.016 C 
BRANCH  23  24
HETATM   24  C12 UNL     1      21.133   2.174  48.168  1.00  0.00     0.141 C 
HETATM   25 CL1  UNL     1      21.275   0.700  49.158  1.00  0.00    -0.126 Cl
ENDBRANCH  23  24
ENDBRANCH  21  22
ENDBRANCH   3  21
TORSDOF 7
ENDMDL
MODEL 2
REMARK VINA RESULT:      -7.5      3.241      5.909
REMARK  7 active torsions:
REMARK  status: ('A' for Active; 'I' for Inactive)
REMARK    1  A    between atoms: O1_2  and  C2_3 
REMARK    2  A    between atoms: C5_6  and  C6_7 
REMARK    3  A    between atoms: C8_9  and  C9_10 
REMARK    4  A    between atoms: C9_10  and  C10_11 
REMARK    5  A    between atoms: C11_12  and  C12_13 
REMARK    6  A    between atoms: N2_16  and  C13_17 
REMARK    7  A    between atoms: C14_19  and  O2_20 
ROOT
HETATM    1  C6  UNL     1      24.446   1.703  52.839  1.00  0.00     0.151 C 
HETATM    2  C7  UNL     1      23.628   0.562  52.239  1.00  0.00     0.089 C 
HETATM    3  C8  UNL     1      23.556  -0.304  53.471  1.00  0.00     0.038 C 
HETATM    4  N1  UNL     1      24.594  -0.036  54.150  1.00  0.00    -0.178 NA
HETATM    5  N2  UNL     1      25.422   0.926  53.563  1.00  0.00    -0.237 N 
ENDROOT
BRANCH   1   6
HETATM    6  C5  UNL     1      24.986   2.588  51.807  1.00  0.00    -0.033 A 
HETATM    7  C4  UNL     1      24.371   3.796  51.562  1.00  0.00     0.012 A 
HETATM    8  C3  UNL     1      24.871   4.655  50.586  1.00  0.00     0.037 A 
HETATM    9  C2  UNL     1      25.977   4.360  49.828  1.00  0.00     0.068 A 
HETATM   10  C17 UNL     1      26.604   3.148  50.064  1.00  0.00     0.037 A 
HETATM   11  C16 UNL     1      26.089   2.316  51.038  1.00  0.00     0.012 A 
BRANCH   9  12
HETATM   12  O1  UNL     1      26.480   5.207  48.858  1.00  0.00    -0.356 OA
HETATM   13  C1  UNL     1      25.866   6.428  48.539  1.00  0.00     0.210 C 
ENDBRANCH   9  12
ENDBRANCH   1   6
BRANCH   5  14
HETATM   14  C13 UNL     1      26.841   0.974  53.743  1.00  0.00     0.192 A 
HETATM   15  N3  UNL     1      27.695   1.642  54.131  1.00  0.00    -0.198 NA
HETATM   16  C14 UNL     1      28.990   1.412  54.167  1.00  0.00     0.171 A 
HETATM   17  C15 UNL     1      29.401   0.145  53.647  1.00  0.00     0.111 A 
HETATM   18  S1  UNL     1      27.734  -0.592  53.141  1.00  0.00    -0.058 SA
BRANCH  16  19
HETATM   19  O2  UNL     1      29.752   2.465  54.717  1.00  0.00    -0.344 OA
HETATM   20  H15 UNL     1      30.095   2.450  55.658  1.00  0.00     0.219 HD
ENDBRANCH  16  19
ENDBRANCH   5  14
BRANCH   3  21
HETATM   21  C9  UNL     1      22.417  -1.234  53.687  1.00  0.00     0.083 C 
BRANCH  21  22
HETATM   22  C10 UNL     1      21.477  -0.619  54.647  1.00  0.00    -0.024 C 
HETATM   23  C11 UNL     1      20.475   0.163  54.298  1.00  0.00    -0.016 C 
BRANCH  23  24
HETATM   24  C12 UNL     1      20.044   0.612  52.953  1.00  0.00     0.141 C 
HETATM   25 CL1  UNL     1      20.436   2.334  52.712  1.00  0.00    -0.126 Cl
ENDBRANCH  23  24
ENDBRANCH  21  22
ENDBRANCH   3  21
TORSDOF 7
ENDMDL
MODEL 3
REMARK VINA RESULT:      -7.4      1.626      1.998
REMARK  7 active torsions:
REMARK  status: ('A' for Active; 'I' for Inactive)
REMARK    1  A    between atoms: O1_2  and  C2_3 
REMARK    2  A    between atoms: C5_6  and  C6_7 
REMARK    3  A    between atoms: C8_9  and  C9_10 
REMARK    4  A    between atoms: C9_10  and  C10_11 
REMARK    5  A    between atoms: C11_12  and  C12_13 
REMARK    6  A    between atoms: N2_16  and  C13_17 
REMARK    7  A    between atoms: C14_19  and  O2_20 
ROOT
HETATM    1  C6  UNL     1      24.472   2.219  52.729  1.00  0.00     0.151 C 
HETATM    2  C7  UNL     1      24.409   2.571  51.245  1.00  0.00     0.089 C 
HETATM    3  C8  UNL     1      23.028   3.176  51.241  1.00  0.00     0.038 C 
HETATM    4  N1  UNL     1      22.395   2.616  52.187  1.00  0.00    -0.178 NA
HETATM    5  N2  UNL     1      23.148   1.669  52.888  1.00  0.00    -0.237 N 
ENDROOT
BRANCH   1   6
HETATM    6  C5  UNL     1      25.573   1.303  53.027  1.00  0.00    -0.033 A 
HETATM    7  C4  UNL     1      25.958   0.378  52.080  1.00  0.00     0.012 A 
HETATM    8  C3  UNL     1      27.005  -0.502  52.342  1.00  0.00     0.037 A 
HETATM    9  C2  UNL     1      27.701  -0.503  53.526  1.00  0.00     0.068 A 
HETATM   10  C17 UNL     1      27.324   0.421  54.485  1.00  0.00     0.037 A 
HETATM   11  C16 UNL     1      26.283   1.283  54.201  1.00  0.00     0.012 A 
BRANCH   9  12
HETATM   12  O1  UNL     1      28.742  -1.373  53.794  1.00  0.00    -0.356 OA
HETATM   13  C1  UNL     1      30.086  -0.979  53.711  1.00  0.00     0.210 C 
ENDBRANCH   9  12
ENDBRANCH   1   6
BRANCH   5  14
HETATM   14  C13 UNL     1      22.587   0.520  53.531  1.00  0.00     0.192 A 
HETATM   15  N3  UNL     1      22.813  -0.298  54.309  1.00  0.00    -0.198 NA
HETATM   16  C14 UNL     1      22.059  -1.295  54.721  1.00  0.00     0.171 A 
HETATM   17  C15 UNL     1      20.766  -1.376  54.115  1.00  0.00     0.111 A 
HETATM   18  S1  UNL     1      20.825   0.111  52.947  1.00  0.00    -0.058 SA
BRANCH  16  19
HETATM   19  O2  UNL     1      22.664  -2.116  55.697  1.00  0.00    -0.344 OA
HETATM   20  H15 UNL     1      22.424  -2.066  56.669  1.00  0.00     0.219 HD
ENDBRANCH  16  19
ENDBRANCH   5  14
BRANCH   3  21
HETATM   21  C9  UNL     1      22.653   4.217  50.248  1.00  0.00     0.083 C 
BRANCH  21  22
HETATM   22  C10 UNL     1      23.216   5.513  50.682  1.00  0.00    -0.024 C 
HETATM   23  C11 UNL     1      24.160   6.161  50.028  1.00  0.00    -0.016 C 
BRANCH  23  24
HETATM   24  C12 UNL     1      24.866   5.802  48.775  1.00  0.00     0.141 C 
HETATM   25 CL1  UNL     1      26.310   4.821  49.130  1.00  0.00    -0.126 Cl
ENDBRANCH  23  24
ENDBRANCH  21  22
ENDBRANCH   3  21
TORSDOF 7
ENDMDL
MODEL 4
REMARK VINA RESULT:      -7.4      2.770      4.652
REMARK  7 active torsions:
REMARK  status: ('A' for Active; 'I' for Inactive)
REMARK    1  A    between atoms: O1_2  and  C2_3 
REMARK    2  A    between atoms: C5_6  and  C6_7 
REMARK    3  A    between atoms: C8_9  and  C9_10 
REMARK    4  A    between atoms: C9_10  and  C10_11 
REMARK    5  A    between atoms: C11_12  and  C12_13 
REMARK    6  A    between atoms: N2_16  and  C13_17 
REMARK    7  A    between atoms: C14_19  and  O2_20 
ROOT
HETATM    1  C6  UNL     1      23.858  -0.172  52.693  1.00  0.00     0.151 C 
HETATM    2  C7  UNL     1      22.829  -0.141  53.820  1.00  0.00     0.089 C 
HETATM    3  C8  UNL     1      21.636   0.265  52.992  1.00  0.00     0.038 C 
HETATM    4  N1  UNL     1      22.098   0.922  52.009  1.00  0.00    -0.178 NA
HETATM    5  N2  UNL     1      23.490   1.047  52.016  1.00  0.00    -0.237 N 
ENDROOT
BRANCH   1   6
HETATM    6  C5  UNL     1      25.227  -0.218  53.206  1.00  0.00    -0.033 A 
HETATM    7  C4  UNL     1      26.203  -0.857  52.473  1.00  0.00     0.012 A 
HETATM    8  C3  UNL     1      27.514  -0.909  52.942  1.00  0.00     0.037 A 
HETATM    9  C2  UNL     1      27.905  -0.344  54.130  1.00  0.00     0.068 A 
HETATM   10  C17 UNL     1      26.933   0.300  54.877  1.00  0.00     0.037 A 
HETATM   11  C16 UNL     1      25.642   0.339  54.390  1.00  0.00     0.012 A 
BRANCH   9  12
HETATM   12  O1  UNL     1      29.204  -0.392  54.603  1.00  0.00    -0.356 OA
HETATM   13  C1  UNL     1      30.293  -0.681  53.767  1.00  0.00     0.210 C 
ENDBRANCH   9  12
ENDBRANCH   1   6
BRANCH   5  14
HETATM   14  C13 UNL     1      24.194   2.160  51.454  1.00  0.00     0.192 A 
HETATM   15  N3  UNL     1      25.248   2.543  51.197  1.00  0.00    -0.198 NA
HETATM   16  C14 UNL     1      25.618   3.684  50.655  1.00  0.00     0.171 A 
HETATM   17  C15 UNL     1      24.552   4.584  50.339  1.00  0.00     0.111 A 
HETATM   18  S1  UNL     1      23.055   3.580  50.910  1.00  0.00    -0.058 SA
BRANCH  16  19
HETATM   19  O2  UNL     1      27.012   3.821  50.481  1.00  0.00    -0.344 OA
HETATM   20  H15 UNL     1      27.642   3.043  50.537  1.00  0.00     0.219 HD
ENDBRANCH  16  19
ENDBRANCH   5  14
BRANCH   3  21
HETATM   21  C9  UNL     1      20.258  -0.118  53.397  1.00  0.00     0.083 C 
BRANCH  21  22
HETATM   22  C10 UNL     1      19.396  -0.130  52.197  1.00  0.00    -0.024 C 
HETATM   23  C11 UNL     1      18.155  -0.576  52.186  1.00  0.00    -0.016 C 
BRANCH  23  24
HETATM   24  C12 UNL     1      17.342  -1.148  53.285  1.00  0.00     0.141 C 
HETATM   25 CL1  UNL     1      17.809  -2.840  53.595  1.00  0.00    -0.126 Cl
ENDBRANCH  23  24
ENDBRANCH  21  22
ENDBRANCH   3  21
TORSDOF 7
ENDMDL
MODEL 5
REMARK VINA RESULT:      -7.0      3.166      4.949
REMARK  7 active torsions:
REMARK  status: ('A' for Active; 'I' for Inactive)
REMARK    1  A    between atoms: O1_2  and  C2_3 
REMARK    2  A    between atoms: C5_6  and  C6_7 
REMARK    3  A    between atoms: C8_9  and  C9_10 
REMARK    4  A    between atoms: C9_10  and  C10_11 
REMARK    5  A    between atoms: C11_12  and  C12_13 
REMARK    6  A    between atoms: N2_16  and  C13_17 
REMARK    7  A    between atoms: C14_19  and  O2_20 
ROOT
HETATM    1  C6  UNL     1      23.339   1.039  52.151  1.00  0.00     0.151 C 
HETATM    2  C7  UNL     1      22.476   0.612  53.335  1.00  0.00     0.089 C 
HETATM    3  C8  UNL     1      21.136   0.983  52.752  1.00  0.00     0.038 C 
HETATM    4  N1  UNL     1      21.358   1.929  51.936  1.00  0.00    -0.178 NA
HETATM    5  N2  UNL     1      22.703   2.299  51.849  1.00  0.00    -0.237 N 
ENDROOT
BRANCH   1   6
HETATM    6  C5  UNL     1      24.755   1.120  52.508  1.00  0.00    -0.033 A 
HETATM    7  C4  UNL     1      25.122   1.057  53.835  1.00  0.00     0.012 A 
HETATM    8  C3  UNL     1      26.466   1.129  54.197  1.00  0.00     0.037 A 
HETATM    9  C2  UNL     1      27.479   1.265  53.281  1.00  0.00     0.068 A 
HETATM   10  C17 UNL     1      27.123   1.331  51.945  1.00  0.00     0.037 A 
HETATM   11  C16 UNL     1      25.785   1.256  51.612  1.00  0.00     0.012 A 
BRANCH   9  12
HETATM   12  O1  UNL     1      28.815   1.338  53.632  1.00  0.00    -0.356 OA
HETATM   13  C1  UNL     1      29.634   0.201  53.696  1.00  0.00     0.210 C 
ENDBRANCH   9  12
ENDBRANCH   1   6
BRANCH   5  14
HETATM   14  C13 UNL     1      23.149   3.622  51.534  1.00  0.00     0.192 A 
HETATM   15  N3  UNL     1      23.562   4.587  52.005  1.00  0.00    -0.198 NA
HETATM   16  C14 UNL     1      23.900   5.723  51.432  1.00  0.00     0.171 A 
HETATM   17  C15 UNL     1      23.729   5.766  50.012  1.00  0.00     0.111 A 
HETATM   18  S1  UNL     1      23.054   4.031  49.680  1.00  0.00    -0.058 SA
BRANCH  16  19
HETATM   19  O2  UNL     1      24.375   6.706  52.326  1.00  0.00    -0.344 OA
HETATM   20  H15 UNL     1      25.207   6.584  52.871  1.00  0.00     0.219 HD
ENDBRANCH  16  19
ENDBRANCH   5  14
BRANCH   3  21
HETATM   21  C9  UNL     1      19.899   0.272  53.167  1.00  0.00     0.083 C 
BRANCH  21  22
HETATM   22  C10 UNL     1      19.113  -0.058  51.960  1.00  0.00    -0.024 C 
HETATM   23  C11 UNL     1      17.950  -0.679  51.985  1.00  0.00    -0.016 C 
BRANCH  23  24
HETATM   24  C12 UNL     1      17.167  -1.182  53.139  1.00  0.00     0.141 C 
HETATM   25 CL1  UNL     1      17.855  -2.710  53.745  1.00  0.00    -0.126 Cl
ENDBRANCH  23  24
ENDBRANCH  21  22
ENDBRANCH   3  21
TORSDOF 7
ENDMDL
MODEL 6
REMARK VINA RESULT:      -6.7      3.920      7.309
REMARK  7 active torsions:
REMARK  status: ('A' for Active; 'I' for Inactive)
REMARK    1  A    between atoms: O1_2  and  C2_3 
REMARK    2  A    between atoms: C5_6  and  C6_7 
REMARK    3  A    between atoms: C8_9  and  C9_10 
REMARK    4  A    between atoms: C9_10  and  C10_11 
REMARK    5  A    between atoms: C11_12  and  C12_13 
REMARK    6  A    between atoms: N2_16  and  C13_17 
REMARK    7  A    between atoms: C14_19  and  O2_20 
ROOT
HETATM    1  C6  UNL     1      22.817   1.271  53.102  1.00  0.00     0.151 C 
HETATM    2  C7  UNL     1      23.572  -0.012  52.764  1.00  0.00     0.089 C 
HETATM    3  C8  UNL     1      24.876   0.340  53.435  1.00  0.00     0.038 C 
HETATM    4  N1  UNL     1      24.951   1.606  53.416  1.00  0.00    -0.178 NA
HETATM    5  N2  UNL     1      23.856   2.229  52.811  1.00  0.00    -0.237 N 
ENDROOT
BRANCH   1   6
HETATM    6  C5  UNL     1      21.594   1.409  52.312  1.00  0.00    -0.033 A 
HETATM    7  C4  UNL     1      21.434   0.645  51.176  1.00  0.00     0.012 A 
HETATM    8  C3  UNL     1      20.275   0.760  50.410  1.00  0.00     0.037 A 
HETATM    9  C2  UNL     1      19.251   1.616  50.729  1.00  0.00     0.068 A 
HETATM   10  C17 UNL     1      19.401   2.390  51.867  1.00  0.00     0.037 A 
HETATM   11  C16 UNL     1      20.558   2.257  52.610  1.00  0.00     0.012 A 
BRANCH   9  12
HETATM   12  O1  UNL     1      18.099   1.735  49.974  1.00  0.00    -0.356 OA
HETATM   13  C1  UNL     1      17.050   0.808  50.059  1.00  0.00     0.210 C 
ENDBRANCH   9  12
ENDBRANCH   1   6
BRANCH   5  14
HETATM   14  C13 UNL     1      23.929   3.484  52.126  1.00  0.00     0.192 A 
HETATM   15  N3  UNL     1      23.988   4.621  52.298  1.00  0.00    -0.198 NA
HETATM   16  C14 UNL     1      24.041   5.600  51.421  1.00  0.00     0.171 A 
HETATM   17  C15 UNL     1      24.023   5.195  50.049  1.00  0.00     0.111 A 
HETATM   18  S1  UNL     1      23.924   3.315  50.234  1.00  0.00    -0.058 SA
BRANCH  16  19
HETATM   19  O2  UNL     1      24.107   6.890  51.992  1.00  0.00    -0.344 OA
HETATM   20  H15 UNL     1      24.084   7.727  51.441  1.00  0.00     0.219 HD
ENDBRANCH  16  19
ENDBRANCH   5  14
BRANCH   3  21
HETATM   21  C9  UNL     1      25.777  -0.721  53.958  1.00  0.00     0.083 C 
BRANCH  21  22
HETATM   22  C10 UNL     1      26.927  -0.863  53.042  1.00  0.00    -0.024 C 
HETATM   23  C11 UNL     1      28.080  -0.247  53.205  1.00  0.00    -0.016 C 
BRANCH  23  24
HETATM   24  C12 UNL     1      28.513   0.690  54.270  1.00  0.00     0.141 C 
HETATM   25 CL1  UNL     1      28.535   2.364  53.660  1.00  0.00    -0.126 Cl
ENDBRANCH  23  24
ENDBRANCH  21  22
ENDBRANCH   3  21
TORSDOF 7
ENDMDL
MODEL 7
REMARK VINA RESULT:      -6.7      3.687      5.806
REMARK  7 active torsions:
REMARK  status: ('A' for Active; 'I' for Inactive)
REMARK    1  A    between atoms: O1_2  and  C2_3 
REMARK    2  A    between atoms: C5_6  and  C6_7 
REMARK    3  A    between atoms: C8_9  and  C9_10 
REMARK    4  A    between atoms: C9_10  and  C10_11 
REMARK    5  A    between atoms: C11_12  and  C12_13 
REMARK    6  A    between atoms: N2_16  and  C13_17 
REMARK    7  A    between atoms: C14_19  and  O2_20 
ROOT
HETATM    1  C6  UNL     1      24.143   2.105  50.755  1.00  0.00     0.151 C 
HETATM    2  C7  UNL     1      24.074   3.620  50.925  1.00  0.00     0.089 C 
HETATM    3  C8  UNL     1      25.437   3.948  50.372  1.00  0.00     0.038 C 
HETATM    4  N1  UNL     1      26.159   2.926  50.586  1.00  0.00    -0.178 NA
HETATM    5  N2  UNL     1      25.487   1.884  51.232  1.00  0.00    -0.237 N 
ENDROOT
BRANCH   1   6
HETATM    6  C5  UNL     1      23.089   1.422  51.505  1.00  0.00    -0.033 A 
HETATM    7  C4  UNL     1      22.015   0.888  50.828  1.00  0.00     0.012 A 
HETATM    8  C3  UNL     1      21.001   0.232  51.523  1.00  0.00     0.037 A 
HETATM    9  C2  UNL     1      21.009   0.081  52.887  1.00  0.00     0.068 A 
HETATM   10  C17 UNL     1      22.083   0.614  53.579  1.00  0.00     0.037 A 
HETATM   11  C16 UNL     1      23.075   1.259  52.867  1.00  0.00     0.012 A 
BRANCH   9  12
HETATM   12  O1  UNL     1      20.007  -0.569  53.584  1.00  0.00    -0.356 OA
HETATM   13  C1  UNL     1      18.718  -0.740  53.057  1.00  0.00     0.210 C 
ENDBRANCH   9  12
ENDBRANCH   1   6
BRANCH   5  14
HETATM   14  C13 UNL     1      26.123   0.942  52.102  1.00  0.00     0.192 A 
HETATM   15  N3  UNL     1      26.387  -0.173  52.211  1.00  0.00    -0.198 NA
HETATM   16  C14 UNL     1      27.012  -0.795  53.187  1.00  0.00     0.171 A 
HETATM   17  C15 UNL     1      27.426   0.035  54.276  1.00  0.00     0.111 A 
HETATM   18  S1  UNL     1      26.808   1.724  53.693  1.00  0.00    -0.058 SA
BRANCH  16  19
HETATM   19  O2  UNL     1      27.166  -2.184  52.987  1.00  0.00    -0.344 OA
HETATM   20  H15 UNL     1      26.849  -2.649  52.157  1.00  0.00     0.219 HD
ENDBRANCH  16  19
ENDBRANCH   5  14
BRANCH   3  21
HETATM   21  C9  UNL     1      25.707   5.262  49.731  1.00  0.00     0.083 C 
BRANCH  21  22
HETATM   22  C10 UNL     1      26.919   5.143  48.894  1.00  0.00    -0.024 C 
HETATM   23  C11 UNL     1      27.523   6.166  48.323  1.00  0.00    -0.016 C 
BRANCH  23  24
HETATM   24  C12 UNL     1      27.183   7.609  48.357  1.00  0.00     0.141 C 
HETATM   25 CL1  UNL     1      28.492   8.541  49.127  1.00  0.00    -0.126 Cl
ENDBRANCH  23  24
ENDBRANCH  21  22
ENDBRANCH   3  21
TORSDOF 7
ENDMDL
MODEL 8
REMARK VINA RESULT:      -6.7      2.928      3.442
REMARK  7 active torsions:
REMARK  status: ('A' for Active; 'I' for Inactive)
REMARK    1  A    between atoms: O1_2  and  C2_3 
REMARK    2  A    between atoms: C5_6  and  C6_7 
REMARK    3  A    between atoms: C8_9  and  C9_10 
REMARK    4  A    between atoms: C9_10  and  C10_11 
REMARK    5  A    between atoms: C11_12  and  C12_13 
REMARK    6  A    between atoms: N2_16  and  C13_17 
REMARK    7  A    between atoms: C14_19  and  O2_20 
ROOT
HETATM    1  C6  UNL     1      25.178   3.031  51.902  1.00  0.00     0.151 C 
HETATM    2  C7  UNL     1      25.513   3.332  50.444  1.00  0.00     0.089 C 
HETATM    3  C8  UNL     1      24.338   4.230  50.149  1.00  0.00     0.038 C 
HETATM    4  N1  UNL     1      23.409   3.861  50.930  1.00  0.00    -0.178 NA
HETATM    5  N2  UNL     1      23.761   2.797  51.766  1.00  0.00    -0.237 N 
ENDROOT
BRANCH   1   6
HETATM    6  C5  UNL     1      25.954   1.905  52.420  1.00  0.00    -0.033 A 
HETATM    7  C4  UNL     1      26.368   1.915  53.734  1.00  0.00     0.012 A 
HETATM    8  C3  UNL     1      27.106   0.850  54.247  1.00  0.00     0.037 A 
HETATM    9  C2  UNL     1      27.459  -0.244  53.497  1.00  0.00     0.068 A 
HETATM   10  C17 UNL     1      27.050  -0.266  52.174  1.00  0.00     0.037 A 
HETATM   11  C16 UNL     1      26.318   0.801  51.690  1.00  0.00     0.012 A 
BRANCH   9  12
HETATM   12  O1  UNL     1      28.191  -1.304  53.999  1.00  0.00    -0.356 OA
HETATM   13  C1  UNL     1      29.440  -1.666  53.473  1.00  0.00     0.210 C 
ENDBRANCH   9  12
ENDBRANCH   1   6
BRANCH   5  14
HETATM   14  C13 UNL     1      22.831   1.828  52.260  1.00  0.00     0.192 A 
HETATM   15  N3  UNL     1      22.754   0.752  52.660  1.00  0.00    -0.198 NA
HETATM   16  C14 UNL     1      21.695   0.079  53.059  1.00  0.00     0.171 A 
HETATM   17  C15 UNL     1      20.456   0.788  52.985  1.00  0.00     0.111 A 
HETATM   18  S1  UNL     1      21.036   2.451  52.298  1.00  0.00    -0.058 SA
BRANCH  16  19
HETATM   19  O2  UNL     1      21.972  -1.236  53.494  1.00  0.00    -0.344 OA
HETATM   20  H15 UNL     1      22.594  -1.434  54.255  1.00  0.00     0.219 HD
ENDBRANCH  16  19
ENDBRANCH   5  14
BRANCH   3  21
HETATM   21  C9  UNL     1      24.428   5.290  49.111  1.00  0.00     0.083 C 
BRANCH  21  22
HETATM   22  C10 UNL     1      25.853   5.589  48.859  1.00  0.00    -0.024 C 
HETATM   23  C11 UNL     1      26.460   6.685  49.268  1.00  0.00    -0.016 C 
BRANCH  23  24
HETATM   24  C12 UNL     1      25.925   7.836  50.036  1.00  0.00     0.141 C 
HETATM   25 CL1  UNL     1      27.201   9.048  50.315  1.00  0.00    -0.126 Cl
ENDBRANCH  23  24
ENDBRANCH  21  22
ENDBRANCH   3  21
TORSDOF 7
ENDMDL
MODEL 9
REMARK VINA RESULT:      -6.5      4.158      7.564
REMARK  7 active torsions:
REMARK  status: ('A' for Active; 'I' for Inactive)
REMARK    1  A    between atoms: O1_2  and  C2_3 
REMARK    2  A    between atoms: C5_6  and  C6_7 
REMARK    3  A    between atoms: C8_9  and  C9_10 
REMARK    4  A    between atoms: C9_10  and  C10_11 
REMARK    5  A    between atoms: C11_12  and  C12_13 
REMARK    6  A    between atoms: N2_16  and  C13_17 
REMARK    7  A    between atoms: C14_19  and  O2_20 
ROOT
HETATM    1  C6  UNL     1      22.774   2.075  52.107  1.00  0.00     0.151 C 
HETATM    2  C7  UNL     1      23.636   0.817  52.042  1.00  0.00     0.089 C 
HETATM    3  C8  UNL     1      24.582   1.164  53.164  1.00  0.00     0.038 C 
HETATM    4  N1  UNL     1      24.623   2.431  53.211  1.00  0.00    -0.178 NA
HETATM    5  N2  UNL     1      23.818   3.059  52.256  1.00  0.00    -0.237 N 
ENDROOT
BRANCH   1   6
HETATM    6  C5  UNL     1      21.935   2.224  50.918  1.00  0.00    -0.033 A 
HETATM    7  C4  UNL     1      20.813   3.022  50.978  1.00  0.00     0.012 A 
HETATM    8  C3  UNL     1      20.002   3.179  49.856  1.00  0.00     0.037 A 
HETATM    9  C2  UNL     1      20.261   2.566  48.655  1.00  0.00     0.068 A 
HETATM   10  C17 UNL     1      21.385   1.761  48.583  1.00  0.00     0.037 A 
HETATM   11  C16 UNL     1      22.174   1.622  49.708  1.00  0.00     0.012 A 
BRANCH   9  12
HETATM   12  O1  UNL     1      19.461   2.717  47.538  1.00  0.00    -0.356 OA
HETATM   13  C1  UNL     1      19.703   3.707  46.573  1.00  0.00     0.210 C 
ENDBRANCH   9  12
ENDBRANCH   1   6
BRANCH   5  14
HETATM   14  C13 UNL     1      24.108   4.340  51.686  1.00  0.00     0.192 A 
HETATM   15  N3  UNL     1      23.877   5.463  51.788  1.00  0.00    -0.198 NA
HETATM   16  C14 UNL     1      24.312   6.477  51.071  1.00  0.00     0.171 A 
HETATM   17  C15 UNL     1      25.204   6.136  50.007  1.00  0.00     0.111 A 
HETATM   18  S1  UNL     1      25.297   4.258  50.206  1.00  0.00    -0.058 SA
BRANCH  16  19
HETATM   19  O2  UNL     1      23.817   7.734  51.481  1.00  0.00    -0.344 OA
HETATM   20  H15 UNL     1      24.200   8.238  52.258  1.00  0.00     0.219 HD
ENDBRANCH  16  19
ENDBRANCH   5  14
BRANCH   3  21
HETATM   21  C9  UNL     1      25.249   0.098  53.958  1.00  0.00     0.083 C 
BRANCH  21  22
HETATM   22  C10 UNL     1      26.349  -0.475  53.156  1.00  0.00    -0.024 C 
HETATM   23  C11 UNL     1      27.620  -0.164  53.320  1.00  0.00    -0.016 C 
BRANCH  23  24
HETATM   24  C12 UNL     1      28.252   0.774  54.279  1.00  0.00     0.141 C 
HETATM   25 CL1  UNL     1      28.384   2.402  53.568  1.00  0.00    -0.126 Cl
ENDBRANCH  23  24
ENDBRANCH  21  22
ENDBRANCH   3  21
TORSDOF 7
ENDMDL
