MODEL 1
REMARK VINA RESULT:      -8.6      0.000      0.000
REMARK  8 active torsions:
REMARK  status: ('A' for Active; 'I' for Inactive)
REMARK    1  A    between atoms: C6_7  and  C7_8 
REMARK    2  A    between atoms: C7_8  and  C8_9 
REMARK    3  A    between atoms: C7_8  and  C11_13 
REMARK    4  A    between atoms: C8_9  and  N1_10 
REMARK    5  A    between atoms: C11_13  and  C12_15 
REMARK    6  A    between atoms: C15_18  and  O2_19 
REMARK    7  A    between atoms: O2_19  and  C16_20 
REMARK    8  A    between atoms: C16_20  and  C17_21 
ROOT
HETATM    1  C11 UNL     1      24.170  -0.271  53.753  1.00  0.00     0.166 C 
HETATM    2  O1  UNL     1      24.707  -0.909  54.727  1.00  0.00    -0.292 OA
ENDROOT
BRANCH   1   3
HETATM    3  C7  UNL     1      25.183   0.399  52.906  1.00  0.00     0.103 C 
BRANCH   3   4
HETATM    4  C6  UNL     1      26.568  -0.127  53.081  1.00  0.00     0.069 C 
HETATM    5  S1  UNL     1      26.824  -1.813  52.461  1.00  0.00    -0.136 SA
HETATM    6  C5  UNL     1      28.509  -2.254  52.950  1.00  0.00     0.045 C 
HETATM    7  C4  UNL     1      29.507  -1.537  53.487  1.00  0.00     0.007 C 
HETATM    8  C3  UNL     1      29.479  -0.117  53.837  1.00  0.00     0.003 C 
HETATM    9  C2  UNL     1      28.722   0.891  53.445  1.00  0.00    -0.083 C 
HETATM   10  C1  UNL     1      29.064   2.188  54.082  1.00  0.00     0.043 C 
HETATM   11  C25 UNL     1      27.613   0.738  52.440  1.00  0.00     0.050 C 
ENDBRANCH   3   4
BRANCH   3  12
HETATM   12  C8  UNL     1      25.157   1.874  53.089  1.00  0.00     0.285 C 
BRANCH  12  13
HETATM   13  N1  UNL     1      24.393   2.578  52.091  1.00  0.00     0.080 N 
HETATM   14  C9  UNL     1      25.023   2.755  50.830  1.00  0.00     0.309 C 
HETATM   15  C10 UNL     1      23.745   3.759  52.620  1.00  0.00     0.309 C 
ENDBRANCH  12  13
ENDBRANCH   3  12
ENDBRANCH   1   3
BRANCH   1  16
HETATM   16  C12 UNL     1      22.734  -0.319  53.661  1.00  0.00     0.010 A 
HETATM   17  C13 UNL     1      21.955   0.198  52.651  1.00  0.00     0.018 A 
HETATM   18  C14 UNL     1      20.584   0.127  52.554  1.00  0.00     0.037 A 
HETATM   19  C15 UNL     1      19.905  -0.522  53.560  1.00  0.00     0.069 A 
HETATM   20  C23 UNL     1      20.635  -1.069  54.613  1.00  0.00     0.037 A 
HETATM   21  C24 UNL     1      22.004  -0.957  54.638  1.00  0.00     0.018 A 
BRANCH  19  22
HETATM   22  O2  UNL     1      18.538  -0.674  53.601  1.00  0.00    -0.347 OA
BRANCH  22  23
HETATM   23  C16 UNL     1      17.794  -1.061  52.460  1.00  0.00     0.214 C 
BRANCH  23  24
HETATM   24  C17 UNL     1      16.915  -2.213  52.735  1.00  0.00    -0.034 A 
HETATM   25  C18 UNL     1      17.537  -3.204  53.487  1.00  0.00     0.009 A 
HETATM   26  C19 UNL     1      16.849  -4.367  53.838  1.00  0.00     0.001 A 
HETATM   27  C20 UNL     1      15.550  -4.490  53.415  1.00  0.00     0.000 A 
HETATM   28  C21 UNL     1      14.902  -3.518  52.663  1.00  0.00     0.001 A 
HETATM   29  C22 UNL     1      15.608  -2.359  52.321  1.00  0.00     0.009 A 
ENDBRANCH  23  24
ENDBRANCH  22  23
ENDBRANCH  19  22
ENDBRANCH   1  16
TORSDOF 8
ENDMDL
MODEL 2
REMARK VINA RESULT:      -8.5      3.615      8.657
REMARK  8 active torsions:
REMARK  status: ('A' for Active; 'I' for Inactive)
REMARK    1  A    between atoms: C6_7  and  C7_8 
REMARK    2  A    between atoms: C7_8  and  C8_9 
REMARK    3  A    between atoms: C7_8  and  C11_13 
REMARK    4  A    between atoms: C8_9  and  N1_10 
REMARK    5  A    between atoms: C11_13  and  C12_15 
REMARK    6  A    between atoms: C15_18  and  O2_19 
REMARK    7  A    between atoms: O2_19  and  C16_20 
REMARK    8  A    between atoms: C16_20  and  C17_21 
ROOT
HETATM    1  C11 UNL     1      23.030   1.340  51.978  1.00  0.00     0.166 C 
HETATM    2  O1  UNL     1      22.159   0.582  51.423  1.00  0.00    -0.292 OA
ENDROOT
BRANCH   1   3
HETATM    3  C7  UNL     1      23.579   0.737  53.215  1.00  0.00     0.103 C 
BRANCH   3   4
HETATM    4  C6  UNL     1      25.060   0.862  53.348  1.00  0.00     0.069 C 
HETATM    5  S1  UNL     1      25.797  -0.180  54.637  1.00  0.00    -0.136 SA
HETATM    6  C5  UNL     1      27.542   0.291  54.697  1.00  0.00     0.045 C 
HETATM    7  C4  UNL     1      28.289   1.079  53.909  1.00  0.00     0.007 C 
HETATM    8  C3  UNL     1      27.845   1.807  52.721  1.00  0.00     0.003 C 
HETATM    9  C2  UNL     1      26.819   1.654  51.904  1.00  0.00    -0.083 C 
HETATM   10  C1  UNL     1      26.768   2.651  50.803  1.00  0.00     0.043 C 
HETATM   11  C25 UNL     1      25.794   0.567  52.074  1.00  0.00     0.050 C 
ENDBRANCH   3   4
BRANCH   3  12
HETATM   12  C8  UNL     1      23.160  -0.682  53.363  1.00  0.00     0.285 C 
BRANCH  12  13
HETATM   13  N1  UNL     1      22.258  -0.918  54.462  1.00  0.00     0.080 N 
HETATM   14  C9  UNL     1      22.784  -1.654  55.557  1.00  0.00     0.309 C 
HETATM   15  C10 UNL     1      20.945  -1.336  54.021  1.00  0.00     0.309 C 
ENDBRANCH  12  13
ENDBRANCH   3  12
ENDBRANCH   1   3
BRANCH   1  16
HETATM   16  C12 UNL     1      23.308   2.594  51.327  1.00  0.00     0.010 A 
HETATM   17  C13 UNL     1      23.353   2.827  49.972  1.00  0.00     0.018 A 
HETATM   18  C14 UNL     1      23.593   4.033  49.356  1.00  0.00     0.037 A 
HETATM   19  C15 UNL     1      23.813   5.130  50.158  1.00  0.00     0.069 A 
HETATM   20  C23 UNL     1      23.781   4.961  51.541  1.00  0.00     0.037 A 
HETATM   21  C24 UNL     1      23.534   3.722  52.082  1.00  0.00     0.018 A 
BRANCH  19  22
HETATM   22  O2  UNL     1      24.065   6.398  49.688  1.00  0.00    -0.347 OA
BRANCH  22  23
HETATM   23  C16 UNL     1      24.459   6.634  48.349  1.00  0.00     0.214 C 
BRANCH  23  24
HETATM   24  C17 UNL     1      25.925   6.601  48.188  1.00  0.00    -0.034 A 
HETATM   25  C18 UNL     1      26.421   7.699  47.493  1.00  0.00     0.009 A 
HETATM   26  C19 UNL     1      27.790   7.828  47.250  1.00  0.00     0.001 A 
HETATM   27  C20 UNL     1      28.615   6.838  47.719  1.00  0.00     0.000 A 
HETATM   28  C21 UNL     1      28.150   5.730  48.416  1.00  0.00     0.001 A 
HETATM   29  C22 UNL     1      26.775   5.618  48.650  1.00  0.00     0.009 A 
ENDBRANCH  23  24
ENDBRANCH  22  23
ENDBRANCH  19  22
ENDBRANCH   1  16
TORSDOF 8
ENDMDL
MODEL 3
REMARK VINA RESULT:      -8.3      3.081      9.283
REMARK  8 active torsions:
REMARK  status: ('A' for Active; 'I' for Inactive)
REMARK    1  A    between atoms: C6_7  and  C7_8 
REMARK    2  A    between atoms: C7_8  and  C8_9 
REMARK    3  A    between atoms: C7_8  and  C11_13 
REMARK    4  A    between atoms: C8_9  and  N1_10 
REMARK    5  A    between atoms: C11_13  and  C12_15 
REMARK    6  A    between atoms: C15_18  and  O2_19 
REMARK    7  A    between atoms: O2_19  and  C16_20 
REMARK    8  A    between atoms: C16_20  and  C17_21 
ROOT
HETATM    1  C11 UNL     1      20.520   2.399  51.980  1.00  0.00     0.166 C 
HETATM    2  O1  UNL     1      20.011   3.247  52.794  1.00  0.00    -0.292 OA
ENDROOT
BRANCH   1   3
HETATM    3  C7  UNL     1      19.677   2.213  50.776  1.00  0.00     0.103 C 
BRANCH   3   4
HETATM    4  C6  UNL     1      18.410   1.468  51.029  1.00  0.00     0.069 C 
HETATM    5  S1  UNL     1      17.044   1.891  49.912  1.00  0.00    -0.136 SA
HETATM    6  C5  UNL     1      15.610   0.987  50.541  1.00  0.00     0.045 C 
HETATM    7  C4  UNL     1      15.485   0.048  51.491  1.00  0.00     0.007 C 
HETATM    8  C3  UNL     1      16.552  -0.518  52.313  1.00  0.00     0.003 C 
HETATM    9  C2  UNL     1      17.863  -0.587  52.163  1.00  0.00    -0.083 C 
HETATM   10  C1  UNL     1      18.564  -1.272  53.279  1.00  0.00     0.043 C 
HETATM   11  C25 UNL     1      18.579  -0.022  50.968  1.00  0.00     0.050 C 
ENDBRANCH   3   4
BRANCH   3  12
HETATM   12  C8  UNL     1      20.441   1.583  49.667  1.00  0.00     0.285 C 
BRANCH  12  13
HETATM   13  N1  UNL     1      21.019   2.524  48.741  1.00  0.00     0.080 N 
HETATM   14  C9  UNL     1      20.218   2.872  47.621  1.00  0.00     0.309 C 
HETATM   15  C10 UNL     1      22.399   2.222  48.433  1.00  0.00     0.309 C 
ENDBRANCH  12  13
ENDBRANCH   3  12
ENDBRANCH   1   3
BRANCH   1  16
HETATM   16  C12 UNL     1      21.772   1.801  52.366  1.00  0.00     0.010 A 
HETATM   17  C13 UNL     1      23.022   2.367  52.265  1.00  0.00     0.018 A 
HETATM   18  C14 UNL     1      24.212   1.801  52.659  1.00  0.00     0.037 A 
HETATM   19  C15 UNL     1      24.170   0.542  53.213  1.00  0.00     0.069 A 
HETATM   20  C23 UNL     1      22.933  -0.088  53.344  1.00  0.00     0.037 A 
HETATM   21  C24 UNL     1      21.787   0.544  52.926  1.00  0.00     0.018 A 
BRANCH  19  22
HETATM   22  O2  UNL     1      25.274  -0.151  53.654  1.00  0.00    -0.347 OA
BRANCH  22  23
HETATM   23  C16 UNL     1      26.051  -0.951  52.782  1.00  0.00     0.214 C 
BRANCH  23  24
HETATM   24  C17 UNL     1      27.494  -0.841  53.067  1.00  0.00    -0.034 A 
HETATM   25  C18 UNL     1      27.908   0.469  53.281  1.00  0.00     0.009 A 
HETATM   26  C19 UNL     1      29.246   0.755  53.563  1.00  0.00     0.001 A 
HETATM   27  C20 UNL     1      30.123  -0.298  53.619  1.00  0.00     0.000 A 
HETATM   28  C21 UNL     1      29.739  -1.617  53.410  1.00  0.00     0.001 A 
HETATM   29  C22 UNL     1      28.395  -1.884  53.128  1.00  0.00     0.009 A 
ENDBRANCH  23  24
ENDBRANCH  22  23
ENDBRANCH  19  22
ENDBRANCH   1  16
TORSDOF 8
ENDMDL
MODEL 4
REMARK VINA RESULT:      -8.3      4.199      9.568
REMARK  8 active torsions:
REMARK  status: ('A' for Active; 'I' for Inactive)
REMARK    1  A    between atoms: C6_7  and  C7_8 
REMARK    2  A    between atoms: C7_8  and  C8_9 
REMARK    3  A    between atoms: C7_8  and  C11_13 
REMARK    4  A    between atoms: C8_9  and  N1_10 
REMARK    5  A    between atoms: C11_13  and  C12_15 
REMARK    6  A    between atoms: C15_18  and  O2_19 
REMARK    7  A    between atoms: O2_19  and  C16_20 
REMARK    8  A    between atoms: C16_20  and  C17_21 
ROOT
HETATM    1  C11 UNL     1      20.192   3.048  51.731  1.00  0.00     0.166 C 
HETATM    2  O1  UNL     1      19.241   3.868  51.989  1.00  0.00    -0.292 OA
ENDROOT
BRANCH   1   3
HETATM    3  C7  UNL     1      19.747   1.638  51.828  1.00  0.00     0.103 C 
BRANCH   3   4
HETATM    4  C6  UNL     1      20.656   0.766  52.628  1.00  0.00     0.069 C 
HETATM    5  S1  UNL     1      19.824  -0.564  53.539  1.00  0.00    -0.136 SA
HETATM    6  C5  UNL     1      21.115  -1.341  54.540  1.00  0.00     0.045 C 
HETATM    7  C4  UNL     1      22.447  -1.190  54.564  1.00  0.00     0.007 C 
HETATM    8  C3  UNL     1      23.246  -0.295  53.728  1.00  0.00     0.003 C 
HETATM    9  C2  UNL     1      23.018   0.293  52.568  1.00  0.00    -0.083 C 
HETATM   10  C1  UNL     1      24.143   1.134  52.084  1.00  0.00     0.043 C 
HETATM   11  C25 UNL     1      21.733   0.124  51.804  1.00  0.00     0.050 C 
ENDBRANCH   3   4
BRANCH   3  12
HETATM   12  C8  UNL     1      19.506   1.049  50.484  1.00  0.00     0.285 C 
BRANCH  12  13
HETATM   13  N1  UNL     1      18.129   1.092  50.061  1.00  0.00     0.080 N 
HETATM   14  C9  UNL     1      17.777   2.154  49.186  1.00  0.00     0.309 C 
HETATM   15  C10 UNL     1      17.207   0.870  51.152  1.00  0.00     0.309 C 
ENDBRANCH  12  13
ENDBRANCH   3  12
ENDBRANCH   1   3
BRANCH   1  16
HETATM   16  C12 UNL     1      21.472   3.621  51.406  1.00  0.00     0.010 A 
HETATM   17  C13 UNL     1      22.295   4.332  52.250  1.00  0.00     0.018 A 
HETATM   18  C14 UNL     1      23.530   4.854  51.941  1.00  0.00     0.037 A 
HETATM   19  C15 UNL     1      24.009   4.657  50.666  1.00  0.00     0.069 A 
HETATM   20  C23 UNL     1      23.223   3.944  49.762  1.00  0.00     0.037 A 
HETATM   21  C24 UNL     1      21.999   3.452  50.146  1.00  0.00     0.018 A 
BRANCH  19  22
HETATM   22  O2  UNL     1      25.223   5.118  50.212  1.00  0.00    -0.347 OA
BRANCH  22  23
HETATM   23  C16 UNL     1      25.324   5.968  49.085  1.00  0.00     0.214 C 
BRANCH  23  24
HETATM   24  C17 UNL     1      26.711   6.071  48.591  1.00  0.00    -0.034 A 
HETATM   25  C18 UNL     1      26.978   7.287  47.971  1.00  0.00     0.009 A 
HETATM   26  C19 UNL     1      28.244   7.553  47.444  1.00  0.00     0.001 A 
HETATM   27  C20 UNL     1      29.199   6.576  47.561  1.00  0.00     0.000 A 
HETATM   28  C21 UNL     1      28.963   5.353  48.175  1.00  0.00     0.001 A 
HETATM   29  C22 UNL     1      27.688   5.104  48.697  1.00  0.00     0.009 A 
ENDBRANCH  23  24
ENDBRANCH  22  23
ENDBRANCH  19  22
ENDBRANCH   1  16
TORSDOF 8
ENDMDL
MODEL 5
REMARK VINA RESULT:      -8.3      3.678      8.963
REMARK  8 active torsions:
REMARK  status: ('A' for Active; 'I' for Inactive)
REMARK    1  A    between atoms: C6_7  and  C7_8 
REMARK    2  A    between atoms: C7_8  and  C8_9 
REMARK    3  A    between atoms: C7_8  and  C11_13 
REMARK    4  A    between atoms: C8_9  and  N1_10 
REMARK    5  A    between atoms: C11_13  and  C12_15 
REMARK    6  A    between atoms: C15_18  and  O2_19 
REMARK    7  A    between atoms: O2_19  and  C16_20 
REMARK    8  A    between atoms: C16_20  and  C17_21 
ROOT
HETATM    1  C11 UNL     1      22.106   4.216  50.187  1.00  0.00     0.166 C 
HETATM    2  O1  UNL     1      21.994   5.490  50.261  1.00  0.00    -0.292 OA
ENDROOT
BRANCH   1   3
HETATM    3  C7  UNL     1      21.073   3.621  49.308  1.00  0.00     0.103 C 
BRANCH   3   4
HETATM    4  C6  UNL     1      20.315   2.498  49.933  1.00  0.00     0.069 C 
HETATM    5  S1  UNL     1      18.612   2.306  49.335  1.00  0.00    -0.136 SA
HETATM    6  C5  UNL     1      17.884   1.010  50.365  1.00  0.00     0.045 C 
HETATM    7  C4  UNL     1      18.416   0.176  51.272  1.00  0.00     0.007 C 
HETATM    8  C3  UNL     1      19.817   0.103  51.683  1.00  0.00     0.003 C 
HETATM    9  C2  UNL     1      20.943   0.494  51.113  1.00  0.00    -0.083 C 
HETATM   10  C1  UNL     1      22.159   0.206  51.917  1.00  0.00     0.043 C 
HETATM   11  C25 UNL     1      20.988   1.168  49.770  1.00  0.00     0.050 C 
ENDBRANCH   3   4
BRANCH   3  12
HETATM   12  C8  UNL     1      21.645   3.201  48.001  1.00  0.00     0.285 C 
BRANCH  12  13
HETATM   13  N1  UNL     1      21.520   4.188  46.959  1.00  0.00     0.080 N 
HETATM   14  C9  UNL     1      20.341   4.981  46.986  1.00  0.00     0.309 C 
HETATM   15  C10 UNL     1      21.875   3.668  45.657  1.00  0.00     0.309 C 
ENDBRANCH  12  13
ENDBRANCH   3  12
ENDBRANCH   1   3
BRANCH   1  16
HETATM   16  C12 UNL     1      23.173   3.614  50.943  1.00  0.00     0.010 A 
HETATM   17  C13 UNL     1      24.269   2.952  50.438  1.00  0.00     0.018 A 
HETATM   18  C14 UNL     1      25.300   2.402  51.165  1.00  0.00     0.037 A 
HETATM   19  C15 UNL     1      25.249   2.514  52.535  1.00  0.00     0.069 A 
HETATM   20  C23 UNL     1      24.165   3.174  53.110  1.00  0.00     0.037 A 
HETATM   21  C24 UNL     1      23.173   3.698  52.316  1.00  0.00     0.018 A 
BRANCH  19  22
HETATM   22  O2  UNL     1      26.204   2.016  53.392  1.00  0.00    -0.347 OA
BRANCH  22  23
HETATM   23  C16 UNL     1      27.580   2.024  53.062  1.00  0.00     0.214 C 
BRANCH  23  24
HETATM   24  C17 UNL     1      28.187   0.685  53.182  1.00  0.00    -0.034 A 
HETATM   25  C18 UNL     1      27.330  -0.338  52.791  1.00  0.00     0.009 A 
HETATM   26  C19 UNL     1      27.744  -1.671  52.842  1.00  0.00     0.001 A 
HETATM   27  C20 UNL     1      29.015  -1.925  53.289  1.00  0.00     0.000 A 
HETATM   28  C21 UNL     1      29.894  -0.925  53.686  1.00  0.00     0.001 A 
HETATM   29  C22 UNL     1      29.462   0.404  53.628  1.00  0.00     0.009 A 
ENDBRANCH  23  24
ENDBRANCH  22  23
ENDBRANCH  19  22
ENDBRANCH   1  16
TORSDOF 8
ENDMDL
MODEL 6
REMARK VINA RESULT:      -8.2      7.203     10.500
REMARK  8 active torsions:
REMARK  status: ('A' for Active; 'I' for Inactive)
REMARK    1  A    between atoms: C6_7  and  C7_8 
REMARK    2  A    between atoms: C7_8  and  C8_9 
REMARK    3  A    between atoms: C7_8  and  C11_13 
REMARK    4  A    between atoms: C8_9  and  N1_10 
REMARK    5  A    between atoms: C11_13  and  C12_15 
REMARK    6  A    between atoms: C15_18  and  O2_19 
REMARK    7  A    between atoms: O2_19  and  C16_20 
REMARK    8  A    between atoms: C16_20  and  C17_21 
ROOT
HETATM    1  C11 UNL     1      28.357   7.178  47.954  1.00  0.00     0.166 C 
HETATM    2  O1  UNL     1      28.147   7.560  46.749  1.00  0.00    -0.292 OA
ENDROOT
BRANCH   1   3
HETATM    3  C7  UNL     1      29.560   7.818  48.535  1.00  0.00     0.103 C 
BRANCH   3   4
HETATM    4  C6  UNL     1      29.565   9.307  48.438  1.00  0.00     0.069 C 
HETATM    5  S1  UNL     1      28.138  10.122  49.209  1.00  0.00    -0.136 SA
HETATM    6  C5  UNL     1      28.308  11.875  48.800  1.00  0.00     0.045 C 
HETATM    7  C4  UNL     1      29.299  12.573  48.226  1.00  0.00     0.007 C 
HETATM    8  C3  UNL     1      30.581  12.053  47.752  1.00  0.00     0.003 C 
HETATM    9  C2  UNL     1      31.269  10.962  48.037  1.00  0.00    -0.083 C 
HETATM   10  C1  UNL     1      32.551  10.846  47.296  1.00  0.00     0.043 C 
HETATM   11  C25 UNL     1      30.795   9.932  49.025  1.00  0.00     0.050 C 
ENDBRANCH   3   4
BRANCH   3  12
HETATM   12  C8  UNL     1      30.810   7.253  47.960  1.00  0.00     0.285 C 
BRANCH  12  13
HETATM   13  N1  UNL     1      31.176   5.968  48.498  1.00  0.00     0.080 N 
HETATM   14  C9  UNL     1      31.880   5.983  49.732  1.00  0.00     0.309 C 
HETATM   15  C10 UNL     1      31.727   5.084  47.494  1.00  0.00     0.309 C 
ENDBRANCH  12  13
ENDBRANCH   3  12
ENDBRANCH   1   3
BRANCH   1  16
HETATM   16  C12 UNL     1      27.423   6.231  48.506  1.00  0.00     0.010 A 
HETATM   17  C13 UNL     1      26.130   6.483  48.902  1.00  0.00     0.018 A 
HETATM   18  C14 UNL     1      25.233   5.569  49.404  1.00  0.00     0.037 A 
HETATM   19  C15 UNL     1      25.653   4.264  49.532  1.00  0.00     0.069 A 
HETATM   20  C23 UNL     1      26.953   3.942  49.148  1.00  0.00     0.037 A 
HETATM   21  C24 UNL     1      27.790   4.913  48.654  1.00  0.00     0.018 A 
BRANCH  19  22
HETATM   22  O2  UNL     1      24.872   3.241  50.017  1.00  0.00    -0.347 OA
BRANCH  22  23
HETATM   23  C16 UNL     1      24.644   3.068  51.403  1.00  0.00     0.214 C 
BRANCH  23  24
HETATM   24  C17 UNL     1      25.174   1.782  51.896  1.00  0.00    -0.034 A 
HETATM   25  C18 UNL     1      24.249   1.064  52.646  1.00  0.00     0.009 A 
HETATM   26  C19 UNL     1      24.585  -0.177  53.191  1.00  0.00     0.001 A 
HETATM   27  C20 UNL     1      25.851  -0.651  52.958  1.00  0.00     0.000 A 
HETATM   28  C21 UNL     1      26.796   0.041  52.213  1.00  0.00     0.001 A 
HETATM   29  C22 UNL     1      26.441   1.284  51.675  1.00  0.00     0.009 A 
ENDBRANCH  23  24
ENDBRANCH  22  23
ENDBRANCH  19  22
ENDBRANCH   1  16
TORSDOF 8
ENDMDL
MODEL 7
REMARK VINA RESULT:      -8.1      4.411     10.510
REMARK  8 active torsions:
REMARK  status: ('A' for Active; 'I' for Inactive)
REMARK    1  A    between atoms: C6_7  and  C7_8 
REMARK    2  A    between atoms: C7_8  and  C8_9 
REMARK    3  A    between atoms: C7_8  and  C11_13 
REMARK    4  A    between atoms: C8_9  and  N1_10 
REMARK    5  A    between atoms: C11_13  and  C12_15 
REMARK    6  A    between atoms: C15_18  and  O2_19 
REMARK    7  A    between atoms: O2_19  and  C16_20 
REMARK    8  A    between atoms: C16_20  and  C17_21 
ROOT
HETATM    1  C11 UNL     1      24.474   2.683  52.027  1.00  0.00     0.166 C 
HETATM    2  O1  UNL     1      23.837   3.293  52.955  1.00  0.00    -0.292 OA
ENDROOT
BRANCH   1   3
HETATM    3  C7  UNL     1      24.401   1.212  52.180  1.00  0.00     0.103 C 
BRANCH   3   4
HETATM    4  C6  UNL     1      23.043   0.702  52.527  1.00  0.00     0.069 C 
HETATM    5  S1  UNL     1      21.786   0.956  51.243  1.00  0.00    -0.136 SA
HETATM    6  C5  UNL     1      20.227   0.413  51.982  1.00  0.00     0.045 C 
HETATM    7  C4  UNL     1      19.949  -0.219  53.132  1.00  0.00     0.007 C 
HETATM    8  C3  UNL     1      20.905  -0.656  54.149  1.00  0.00     0.003 C 
HETATM    9  C2  UNL     1      22.202  -0.902  54.116  1.00  0.00    -0.083 C 
HETATM   10  C1  UNL     1      22.768  -1.335  55.420  1.00  0.00     0.043 C 
HETATM   11  C25 UNL     1      23.030  -0.758  52.869  1.00  0.00     0.050 C 
ENDBRANCH   3   4
BRANCH   3  12
HETATM   12  C8  UNL     1      25.410   0.714  53.153  1.00  0.00     0.285 C 
BRANCH  12  13
HETATM   13  N1  UNL     1      26.637   0.261  52.548  1.00  0.00     0.080 N 
HETATM   14  C9  UNL     1      26.856  -1.143  52.552  1.00  0.00     0.309 C 
HETATM   15  C10 UNL     1      27.778   1.057  52.946  1.00  0.00     0.309 C 
ENDBRANCH  12  13
ENDBRANCH   3  12
ENDBRANCH   1   3
BRANCH   1  16
HETATM   16  C12 UNL     1      25.124   3.505  51.039  1.00  0.00     0.010 A 
HETATM   17  C13 UNL     1      26.234   3.178  50.295  1.00  0.00     0.018 A 
HETATM   18  C14 UNL     1      26.835   3.957  49.333  1.00  0.00     0.037 A 
HETATM   19  C15 UNL     1      26.285   5.192  49.074  1.00  0.00     0.069 A 
HETATM   20  C23 UNL     1      25.158   5.584  49.794  1.00  0.00     0.037 A 
HETATM   21  C24 UNL     1      24.615   4.748  50.740  1.00  0.00     0.018 A 
BRANCH  19  22
HETATM   22  O2  UNL     1      26.773   6.080  48.143  1.00  0.00    -0.347 OA
BRANCH  22  23
HETATM   23  C16 UNL     1      27.476   7.248  48.522  1.00  0.00     0.214 C 
BRANCH  23  24
HETATM   24  C17 UNL     1      28.936   7.089  48.374  1.00  0.00    -0.034 A 
HETATM   25  C18 UNL     1      29.648   8.215  48.773  1.00  0.00     0.009 A 
HETATM   26  C19 UNL     1      31.043   8.236  48.698  1.00  0.00     0.001 A 
HETATM   27  C20 UNL     1      31.671   7.115  48.220  1.00  0.00     0.000 A 
HETATM   28  C21 UNL     1      30.987   5.977  47.814  1.00  0.00     0.001 A 
HETATM   29  C22 UNL     1      29.590   5.974  47.896  1.00  0.00     0.009 A 
ENDBRANCH  23  24
ENDBRANCH  22  23
ENDBRANCH  19  22
ENDBRANCH   1  16
TORSDOF 8
ENDMDL
MODEL 8
REMARK VINA RESULT:      -8.1      3.464      8.866
REMARK  8 active torsions:
REMARK  status: ('A' for Active; 'I' for Inactive)
REMARK    1  A    between atoms: C6_7  and  C7_8 
REMARK    2  A    between atoms: C7_8  and  C8_9 
REMARK    3  A    between atoms: C7_8  and  C11_13 
REMARK    4  A    between atoms: C8_9  and  N1_10 
REMARK    5  A    between atoms: C11_13  and  C12_15 
REMARK    6  A    between atoms: C15_18  and  O2_19 
REMARK    7  A    between atoms: O2_19  and  C16_20 
REMARK    8  A    between atoms: C16_20  and  C17_21 
ROOT
HETATM    1  C11 UNL     1      21.231   1.205  50.392  1.00  0.00     0.166 C 
HETATM    2  O1  UNL     1      21.368   0.583  49.280  1.00  0.00    -0.292 OA
ENDROOT
BRANCH   1   3
HETATM    3  C7  UNL     1      19.974   1.987  50.436  1.00  0.00     0.103 C 
BRANCH   3   4
HETATM    4  C6  UNL     1      20.168   3.460  50.295  1.00  0.00     0.069 C 
HETATM    5  S1  UNL     1      18.860   4.313  49.371  1.00  0.00    -0.136 SA
HETATM    6  C5  UNL     1      19.426   6.023  49.204  1.00  0.00     0.045 C 
HETATM    7  C4  UNL     1      20.460   6.684  49.744  1.00  0.00     0.007 C 
HETATM    8  C3  UNL     1      21.461   6.150  50.666  1.00  0.00     0.003 C 
HETATM    9  C2  UNL     1      21.470   5.107  51.477  1.00  0.00    -0.083 C 
HETATM   10  C1  UNL     1      22.733   4.949  52.244  1.00  0.00     0.043 C 
HETATM   11  C25 UNL     1      20.305   4.166  51.611  1.00  0.00     0.050 C 
ENDBRANCH   3   4
BRANCH   3  12
HETATM   12  C8  UNL     1      19.182   1.680  51.657  1.00  0.00     0.285 C 
BRANCH  12  13
HETATM   13  N1  UNL     1      18.158   0.685  51.458  1.00  0.00     0.080 N 
HETATM   14  C9  UNL     1      18.376  -0.571  52.086  1.00  0.00     0.309 C 
HETATM   15  C10 UNL     1      17.718   0.610  50.083  1.00  0.00     0.309 C 
ENDBRANCH  12  13
ENDBRANCH   3  12
ENDBRANCH   1   3
BRANCH   1  16
HETATM   16  C12 UNL     1      22.282   1.038  51.362  1.00  0.00     0.010 A 
HETATM   17  C13 UNL     1      22.252   0.237  52.480  1.00  0.00     0.018 A 
HETATM   18  C14 UNL     1      23.269   0.061  53.390  1.00  0.00     0.037 A 
HETATM   19  C15 UNL     1      24.443   0.747  53.178  1.00  0.00     0.069 A 
HETATM   20  C23 UNL     1      24.538   1.577  52.063  1.00  0.00     0.037 A 
HETATM   21  C24 UNL     1      23.477   1.700  51.198  1.00  0.00     0.018 A 
BRANCH  19  22
HETATM   22  O2  UNL     1      25.546   0.673  53.998  1.00  0.00    -0.347 OA
BRANCH  22  23
HETATM   23  C16 UNL     1      26.847   0.977  53.530  1.00  0.00     0.214 C 
BRANCH  23  24
HETATM   24  C17 UNL     1      27.680  -0.232  53.386  1.00  0.00    -0.034 A 
HETATM   25  C18 UNL     1      29.004  -0.027  53.761  1.00  0.00     0.009 A 
HETATM   26  C19 UNL     1      29.933  -1.067  53.687  1.00  0.00     0.001 A 
HETATM   27  C20 UNL     1      29.490  -2.284  53.235  1.00  0.00     0.000 A 
HETATM   28  C21 UNL     1      28.175  -2.520  52.855  1.00  0.00     0.001 A 
HETATM   29  C22 UNL     1      27.258  -1.465  52.935  1.00  0.00     0.009 A 
ENDBRANCH  23  24
ENDBRANCH  22  23
ENDBRANCH  19  22
ENDBRANCH   1  16
TORSDOF 8
ENDMDL
MODEL 9
REMARK VINA RESULT:      -8.0      4.858      7.997
REMARK  8 active torsions:
REMARK  status: ('A' for Active; 'I' for Inactive)
REMARK    1  A    between atoms: C6_7  and  C7_8 
REMARK    2  A    between atoms: C7_8  and  C8_9 
REMARK    3  A    between atoms: C7_8  and  C11_13 
REMARK    4  A    between atoms: C8_9  and  N1_10 
REMARK    5  A    between atoms: C11_13  and  C12_15 
REMARK    6  A    between atoms: C15_18  and  O2_19 
REMARK    7  A    between atoms: O2_19  and  C16_20 
REMARK    8  A    between atoms: C16_20  and  C17_21 
ROOT
HETATM    1  C11 UNL     1      22.493   4.793  50.842  1.00  0.00     0.166 C 
HETATM    2  O1  UNL     1      21.934   5.638  51.626  1.00  0.00    -0.292 OA
ENDROOT
BRANCH   1   3
HETATM    3  C7  UNL     1      22.635   5.325  49.467  1.00  0.00     0.103 C 
BRANCH   3   4
HETATM    4  C6  UNL     1      24.033   5.684  49.094  1.00  0.00     0.069 C 
HETATM    5  S1  UNL     1      24.259   7.404  48.560  1.00  0.00    -0.136 SA
HETATM    6  C5  UNL     1      25.978   7.516  48.011  1.00  0.00     0.045 C 
HETATM    7  C4  UNL     1      27.006   6.659  48.095  1.00  0.00     0.007 C 
HETATM    8  C3  UNL     1      26.992   5.324  48.690  1.00  0.00     0.003 C 
HETATM    9  C2  UNL     1      26.199   4.741  49.571  1.00  0.00    -0.083 C 
HETATM   10  C1  UNL     1      26.575   3.339  49.890  1.00  0.00     0.043 C 
HETATM   11  C25 UNL     1      25.021   5.436  50.196  1.00  0.00     0.050 C 
ENDBRANCH   3   4
BRANCH   3  12
HETATM   12  C8  UNL     1      21.719   6.472  49.229  1.00  0.00     0.285 C 
BRANCH  12  13
HETATM   13  N1  UNL     1      20.588   6.158  48.392  1.00  0.00     0.080 N 
HETATM   14  C9  UNL     1      20.747   6.416  47.004  1.00  0.00     0.309 C 
HETATM   15  C10 UNL     1      19.337   6.614  48.957  1.00  0.00     0.309 C 
ENDBRANCH  12  13
ENDBRANCH   3  12
ENDBRANCH   1   3
BRANCH   1  16
HETATM   16  C12 UNL     1      22.869   3.527  51.416  1.00  0.00     0.010 A 
HETATM   17  C13 UNL     1      23.651   3.325  52.529  1.00  0.00     0.018 A 
HETATM   18  C14 UNL     1      23.985   2.113  53.088  1.00  0.00     0.037 A 
HETATM   19  C15 UNL     1      23.498   0.975  52.487  1.00  0.00     0.069 A 
HETATM   20  C23 UNL     1      22.698   1.110  51.354  1.00  0.00     0.037 A 
HETATM   21  C24 UNL     1      22.408   2.357  50.855  1.00  0.00     0.018 A 
BRANCH  19  22
HETATM   22  O2  UNL     1      23.745  -0.304  52.930  1.00  0.00    -0.347 OA
BRANCH  22  23
HETATM   23  C16 UNL     1      24.353  -0.556  54.183  1.00  0.00     0.214 C 
BRANCH  23  24
HETATM   24  C17 UNL     1      25.824  -0.476  54.112  1.00  0.00    -0.034 A 
HETATM   25  C18 UNL     1      26.359  -1.211  53.059  1.00  0.00     0.009 A 
HETATM   26  C19 UNL     1      27.738  -1.247  52.846  1.00  0.00     0.001 A 
HETATM   27  C20 UNL     1      28.534  -0.536  53.708  1.00  0.00     0.000 A 
HETATM   28  C21 UNL     1      28.030   0.207  54.767  1.00  0.00     0.001 A 
HETATM   29  C22 UNL     1      26.645   0.231  54.966  1.00  0.00     0.009 A 
ENDBRANCH  23  24
ENDBRANCH  22  23
ENDBRANCH  19  22
ENDBRANCH   1  16
TORSDOF 8
ENDMDL
