MODEL 1
REMARK VINA RESULT:      -7.0      0.000      0.000
REMARK  6 active torsions:
REMARK  status: ('A' for Active; 'I' for Inactive)
REMARK    1  A    between atoms: O1_2  and  C2_3 
REMARK    2  A    between atoms: C2_3  and  C3_4 
REMARK    3  A    between atoms: C3_4  and  O2_5 
REMARK    4  A    between atoms: O2_5  and  C4_6 
REMARK    5  A    between atoms: C6_9  and  C7_10 
REMARK    6  A    between atoms: C7_10  and  O4_11 
ROOT
HETATM    1  C4  UNL     1      27.080   2.121  52.345  1.00  0.00     0.092 C 
HETATM    2  C5  UNL     1      28.075   2.072  53.249  1.00  0.00     0.172 C 
HETATM    3  O3  UNL     1      28.068   1.311  54.409  1.00  0.00    -0.350 OA
HETATM    4  C6  UNL     1      27.465  -0.034  54.553  1.00  0.00     0.187 C 
HETATM    5  C9  UNL     1      26.021   0.247  54.725  1.00  0.00     0.214 A 
HETATM    6  O5  UNL     1      25.251  -0.640  55.463  1.00  0.00    -0.319 OA
HETATM    7  C10 UNL     1      23.995  -1.121  55.111  1.00  0.00     0.175 A 
HETATM    8  N1  UNL     1      23.311  -1.918  55.874  1.00  0.00    -0.277 NA
HETATM    9  C11 UNL     1      23.450  -0.698  53.836  1.00  0.00     0.174 A 
HETATM   10  N2  UNL     1      24.142   0.089  53.108  1.00  0.00    -0.258 NA
HETATM   11  C12 UNL     1      25.413   0.612  53.418  1.00  0.00     0.069 A 
HETATM   12  C13 UNL     1      25.798   1.380  52.413  1.00  0.00     0.068 C 
HETATM   13  H16 UNL     1      23.706  -2.222  56.795  1.00  0.00     0.189 HD
ENDROOT
BRANCH   1  14
HETATM   14  O2  UNL     1      27.189   2.914  51.219  1.00  0.00    -0.347 OA
BRANCH  14  15
HETATM   15  C3  UNL     1      26.330   2.932  50.124  1.00  0.00     0.201 C 
BRANCH  15  16
HETATM   16  C2  UNL     1      26.556   4.265  49.403  1.00  0.00     0.193 C 
BRANCH  16  17
HETATM   17  O1  UNL     1      27.777   4.297  48.774  1.00  0.00    -0.394 OA
HETATM   18  C1  UNL     1      28.133   5.583  48.362  1.00  0.00     0.201 C 
ENDBRANCH  16  17
ENDBRANCH  15  16
ENDBRANCH  14  15
ENDBRANCH   1  14
BRANCH   4  19
HETATM   19  C7  UNL     1      27.915  -0.848  53.399  1.00  0.00     0.202 C 
BRANCH  19  20
HETATM   20  O4  UNL     1      28.963  -1.664  53.432  1.00  0.00    -0.393 OA
HETATM   21  C8  UNL     1      30.219  -1.327  53.734  1.00  0.00     0.201 C 
ENDBRANCH  19  20
ENDBRANCH   4  19
TORSDOF 6
ENDMDL
MODEL 2
REMARK VINA RESULT:      -6.6      2.719      6.048
REMARK  6 active torsions:
REMARK  status: ('A' for Active; 'I' for Inactive)
REMARK    1  A    between atoms: O1_2  and  C2_3 
REMARK    2  A    between atoms: C2_3  and  C3_4 
REMARK    3  A    between atoms: C3_4  and  O2_5 
REMARK    4  A    between atoms: O2_5  and  C4_6 
REMARK    5  A    between atoms: C6_9  and  C7_10 
REMARK    6  A    between atoms: C7_10  and  O4_11 
ROOT
HETATM    1  C4  UNL     1      23.830   0.041  53.498  1.00  0.00     0.092 C 
HETATM    2  C5  UNL     1      23.383   1.270  53.179  1.00  0.00     0.172 C 
HETATM    3  O3  UNL     1      24.155   2.422  53.155  1.00  0.00    -0.350 OA
HETATM    4  C6  UNL     1      25.573   2.500  52.738  1.00  0.00     0.187 C 
HETATM    5  C9  UNL     1      26.315   2.025  53.929  1.00  0.00     0.214 A 
HETATM    6  O5  UNL     1      27.597   2.505  54.153  1.00  0.00    -0.319 OA
HETATM    7  C10 UNL     1      28.701   1.745  54.521  1.00  0.00     0.175 A 
HETATM    8  N1  UNL     1      29.866   2.268  54.757  1.00  0.00    -0.277 NA
HETATM    9  C11 UNL     1      28.517   0.312  54.641  1.00  0.00     0.174 A 
HETATM   10  N2  UNL     1      27.361  -0.176  54.408  1.00  0.00    -0.258 NA
HETATM   11  C12 UNL     1      26.208   0.546  54.040  1.00  0.00     0.069 A 
HETATM   12  C13 UNL     1      25.216  -0.314  53.884  1.00  0.00     0.068 C 
HETATM   13  H16 UNL     1      29.997   3.303  54.670  1.00  0.00     0.189 HD
ENDROOT
BRANCH   1  14
HETATM   14  O2  UNL     1      22.974  -1.043  53.491  1.00  0.00    -0.347 OA
BRANCH  14  15
HETATM   15  C3  UNL     1      22.194  -1.498  54.550  1.00  0.00     0.201 C 
BRANCH  15  16
HETATM   16  C2  UNL     1      20.736  -1.462  54.076  1.00  0.00     0.193 C 
BRANCH  16  17
HETATM   17  O1  UNL     1      20.266  -0.175  53.991  1.00  0.00    -0.394 OA
HETATM   18  C1  UNL     1      19.723   0.115  52.737  1.00  0.00     0.201 C 
ENDBRANCH  16  17
ENDBRANCH  15  16
ENDBRANCH  14  15
ENDBRANCH   1  14
BRANCH   4  19
HETATM   19  C7  UNL     1      25.702   1.761  51.459  1.00  0.00     0.202 C 
BRANCH  19  20
HETATM   20  O4  UNL     1      26.479   2.149  50.454  1.00  0.00    -0.393 OA
HETATM   21  C8  UNL     1      26.537   3.375  49.927  1.00  0.00     0.201 C 
ENDBRANCH  19  20
ENDBRANCH   4  19
TORSDOF 6
ENDMDL
MODEL 3
REMARK VINA RESULT:      -6.4      2.357      5.757
REMARK  6 active torsions:
REMARK  status: ('A' for Active; 'I' for Inactive)
REMARK    1  A    between atoms: O1_2  and  C2_3 
REMARK    2  A    between atoms: C2_3  and  C3_4 
REMARK    3  A    between atoms: C3_4  and  O2_5 
REMARK    4  A    between atoms: O2_5  and  C4_6 
REMARK    5  A    between atoms: C6_9  and  C7_10 
REMARK    6  A    between atoms: C7_10  and  O4_11 
ROOT
HETATM    1  C4  UNL     1      24.170   0.816  52.970  1.00  0.00     0.092 C 
HETATM    2  C5  UNL     1      24.465   2.091  53.281  1.00  0.00     0.172 C 
HETATM    3  O3  UNL     1      25.729   2.570  53.590  1.00  0.00    -0.350 OA
HETATM    4  C6  UNL     1      26.997   2.109  52.980  1.00  0.00     0.187 C 
HETATM    5  C9  UNL     1      27.295   0.849  53.701  1.00  0.00     0.214 A 
HETATM    6  O5  UNL     1      28.618   0.464  53.854  1.00  0.00    -0.319 OA
HETATM    7  C10 UNL     1      29.125  -0.816  53.654  1.00  0.00     0.175 A 
HETATM    8  N1  UNL     1      30.372  -1.116  53.858  1.00  0.00    -0.277 NA
HETATM    9  C11 UNL     1      28.202  -1.838  53.201  1.00  0.00     0.174 A 
HETATM   10  N2  UNL     1      26.981  -1.517  53.013  1.00  0.00    -0.258 NA
HETATM   11  C12 UNL     1      26.414  -0.242  53.206  1.00  0.00     0.069 A 
HETATM   12  C13 UNL     1      25.129  -0.313  52.900  1.00  0.00     0.068 C 
HETATM   13  H16 UNL     1      31.036  -0.376  54.186  1.00  0.00     0.189 HD
ENDROOT
BRANCH   1  14
HETATM   14  O2  UNL     1      22.873   0.443  52.677  1.00  0.00    -0.347 OA
BRANCH  14  15
HETATM   15  C3  UNL     1      22.283  -0.793  52.925  1.00  0.00     0.201 C 
BRANCH  15  16
HETATM   16  C2  UNL     1      21.374  -0.615  54.146  1.00  0.00     0.193 C 
BRANCH  16  17
HETATM   17  O1  UNL     1      21.652  -1.541  55.121  1.00  0.00    -0.394 OA
HETATM   18  C1  UNL     1      22.986  -1.502  55.532  1.00  0.00     0.201 C 
ENDBRANCH  16  17
ENDBRANCH  15  16
ENDBRANCH  14  15
ENDBRANCH   1  14
BRANCH   4  19
HETATM   19  C7  UNL     1      26.798   2.077  51.512  1.00  0.00     0.202 C 
BRANCH  19  20
HETATM   20  O4  UNL     1      26.986   3.124  50.716  1.00  0.00    -0.393 OA
HETATM   21  C8  UNL     1      26.054   3.740  49.985  1.00  0.00     0.201 C 
ENDBRANCH  19  20
ENDBRANCH   4  19
TORSDOF 6
ENDMDL
MODEL 4
REMARK VINA RESULT:      -6.3      2.698      5.062
REMARK  6 active torsions:
REMARK  status: ('A' for Active; 'I' for Inactive)
REMARK    1  A    between atoms: O1_2  and  C2_3 
REMARK    2  A    between atoms: C2_3  and  C3_4 
REMARK    3  A    between atoms: C3_4  and  O2_5 
REMARK    4  A    between atoms: O2_5  and  C4_6 
REMARK    5  A    between atoms: C6_9  and  C7_10 
REMARK    6  A    between atoms: C7_10  and  O4_11 
ROOT
HETATM    1  C4  UNL     1      25.741  -0.168  53.459  1.00  0.00     0.092 C 
HETATM    2  C5  UNL     1      25.808   0.516  52.301  1.00  0.00     0.172 C 
HETATM    3  O3  UNL     1      24.719   0.932  51.551  1.00  0.00    -0.350 OA
HETATM    4  C6  UNL     1      23.423   1.394  52.098  1.00  0.00     0.187 C 
HETATM    5  C9  UNL     1      22.715   0.136  52.432  1.00  0.00     0.214 A 
HETATM    6  O5  UNL     1      21.329   0.116  52.386  1.00  0.00    -0.319 OA
HETATM    7  C10 UNL     1      20.488  -0.444  53.342  1.00  0.00     0.175 A 
HETATM    8  N1  UNL     1      19.196  -0.464  53.213  1.00  0.00    -0.277 NA
HETATM    9  C11 UNL     1      21.105  -1.022  54.519  1.00  0.00     0.174 A 
HETATM   10  N2  UNL     1      22.377  -0.993  54.619  1.00  0.00    -0.258 NA
HETATM   11  C12 UNL     1      23.275  -0.447  53.680  1.00  0.00     0.069 A 
HETATM   12  C13 UNL     1      24.502  -0.605  54.146  1.00  0.00     0.068 C 
HETATM   13  H16 UNL     1      18.753  -0.045  52.361  1.00  0.00     0.189 HD
ENDROOT
BRANCH   1  14
HETATM   14  O2  UNL     1      26.891  -0.535  54.129  1.00  0.00    -0.347 OA
BRANCH  14  15
HETATM   15  C3  UNL     1      28.194  -0.480  53.642  1.00  0.00     0.201 C 
BRANCH  15  16
HETATM   16  C2  UNL     1      29.002   0.374  54.626  1.00  0.00     0.193 C 
BRANCH  16  17
HETATM   17  O1  UNL     1      28.474   1.635  54.750  1.00  0.00    -0.394 OA
HETATM   18  C1  UNL     1      28.736   2.437  53.637  1.00  0.00     0.201 C 
ENDBRANCH  16  17
ENDBRANCH  15  16
ENDBRANCH  14  15
ENDBRANCH   1  14
BRANCH   4  19
HETATM   19  C7  UNL     1      23.717   2.371  53.173  1.00  0.00     0.202 C 
BRANCH  19  20
HETATM   20  O4  UNL     1      24.132   3.613  52.952  1.00  0.00    -0.393 OA
HETATM   21  C8  UNL     1      23.362   4.661  52.646  1.00  0.00     0.201 C 
ENDBRANCH  19  20
ENDBRANCH   4  19
TORSDOF 6
ENDMDL
MODEL 5
REMARK VINA RESULT:      -6.0      2.462      5.294
REMARK  6 active torsions:
REMARK  status: ('A' for Active; 'I' for Inactive)
REMARK    1  A    between atoms: O1_2  and  C2_3 
REMARK    2  A    between atoms: C2_3  and  C3_4 
REMARK    3  A    between atoms: C3_4  and  O2_5 
REMARK    4  A    between atoms: O2_5  and  C4_6 
REMARK    5  A    between atoms: C6_9  and  C7_10 
REMARK    6  A    between atoms: C7_10  and  O4_11 
ROOT
HETATM    1  C4  UNL     1      26.692   2.128  51.928  1.00  0.00     0.092 C 
HETATM    2  C5  UNL     1      26.378   2.844  50.833  1.00  0.00     0.172 C 
HETATM    3  O3  UNL     1      25.113   2.939  50.272  1.00  0.00    -0.350 OA
HETATM    4  C6  UNL     1      23.838   2.965  51.024  1.00  0.00     0.187 C 
HETATM    5  C9  UNL     1      23.591   1.540  51.345  1.00  0.00     0.214 A 
HETATM    6  O5  UNL     1      22.282   1.104  51.485  1.00  0.00    -0.319 OA
HETATM    7  C10 UNL     1      21.799   0.280  52.495  1.00  0.00     0.175 A 
HETATM    8  N1  UNL     1      20.566  -0.126  52.540  1.00  0.00    -0.277 NA
HETATM    9  C11 UNL     1      22.730  -0.130  53.528  1.00  0.00     0.174 A 
HETATM   10  N2  UNL     1      23.937   0.279  53.458  1.00  0.00    -0.258 NA
HETATM   11  C12 UNL     1      24.481   1.107  52.455  1.00  0.00     0.069 A 
HETATM   12  C13 UNL     1      25.757   1.310  52.738  1.00  0.00     0.068 C 
HETATM   13  H16 UNL     1      19.895   0.172  51.793  1.00  0.00     0.189 HD
ENDROOT
BRANCH   1  14
HETATM   14  O2  UNL     1      27.988   2.101  52.406  1.00  0.00    -0.347 OA
BRANCH  14  15
HETATM   15  C3  UNL     1      28.397   2.300  53.721  1.00  0.00     0.201 C 
BRANCH  15  16
HETATM   16  C2  UNL     1      29.326   1.135  54.079  1.00  0.00     0.193 C 
BRANCH  16  17
HETATM   17  O1  UNL     1      28.618  -0.013  54.338  1.00  0.00    -0.394 OA
HETATM   18  C1  UNL     1      29.060  -1.097  53.577  1.00  0.00     0.201 C 
ENDBRANCH  16  17
ENDBRANCH  15  16
ENDBRANCH  14  15
ENDBRANCH   1  14
BRANCH   4  19
HETATM   19  C7  UNL     1      23.993   3.944  52.127  1.00  0.00     0.202 C 
BRANCH  19  20
HETATM   20  O4  UNL     1      23.518   5.184  52.089  1.00  0.00    -0.393 OA
HETATM   21  C8  UNL     1      23.948   6.172  51.300  1.00  0.00     0.201 C 
ENDBRANCH  19  20
ENDBRANCH   4  19
TORSDOF 6
ENDMDL
MODEL 6
REMARK VINA RESULT:      -5.9      3.149      6.542
REMARK  6 active torsions:
REMARK  status: ('A' for Active; 'I' for Inactive)
REMARK    1  A    between atoms: O1_2  and  C2_3 
REMARK    2  A    between atoms: C2_3  and  C3_4 
REMARK    3  A    between atoms: C3_4  and  O2_5 
REMARK    4  A    between atoms: O2_5  and  C4_6 
REMARK    5  A    between atoms: C6_9  and  C7_10 
REMARK    6  A    between atoms: C7_10  and  O4_11 
ROOT
HETATM    1  C4  UNL     1      25.324   0.857  52.556  1.00  0.00     0.092 C 
HETATM    2  C5  UNL     1      24.165   1.276  53.097  1.00  0.00     0.172 C 
HETATM    3  O3  UNL     1      23.496   2.442  52.757  1.00  0.00    -0.350 OA
HETATM    4  C6  UNL     1      23.422   3.028  51.399  1.00  0.00     0.187 C 
HETATM    5  C9  UNL     1      24.721   3.725  51.248  1.00  0.00     0.214 A 
HETATM    6  O5  UNL     1      24.787   4.841  50.427  1.00  0.00    -0.319 OA
HETATM    7  C10 UNL     1      25.781   5.109  49.492  1.00  0.00     0.175 A 
HETATM    8  N1  UNL     1      25.803   6.199  48.786  1.00  0.00    -0.277 NA
HETATM    9  C11 UNL     1      26.822   4.115  49.317  1.00  0.00     0.174 A 
HETATM   10  N2  UNL     1      26.778   3.056  50.027  1.00  0.00    -0.258 NA
HETATM   11  C12 UNL     1      25.802   2.737  50.992  1.00  0.00     0.069 A 
HETATM   12  C13 UNL     1      26.101   1.555  51.504  1.00  0.00     0.068 C 
HETATM   13  H16 UNL     1      25.050   6.915  48.913  1.00  0.00     0.189 HD
ENDROOT
BRANCH   1  14
HETATM   14  O2  UNL     1      25.907  -0.325  52.967  1.00  0.00    -0.347 OA
BRANCH  14  15
HETATM   15  C3  UNL     1      27.210  -0.497  53.426  1.00  0.00     0.201 C 
BRANCH  15  16
HETATM   16  C2  UNL     1      27.285   0.159  54.810  1.00  0.00     0.193 C 
BRANCH  16  17
HETATM   17  O1  UNL     1      28.384   0.974  54.922  1.00  0.00    -0.394 OA
HETATM   18  C1  UNL     1      29.286   0.806  53.868  1.00  0.00     0.201 C 
ENDBRANCH  16  17
ENDBRANCH  15  16
ENDBRANCH  14  15
ENDBRANCH   1  14
BRANCH   4  19
HETATM   19  C7  UNL     1      23.070   1.934  50.463  1.00  0.00     0.202 C 
BRANCH  19  20
HETATM   20  O4  UNL     1      22.302   2.096  49.391  1.00  0.00    -0.393 OA
HETATM   21  C8  UNL     1      22.704   2.499  48.183  1.00  0.00     0.201 C 
ENDBRANCH  19  20
ENDBRANCH   4  19
TORSDOF 6
ENDMDL
MODEL 7
REMARK VINA RESULT:      -5.8      3.880      6.757
REMARK  6 active torsions:
REMARK  status: ('A' for Active; 'I' for Inactive)
REMARK    1  A    between atoms: O1_2  and  C2_3 
REMARK    2  A    between atoms: C2_3  and  C3_4 
REMARK    3  A    between atoms: C3_4  and  O2_5 
REMARK    4  A    between atoms: O2_5  and  C4_6 
REMARK    5  A    between atoms: C6_9  and  C7_10 
REMARK    6  A    between atoms: C7_10  and  O4_11 
ROOT
HETATM    1  C4  UNL     1      23.779   0.575  52.856  1.00  0.00     0.092 C 
HETATM    2  C5  UNL     1      22.529   0.079  52.864  1.00  0.00     0.172 C 
HETATM    3  O3  UNL     1      21.380   0.796  52.563  1.00  0.00    -0.350 OA
HETATM    4  C6  UNL     1      21.274   1.864  51.543  1.00  0.00     0.187 C 
HETATM    5  C9  UNL     1      21.841   3.053  52.222  1.00  0.00     0.214 A 
HETATM    6  O5  UNL     1      21.383   4.311  51.858  1.00  0.00    -0.319 OA
HETATM    7  C10 UNL     1      22.173   5.431  51.622  1.00  0.00     0.175 A 
HETATM    8  N1  UNL     1      21.672   6.592  51.326  1.00  0.00    -0.277 NA
HETATM    9  C11 UNL     1      23.610   5.268  51.716  1.00  0.00     0.174 A 
HETATM   10  N2  UNL     1      24.076   4.117  52.012  1.00  0.00    -0.258 NA
HETATM   11  C12 UNL     1      23.324   2.953  52.269  1.00  0.00     0.069 A 
HETATM   12  C13 UNL     1      24.167   1.969  52.532  1.00  0.00     0.068 C 
HETATM   13  H16 UNL     1      20.633   6.707  51.259  1.00  0.00     0.189 HD
ENDROOT
BRANCH   1  14
HETATM   14  O2  UNL     1      24.858  -0.227  53.172  1.00  0.00    -0.347 OA
BRANCH  14  15
HETATM   15  C3  UNL     1      25.213  -0.689  54.436  1.00  0.00     0.201 C 
BRANCH  15  16
HETATM   16  C2  UNL     1      26.394   0.167  54.908  1.00  0.00     0.193 C 
BRANCH  16  17
HETATM   17  O1  UNL     1      27.579  -0.523  54.829  1.00  0.00    -0.394 OA
HETATM   18  C1  UNL     1      28.690   0.323  54.793  1.00  0.00     0.201 C 
ENDBRANCH  16  17
ENDBRANCH  15  16
ENDBRANCH  14  15
ENDBRANCH   1  14
BRANCH   4  19
HETATM   19  C7  UNL     1      21.912   1.360  50.304  1.00  0.00     0.202 C 
BRANCH  19  20
HETATM   20  O4  UNL     1      21.924   2.026  49.154  1.00  0.00    -0.393 OA
HETATM   21  C8  UNL     1      22.957   2.701  48.642  1.00  0.00     0.201 C 
ENDBRANCH  19  20
ENDBRANCH   4  19
TORSDOF 6
ENDMDL
MODEL 8
REMARK VINA RESULT:      -5.7      2.378      4.507
REMARK  6 active torsions:
REMARK  status: ('A' for Active; 'I' for Inactive)
REMARK    1  A    between atoms: O1_2  and  C2_3 
REMARK    2  A    between atoms: C2_3  and  C3_4 
REMARK    3  A    between atoms: C3_4  and  O2_5 
REMARK    4  A    between atoms: O2_5  and  C4_6 
REMARK    5  A    between atoms: C6_9  and  C7_10 
REMARK    6  A    between atoms: C7_10  and  O4_11 
ROOT
HETATM    1  C4  UNL     1      26.018   3.328  49.877  1.00  0.00     0.092 C 
HETATM    2  C5  UNL     1      24.703   3.248  49.601  1.00  0.00     0.172 C 
HETATM    3  O3  UNL     1      23.781   2.488  50.305  1.00  0.00    -0.350 OA
HETATM    4  C6  UNL     1      23.797   2.252  51.767  1.00  0.00     0.187 C 
HETATM    5  C9  UNL     1      24.811   1.185  51.937  1.00  0.00     0.214 A 
HETATM    6  O5  UNL     1      24.682   0.306  53.003  1.00  0.00    -0.319 OA
HETATM    7  C10 UNL     1      25.704  -0.104  53.851  1.00  0.00     0.175 A 
HETATM    8  N1  UNL     1      25.520  -0.966  54.805  1.00  0.00    -0.277 NA
HETATM    9  C11 UNL     1      27.019   0.468  53.641  1.00  0.00     0.174 A 
HETATM   10  N2  UNL     1      27.174   1.310  52.694  1.00  0.00    -0.258 NA
HETATM   11  C12 UNL     1      26.177   1.754  51.801  1.00  0.00     0.069 A 
HETATM   12  C13 UNL     1      26.727   2.625  50.972  1.00  0.00     0.068 C 
HETATM   13  H16 UNL     1      24.570  -1.379  54.956  1.00  0.00     0.189 HD
ENDROOT
BRANCH   1  14
HETATM   14  O2  UNL     1      26.852   4.118  49.110  1.00  0.00    -0.347 OA
BRANCH  14  15
HETATM   15  C3  UNL     1      26.695   5.473  48.831  1.00  0.00     0.201 C 
BRANCH  15  16
HETATM   16  C2  UNL     1      28.031   5.968  48.265  1.00  0.00     0.193 C 
BRANCH  16  17
HETATM   17  O1  UNL     1      29.053   5.099  48.553  1.00  0.00    -0.394 OA
HETATM   18  C1  UNL     1      30.276   5.514  48.020  1.00  0.00     0.201 C 
ENDBRANCH  16  17
ENDBRANCH  15  16
ENDBRANCH  14  15
ENDBRANCH   1  14
BRANCH   4  19
HETATM   19  C7  UNL     1      24.003   3.563  52.427  1.00  0.00     0.202 C 
BRANCH  19  20
HETATM   20  O4  UNL     1      23.372   4.677  52.073  1.00  0.00    -0.393 OA
HETATM   21  C8  UNL     1      22.068   4.929  52.220  1.00  0.00     0.201 C 
ENDBRANCH  19  20
ENDBRANCH   4  19
TORSDOF 6
ENDMDL
MODEL 9
REMARK VINA RESULT:      -5.4      3.983      7.611
REMARK  6 active torsions:
REMARK  status: ('A' for Active; 'I' for Inactive)
REMARK    1  A    between atoms: O1_2  and  C2_3 
REMARK    2  A    between atoms: C2_3  and  C3_4 
REMARK    3  A    between atoms: C3_4  and  O2_5 
REMARK    4  A    between atoms: O2_5  and  C4_6 
REMARK    5  A    between atoms: C6_9  and  C7_10 
REMARK    6  A    between atoms: C7_10  and  O4_11 
ROOT
HETATM    1  C4  UNL     1      22.004   2.480  52.402  1.00  0.00     0.092 C 
HETATM    2  C5  UNL     1      21.359   3.634  52.148  1.00  0.00     0.172 C 
HETATM    3  O3  UNL     1      21.886   4.710  51.450  1.00  0.00    -0.350 OA
HETATM    4  C6  UNL     1      22.805   4.620  50.293  1.00  0.00     0.187 C 
HETATM    5  C9  UNL     1      24.127   4.373  50.915  1.00  0.00     0.214 A 
HETATM    6  O5  UNL     1      25.266   4.819  50.262  1.00  0.00    -0.319 OA
HETATM    7  C10 UNL     1      26.441   4.097  50.082  1.00  0.00     0.175 A 
HETATM    8  N1  UNL     1      27.487   4.595  49.496  1.00  0.00    -0.277 NA
HETATM    9  C11 UNL     1      26.472   2.736  50.579  1.00  0.00     0.174 A 
HETATM   10  N2  UNL     1      25.432   2.273  51.154  1.00  0.00    -0.258 NA
HETATM   11  C12 UNL     1      24.221   2.960  51.370  1.00  0.00     0.069 A 
HETATM   12  C13 UNL     1      23.388   2.142  51.990  1.00  0.00     0.068 C 
HETATM   13  H16 UNL     1      27.463   5.579  49.138  1.00  0.00     0.189 HD
ENDROOT
BRANCH   1  14
HETATM   14  O2  UNL     1      21.386   1.468  53.108  1.00  0.00    -0.347 OA
BRANCH  14  15
HETATM   15  C3  UNL     1      21.929   0.229  53.440  1.00  0.00     0.201 C 
BRANCH  15  16
HETATM   16  C2  UNL     1      21.133  -0.299  54.639  1.00  0.00     0.193 C 
BRANCH  16  17
HETATM   17  O1  UNL     1      21.658  -1.476  55.112  1.00  0.00    -0.394 OA
HETATM   18  C1  UNL     1      23.034  -1.397  55.337  1.00  0.00     0.201 C 
ENDBRANCH  16  17
ENDBRANCH  15  16
ENDBRANCH  14  15
ENDBRANCH   1  14
BRANCH   4  19
HETATM   19  C7  UNL     1      22.244   3.617  49.357  1.00  0.00     0.202 C 
BRANCH  19  20
HETATM   20  O4  UNL     1      22.866   3.197  48.261  1.00  0.00    -0.393 OA
HETATM   21  C8  UNL     1      22.571   2.103  47.553  1.00  0.00     0.201 C 
ENDBRANCH  19  20
ENDBRANCH   4  19
TORSDOF 6
ENDMDL
