MODEL 1
REMARK VINA RESULT:      -8.0      0.000      0.000
REMARK  6 active torsions:
REMARK  status: ('A' for Active; 'I' for Inactive)
REMARK    1  A    between atoms: O1_2  and  C2_3 
REMARK    2  A    between atoms: C5_6  and  C6_7 
REMARK    3  A    between atoms: C6_7  and  N1_8 
REMARK    4  A    between atoms: N1_8  and  C7_9 
REMARK    5  A    between atoms: C10_12  and  O2_13 
REMARK    6  A    between atoms: C12_15  and  O3_16 
ROOT
HETATM    1  C2  UNL     1      26.618  -0.928  52.715  1.00  0.00     0.057 A 
HETATM    2  C3  UNL     1      27.233   0.024  51.955  1.00  0.00     0.042 A 
HETATM    3  C4  UNL     1      26.300   0.983  52.048  1.00  0.00     0.089 A 
HETATM    4  C5  UNL     1      25.362   1.935  52.144  1.00  0.00    -0.043 A 
HETATM    5  C15 UNL     1      24.794   0.940  52.899  1.00  0.00     0.070 A 
HETATM    6  C16 UNL     1      25.608  -0.098  52.910  1.00  0.00     0.053 A 
HETATM    7  C17 UNL     1      25.190  -0.658  54.269  1.00  0.00     0.049 C 
HETATM    8  C18 UNL     1      26.341  -0.101  55.201  1.00  0.00     0.202 C 
HETATM    9  O4  UNL     1      26.295   1.285  54.952  1.00  0.00    -0.279 OA
HETATM   10  N2  UNL     1      27.376   1.556  54.133  1.00  0.00    -0.261 N 
HETATM   11  C19 UNL     1      27.876   2.377  53.027  1.00  0.00     0.225 C 
HETATM   12  N3  UNL     1      27.280   2.066  51.836  1.00  0.00    -0.265 NA
HETATM   13  H22 UNL     1      28.214   0.969  54.317  1.00  0.00     0.195 HD
ENDROOT
BRANCH   4  14
HETATM   14  C6  UNL     1      24.972   3.296  51.729  1.00  0.00     0.153 C 
BRANCH  14  15
HETATM   15  N1  UNL     1      24.853   3.271  50.295  1.00  0.00    -0.386 N 
HETATM   16  H7  UNL     1      24.290   2.576  49.773  1.00  0.00     0.160 HD
BRANCH  15  17
HETATM   17  C7  UNL     1      25.586   4.303  49.658  1.00  0.00     0.031 A 
HETATM   18  C8  UNL     1      26.854   3.924  49.180  1.00  0.00     0.032 A 
HETATM   19  C9  UNL     1      27.626   4.937  48.630  1.00  0.00     0.042 A 
HETATM   20  C10 UNL     1      27.273   6.269  48.510  1.00  0.00     0.101 A 
HETATM   21  C12 UNL     1      26.002   6.627  48.992  1.00  0.00     0.103 A 
HETATM   22  C14 UNL     1      25.208   5.615  49.547  1.00  0.00     0.068 A 
BRANCH  20  23
HETATM   23  O2  UNL     1      28.042   7.267  47.968  1.00  0.00    -0.353 OA
HETATM   24  C11 UNL     1      29.200   7.813  48.510  1.00  0.00     0.210 C 
ENDBRANCH  20  23
BRANCH  21  25
HETATM   25  O3  UNL     1      25.618   7.913  48.895  1.00  0.00    -0.353 OA
HETATM   26  C13 UNL     1      25.569   8.950  49.809  1.00  0.00     0.210 C 
ENDBRANCH  21  25
ENDBRANCH  15  17
ENDBRANCH  14  15
ENDBRANCH   4  14
BRANCH   1  27
HETATM   27  O1  UNL     1      26.981  -2.201  53.074  1.00  0.00    -0.359 OA
HETATM   28  C1  UNL     1      28.306  -2.636  53.049  1.00  0.00     0.209 C 
ENDBRANCH   1  27
TORSDOF 6
ENDMDL
MODEL 2
REMARK VINA RESULT:      -7.7      3.935      5.882
REMARK  6 active torsions:
REMARK  status: ('A' for Active; 'I' for Inactive)
REMARK    1  A    between atoms: O1_2  and  C2_3 
REMARK    2  A    between atoms: C5_6  and  C6_7 
REMARK    3  A    between atoms: C6_7  and  N1_8 
REMARK    4  A    between atoms: N1_8  and  C7_9 
REMARK    5  A    between atoms: C10_12  and  O2_13 
REMARK    6  A    between atoms: C12_15  and  O3_16 
ROOT
HETATM    1  C2  UNL     1      26.512  -1.063  52.827  1.00  0.00     0.057 A 
HETATM    2  C3  UNL     1      26.729  -0.203  51.790  1.00  0.00     0.042 A 
HETATM    3  C4  UNL     1      25.722   0.649  52.026  1.00  0.00     0.089 A 
HETATM    4  C5  UNL     1      24.712   1.496  52.269  1.00  0.00    -0.043 A 
HETATM    5  C15 UNL     1      24.544   0.599  53.294  1.00  0.00     0.070 A 
HETATM    6  C16 UNL     1      25.482  -0.326  53.202  1.00  0.00     0.053 A 
HETATM    7  C17 UNL     1      25.559  -0.673  54.688  1.00  0.00     0.049 C 
HETATM    8  C18 UNL     1      26.824   0.165  55.136  1.00  0.00     0.202 C 
HETATM    9  O4  UNL     1      26.492   1.470  54.720  1.00  0.00    -0.279 OA
HETATM   10  N2  UNL     1      27.240   1.704  53.582  1.00  0.00    -0.261 N 
HETATM   11  C19 UNL     1      27.271   2.361  52.272  1.00  0.00     0.225 C 
HETATM   12  N3  UNL     1      26.418   1.776  51.375  1.00  0.00    -0.265 NA
HETATM   13  H22 UNL     1      28.177   1.254  53.582  1.00  0.00     0.195 HD
ENDROOT
BRANCH   4  14
HETATM   14  C6  UNL     1      24.011   2.708  51.805  1.00  0.00     0.153 C 
BRANCH  14  15
HETATM   15  N1  UNL     1      23.197   2.311  50.688  1.00  0.00    -0.386 N 
HETATM   16  H7  UNL     1      23.534   2.274  49.710  1.00  0.00     0.160 HD
BRANCH  15  17
HETATM   17  C7  UNL     1      21.872   1.969  51.059  1.00  0.00     0.031 A 
HETATM   18  C8  UNL     1      21.562   0.601  50.963  1.00  0.00     0.032 A 
HETATM   19  C9  UNL     1      20.247   0.252  51.237  1.00  0.00     0.042 A 
HETATM   20  C10 UNL     1      19.224   1.113  51.591  1.00  0.00     0.101 A 
HETATM   21  C12 UNL     1      19.554   2.475  51.683  1.00  0.00     0.103 A 
HETATM   22  C14 UNL     1      20.879   2.844  51.412  1.00  0.00     0.068 A 
BRANCH  20  23
HETATM   23  O2  UNL     1      17.925   0.763  51.857  1.00  0.00    -0.353 OA
HETATM   24  C11 UNL     1      17.418  -0.526  51.985  1.00  0.00     0.210 C 
ENDBRANCH  20  23
BRANCH  21  25
HETATM   25  O3  UNL     1      18.589   3.348  52.024  1.00  0.00    -0.353 OA
HETATM   26  C13 UNL     1      17.770   4.181  51.282  1.00  0.00     0.210 C 
ENDBRANCH  21  25
ENDBRANCH  15  17
ENDBRANCH  14  15
ENDBRANCH   4  14
BRANCH   1  27
HETATM   27  O1  UNL     1      27.158  -2.203  53.233  1.00  0.00    -0.359 OA
HETATM   28  C1  UNL     1      28.525  -2.398  53.037  1.00  0.00     0.209 C 
ENDBRANCH   1  27
TORSDOF 6
ENDMDL
MODEL 3
REMARK VINA RESULT:      -7.7      0.934      1.851
REMARK  6 active torsions:
REMARK  status: ('A' for Active; 'I' for Inactive)
REMARK    1  A    between atoms: O1_2  and  C2_3 
REMARK    2  A    between atoms: C5_6  and  C6_7 
REMARK    3  A    between atoms: C6_7  and  N1_8 
REMARK    4  A    between atoms: N1_8  and  C7_9 
REMARK    5  A    between atoms: C10_12  and  O2_13 
REMARK    6  A    between atoms: C12_15  and  O3_16 
ROOT
HETATM    1  C2  UNL     1      26.468  -0.914  52.698  1.00  0.00     0.057 A 
HETATM    2  C3  UNL     1      27.023   0.001  51.851  1.00  0.00     0.042 A 
HETATM    3  C4  UNL     1      26.108   0.972  51.983  1.00  0.00     0.089 A 
HETATM    4  C5  UNL     1      25.187   1.937  52.120  1.00  0.00    -0.043 A 
HETATM    5  C15 UNL     1      24.678   0.978  52.960  1.00  0.00     0.070 A 
HETATM    6  C16 UNL     1      25.484  -0.067  52.944  1.00  0.00     0.053 A 
HETATM    7  C17 UNL     1      25.180  -0.569  54.354  1.00  0.00     0.049 C 
HETATM    8  C18 UNL     1      26.408   0.012  55.163  1.00  0.00     0.202 C 
HETATM    9  O4  UNL     1      26.351   1.388  54.863  1.00  0.00    -0.279 OA
HETATM   10  N2  UNL     1      27.360   1.616  53.946  1.00  0.00    -0.261 N 
HETATM   11  C19 UNL     1      27.770   2.389  52.770  1.00  0.00     0.225 C 
HETATM   12  N3  UNL     1      27.072   2.037  51.646  1.00  0.00    -0.265 NA
HETATM   13  H22 UNL     1      28.206   1.029  54.082  1.00  0.00     0.195 HD
ENDROOT
BRANCH   4  14
HETATM   14  C6  UNL     1      24.772   3.283  51.685  1.00  0.00     0.153 C 
BRANCH  14  15
HETATM   15  N1  UNL     1      24.629   3.228  50.254  1.00  0.00    -0.386 N 
HETATM   16  H7  UNL     1      24.265   2.407  49.740  1.00  0.00     0.160 HD
BRANCH  15  17
HETATM   17  C7  UNL     1      25.035   4.423  49.609  1.00  0.00     0.031 A 
HETATM   18  C8  UNL     1      23.984   5.233  49.142  1.00  0.00     0.032 A 
HETATM   19  C9  UNL     1      24.357   6.365  48.430  1.00  0.00     0.042 A 
HETATM   20  C10 UNL     1      25.648   6.766  48.139  1.00  0.00     0.101 A 
HETATM   21  C12 UNL     1      26.683   5.945  48.615  1.00  0.00     0.103 A 
HETATM   22  C14 UNL     1      26.324   4.799  49.339  1.00  0.00     0.068 A 
BRANCH  20  23
HETATM   23  O2  UNL     1      26.010   7.885  47.432  1.00  0.00    -0.353 OA
HETATM   24  C11 UNL     1      25.165   8.888  46.969  1.00  0.00     0.210 C 
ENDBRANCH  20  23
BRANCH  21  25
HETATM   25  O3  UNL     1      27.955   6.298  48.355  1.00  0.00    -0.353 OA
HETATM   26  C13 UNL     1      29.129   5.573  48.253  1.00  0.00     0.210 C 
ENDBRANCH  21  25
ENDBRANCH  15  17
ENDBRANCH  14  15
ENDBRANCH   4  14
BRANCH   1  27
HETATM   27  O1  UNL     1      26.853  -2.175  53.075  1.00  0.00    -0.359 OA
HETATM   28  C1  UNL     1      28.186  -2.585  53.067  1.00  0.00     0.209 C 
ENDBRANCH   1  27
TORSDOF 6
ENDMDL
MODEL 4
REMARK VINA RESULT:      -7.4      2.700      7.332
REMARK  6 active torsions:
REMARK  status: ('A' for Active; 'I' for Inactive)
REMARK    1  A    between atoms: O1_2  and  C2_3 
REMARK    2  A    between atoms: C5_6  and  C6_7 
REMARK    3  A    between atoms: C6_7  and  N1_8 
REMARK    4  A    between atoms: N1_8  and  C7_9 
REMARK    5  A    between atoms: C10_12  and  O2_13 
REMARK    6  A    between atoms: C12_15  and  O3_16 
ROOT
HETATM    1  C2  UNL     1      22.808   4.617  48.468  1.00  0.00     0.057 A 
HETATM    2  C3  UNL     1      21.697   4.110  49.077  1.00  0.00     0.042 A 
HETATM    3  C4  UNL     1      22.301   3.229  49.887  1.00  0.00     0.089 A 
HETATM    4  C5  UNL     1      22.912   2.349  50.693  1.00  0.00    -0.043 A 
HETATM    5  C15 UNL     1      23.992   2.898  50.048  1.00  0.00     0.070 A 
HETATM    6  C16 UNL     1      23.557   3.808  49.197  1.00  0.00     0.053 A 
HETATM    7  C17 UNL     1      24.800   4.697  49.211  1.00  0.00     0.049 C 
HETATM    8  C18 UNL     1      24.356   5.834  50.218  1.00  0.00     0.202 C 
HETATM    9  O4  UNL     1      23.985   5.102  51.364  1.00  0.00    -0.279 OA
HETATM   10  N2  UNL     1      22.603   5.105  51.379  1.00  0.00    -0.261 N 
HETATM   11  C19 UNL     1      21.398   4.339  51.715  1.00  0.00     0.225 C 
HETATM   12  N3  UNL     1      21.209   3.273  50.879  1.00  0.00    -0.265 NA
HETATM   13  H22 UNL     1      22.169   5.973  51.010  1.00  0.00     0.195 HD
ENDROOT
BRANCH   4  14
HETATM   14  C6  UNL     1      22.715   1.301  51.712  1.00  0.00     0.153 C 
BRANCH  14  15
HETATM   15  N1  UNL     1      23.311   1.789  52.927  1.00  0.00    -0.386 N 
HETATM   16  H7  UNL     1      22.878   2.504  53.537  1.00  0.00     0.160 HD
BRANCH  15  17
HETATM   17  C7  UNL     1      24.562   1.188  53.212  1.00  0.00     0.031 A 
HETATM   18  C8  UNL     1      24.575  -0.217  53.147  1.00  0.00     0.032 A 
HETATM   19  C9  UNL     1      25.765  -0.834  53.507  1.00  0.00     0.042 A 
HETATM   20  C10 UNL     1      26.926  -0.206  53.920  1.00  0.00     0.101 A 
HETATM   21  C12 UNL     1      26.893   1.198  53.977  1.00  0.00     0.103 A 
HETATM   22  C14 UNL     1      25.700   1.837  53.614  1.00  0.00     0.068 A 
BRANCH  20  23
HETATM   23  O2  UNL     1      28.098  -0.821  54.278  1.00  0.00    -0.353 OA
HETATM   24  C11 UNL     1      29.077  -1.312  53.421  1.00  0.00     0.210 C 
ENDBRANCH  20  23
BRANCH  21  25
HETATM   25  O3  UNL     1      28.001   1.850  54.374  1.00  0.00    -0.353 OA
HETATM   26  C13 UNL     1      28.992   2.526  53.684  1.00  0.00     0.210 C 
ENDBRANCH  21  25
ENDBRANCH  15  17
ENDBRANCH  14  15
ENDBRANCH   4  14
BRANCH   1  27
HETATM   27  O1  UNL     1      22.976   5.576  47.503  1.00  0.00    -0.359 OA
HETATM   28  C1  UNL     1      22.064   6.615  47.313  1.00  0.00     0.209 C 
ENDBRANCH   1  27
TORSDOF 6
ENDMDL
MODEL 5
REMARK VINA RESULT:      -7.3      2.242      3.324
REMARK  6 active torsions:
REMARK  status: ('A' for Active; 'I' for Inactive)
REMARK    1  A    between atoms: O1_2  and  C2_3 
REMARK    2  A    between atoms: C5_6  and  C6_7 
REMARK    3  A    between atoms: C6_7  and  N1_8 
REMARK    4  A    between atoms: N1_8  and  C7_9 
REMARK    5  A    between atoms: C10_12  and  O2_13 
REMARK    6  A    between atoms: C12_15  and  O3_16 
ROOT
HETATM    1  C2  UNL     1      26.631  -1.033  52.844  1.00  0.00     0.057 A 
HETATM    2  C3  UNL     1      26.888  -0.203  51.792  1.00  0.00     0.042 A 
HETATM    3  C4  UNL     1      25.795   0.568  51.877  1.00  0.00     0.089 A 
HETATM    4  C5  UNL     1      24.699   1.334  51.969  1.00  0.00    -0.043 A 
HETATM    5  C15 UNL     1      24.495   0.471  53.016  1.00  0.00     0.070 A 
HETATM    6  C16 UNL     1      25.509  -0.372  53.071  1.00  0.00     0.053 A 
HETATM    7  C17 UNL     1      25.452  -0.646  54.573  1.00  0.00     0.049 C 
HETATM    8  C18 UNL     1      26.588   0.317  55.107  1.00  0.00     0.202 C 
HETATM    9  O4  UNL     1      26.198   1.569  54.591  1.00  0.00    -0.279 OA
HETATM   10  N2  UNL     1      27.044   1.817  53.526  1.00  0.00    -0.261 N 
HETATM   11  C19 UNL     1      27.163   2.417  52.194  1.00  0.00     0.225 C 
HETATM   12  N3  UNL     1      26.463   1.722  51.245  1.00  0.00    -0.265 NA
HETATM   13  H22 UNL     1      28.008   1.451  53.647  1.00  0.00     0.195 HD
ENDROOT
BRANCH   4  14
HETATM   14  C6  UNL     1      23.956   2.460  51.372  1.00  0.00     0.153 C 
BRANCH  14  15
HETATM   15  N1  UNL     1      23.902   3.494  52.371  1.00  0.00    -0.386 N 
HETATM   16  H7  UNL     1      24.266   3.388  53.334  1.00  0.00     0.160 HD
BRANCH  15  17
HETATM   17  C7  UNL     1      23.296   4.687  51.903  1.00  0.00     0.031 A 
HETATM   18  C8  UNL     1      21.915   4.593  51.650  1.00  0.00     0.032 A 
HETATM   19  C9  UNL     1      21.316   5.722  51.110  1.00  0.00     0.042 A 
HETATM   20  C10 UNL     1      21.940   6.916  50.799  1.00  0.00     0.101 A 
HETATM   21  C12 UNL     1      23.318   6.991  51.060  1.00  0.00     0.103 A 
HETATM   22  C14 UNL     1      23.938   5.860  51.609  1.00  0.00     0.068 A 
BRANCH  20  23
HETATM   23  O2  UNL     1      21.343   8.028  50.261  1.00  0.00    -0.353 OA
HETATM   24  C11 UNL     1      20.466   8.064  49.183  1.00  0.00     0.210 C 
ENDBRANCH  20  23
BRANCH  21  25
HETATM   25  O3  UNL     1      23.966   8.135  50.773  1.00  0.00    -0.353 OA
HETATM   26  C13 UNL     1      24.784   8.513  49.724  1.00  0.00     0.210 C 
ENDBRANCH  21  25
ENDBRANCH  15  17
ENDBRANCH  14  15
ENDBRANCH   4  14
BRANCH   1  27
HETATM   27  O1  UNL     1      27.319  -2.093  53.374  1.00  0.00    -0.359 OA
HETATM   28  C1  UNL     1      28.665  -2.329  53.092  1.00  0.00     0.209 C 
ENDBRANCH   1  27
TORSDOF 6
ENDMDL
MODEL 6
REMARK VINA RESULT:      -7.3      3.565      4.594
REMARK  6 active torsions:
REMARK  status: ('A' for Active; 'I' for Inactive)
REMARK    1  A    between atoms: O1_2  and  C2_3 
REMARK    2  A    between atoms: C5_6  and  C6_7 
REMARK    3  A    between atoms: C6_7  and  N1_8 
REMARK    4  A    between atoms: N1_8  and  C7_9 
REMARK    5  A    between atoms: C10_12  and  O2_13 
REMARK    6  A    between atoms: C12_15  and  O3_16 
ROOT
HETATM    1  C2  UNL     1      26.500  -0.967  52.714  1.00  0.00     0.057 A 
HETATM    2  C3  UNL     1      27.012  -0.038  51.855  1.00  0.00     0.042 A 
HETATM    3  C4  UNL     1      26.068   0.903  51.997  1.00  0.00     0.089 A 
HETATM    4  C5  UNL     1      25.119   1.839  52.143  1.00  0.00    -0.043 A 
HETATM    5  C15 UNL     1      24.654   0.868  52.995  1.00  0.00     0.070 A 
HETATM    6  C16 UNL     1      25.493  -0.151  52.971  1.00  0.00     0.053 A 
HETATM    7  C17 UNL     1      25.225  -0.655  54.388  1.00  0.00     0.049 C 
HETATM    8  C18 UNL     1      26.446  -0.030  55.176  1.00  0.00     0.202 C 
HETATM    9  O4  UNL     1      26.340   1.342  54.871  1.00  0.00    -0.279 OA
HETATM   10  N2  UNL     1      27.327   1.597  53.938  1.00  0.00    -0.261 N 
HETATM   11  C19 UNL     1      27.695   2.377  52.752  1.00  0.00     0.225 C 
HETATM   12  N3  UNL     1      26.993   1.997  51.641  1.00  0.00    -0.265 NA
HETATM   13  H22 UNL     1      28.194   1.038  54.063  1.00  0.00     0.195 HD
ENDROOT
BRANCH   4  14
HETATM   14  C6  UNL     1      24.654   3.169  51.708  1.00  0.00     0.153 C 
BRANCH  14  15
HETATM   15  N1  UNL     1      24.541   3.118  50.275  1.00  0.00    -0.386 N 
HETATM   16  H7  UNL     1      25.345   3.195  49.628  1.00  0.00     0.160 HD
BRANCH  15  17
HETATM   17  C7  UNL     1      23.206   2.946  49.828  1.00  0.00     0.031 A 
HETATM   18  C8  UNL     1      23.077   2.460  48.515  1.00  0.00     0.032 A 
HETATM   19  C9  UNL     1      21.782   2.366  48.024  1.00  0.00     0.042 A 
HETATM   20  C10 UNL     1      20.621   2.702  48.695  1.00  0.00     0.101 A 
HETATM   21  C12 UNL     1      20.771   3.184  50.006  1.00  0.00     0.103 A 
HETATM   22  C14 UNL     1      22.072   3.282  50.518  1.00  0.00     0.068 A 
BRANCH  20  23
HETATM   23  O2  UNL     1      19.344   2.610  48.204  1.00  0.00    -0.353 OA
HETATM   24  C11 UNL     1      18.772   3.404  47.215  1.00  0.00     0.210 C 
ENDBRANCH  20  23
BRANCH  21  25
HETATM   25  O3  UNL     1      19.667   3.523  50.696  1.00  0.00    -0.353 OA
HETATM   26  C13 UNL     1      18.972   2.904  51.721  1.00  0.00     0.210 C 
ENDBRANCH  21  25
ENDBRANCH  15  17
ENDBRANCH  14  15
ENDBRANCH   4  14
BRANCH   1  27
HETATM   27  O1  UNL     1      26.931  -2.212  53.091  1.00  0.00    -0.359 OA
HETATM   28  C1  UNL     1      28.262  -2.612  52.973  1.00  0.00     0.209 C 
ENDBRANCH   1  27
TORSDOF 6
ENDMDL
MODEL 7
REMARK VINA RESULT:      -7.2      4.179      6.445
REMARK  6 active torsions:
REMARK  status: ('A' for Active; 'I' for Inactive)
REMARK    1  A    between atoms: O1_2  and  C2_3 
REMARK    2  A    between atoms: C5_6  and  C6_7 
REMARK    3  A    between atoms: C6_7  and  N1_8 
REMARK    4  A    between atoms: N1_8  and  C7_9 
REMARK    5  A    between atoms: C10_12  and  O2_13 
REMARK    6  A    between atoms: C12_15  and  O3_16 
ROOT
HETATM    1  C2  UNL     1      28.004  -0.593  53.094  1.00  0.00     0.057 A 
HETATM    2  C3  UNL     1      27.154  -0.327  52.061  1.00  0.00     0.042 A 
HETATM    3  C4  UNL     1      26.156   0.228  52.763  1.00  0.00     0.089 A 
HETATM    4  C5  UNL     1      25.163   0.780  53.474  1.00  0.00    -0.043 A 
HETATM    5  C15 UNL     1      26.059   0.489  54.472  1.00  0.00     0.070 A 
HETATM    6  C16 UNL     1      27.124  -0.073  53.932  1.00  0.00     0.053 A 
HETATM    7  C17 UNL     1      28.138   0.384  54.979  1.00  0.00     0.049 C 
HETATM    8  C18 UNL     1      28.782   1.638  54.260  1.00  0.00     0.202 C 
HETATM    9  O4  UNL     1      27.657   2.430  53.956  1.00  0.00    -0.279 OA
HETATM   10  N2  UNL     1      27.438   2.269  52.601  1.00  0.00    -0.261 N 
HETATM   11  C19 UNL     1      26.426   2.184  51.543  1.00  0.00     0.225 C 
HETATM   12  N3  UNL     1      25.690   1.033  51.618  1.00  0.00    -0.265 NA
HETATM   13  H22 UNL     1      28.301   2.146  52.036  1.00  0.00     0.195 HD
ENDROOT
BRANCH   4  14
HETATM   14  C6  UNL     1      23.814   1.373  53.410  1.00  0.00     0.153 C 
BRANCH  14  15
HETATM   15  N1  UNL     1      22.920   0.322  53.002  1.00  0.00    -0.386 N 
HETATM   16  H7  UNL     1      23.163  -0.684  53.022  1.00  0.00     0.160 HD
BRANCH  15  17
HETATM   17  C7  UNL     1      21.659   0.803  52.567  1.00  0.00     0.031 A 
HETATM   18  C8  UNL     1      21.563   2.201  52.453  1.00  0.00     0.032 A 
HETATM   19  C9  UNL     1      20.314   2.702  52.114  1.00  0.00     0.042 A 
HETATM   20  C10 UNL     1      19.168   1.964  51.880  1.00  0.00     0.101 A 
HETATM   21  C12 UNL     1      19.285   0.569  51.997  1.00  0.00     0.103 A 
HETATM   22  C14 UNL     1      20.541   0.047  52.337  1.00  0.00     0.068 A 
BRANCH  20  23
HETATM   23  O2  UNL     1      17.935   2.464  51.548  1.00  0.00    -0.353 OA
HETATM   24  C11 UNL     1      17.574   3.804  51.465  1.00  0.00     0.210 C 
ENDBRANCH  20  23
BRANCH  21  25
HETATM   25  O3  UNL     1      18.194  -0.188  51.779  1.00  0.00    -0.353 OA
HETATM   26  C13 UNL     1      17.426  -0.990  52.604  1.00  0.00     0.210 C 
ENDBRANCH  21  25
ENDBRANCH  15  17
ENDBRANCH  14  15
ENDBRANCH   4  14
BRANCH   1  27
HETATM   27  O1  UNL     1      29.247  -1.169  53.143  1.00  0.00    -0.359 OA
HETATM   28  C1  UNL     1      29.432  -2.532  53.375  1.00  0.00     0.209 C 
ENDBRANCH   1  27
TORSDOF 6
ENDMDL
MODEL 8
REMARK VINA RESULT:      -7.2      3.658      7.290
REMARK  6 active torsions:
REMARK  status: ('A' for Active; 'I' for Inactive)
REMARK    1  A    between atoms: O1_2  and  C2_3 
REMARK    2  A    between atoms: C5_6  and  C6_7 
REMARK    3  A    between atoms: C6_7  and  N1_8 
REMARK    4  A    between atoms: N1_8  and  C7_9 
REMARK    5  A    between atoms: C10_12  and  O2_13 
REMARK    6  A    between atoms: C12_15  and  O3_16 
ROOT
HETATM    1  C2  UNL     1      20.472   1.332  51.397  1.00  0.00     0.057 A 
HETATM    2  C3  UNL     1      20.870   2.321  52.248  1.00  0.00     0.042 A 
HETATM    3  C4  UNL     1      22.107   2.510  51.767  1.00  0.00     0.089 A 
HETATM    4  C5  UNL     1      23.343   2.691  51.281  1.00  0.00    -0.043 A 
HETATM    5  C15 UNL     1      22.886   1.696  50.452  1.00  0.00     0.070 A 
HETATM    6  C16 UNL     1      21.650   1.391  50.802  1.00  0.00     0.053 A 
HETATM    7  C17 UNL     1      21.169   0.924  49.429  1.00  0.00     0.049 C 
HETATM    8  C18 UNL     1      20.407   2.211  48.914  1.00  0.00     0.202 C 
HETATM    9  O4  UNL     1      21.388   3.216  49.027  1.00  0.00    -0.279 OA
HETATM   10  N2  UNL     1      21.045   3.952  50.146  1.00  0.00    -0.261 N 
HETATM   11  C19 UNL     1      21.552   4.713  51.292  1.00  0.00     0.225 C 
HETATM   12  N3  UNL     1      22.156   3.913  52.223  1.00  0.00    -0.265 NA
HETATM   13  H22 UNL     1      20.023   4.039  50.308  1.00  0.00     0.195 HD
ENDROOT
BRANCH   4  14
HETATM   14  C6  UNL     1      24.605   3.439  51.432  1.00  0.00     0.153 C 
BRANCH  14  15
HETATM   15  N1  UNL     1      24.962   3.368  52.823  1.00  0.00    -0.386 N 
HETATM   16  H7  UNL     1      24.696   4.080  53.526  1.00  0.00     0.160 HD
BRANCH  15  17
HETATM   17  C7  UNL     1      25.719   2.213  53.145  1.00  0.00     0.031 A 
HETATM   18  C8  UNL     1      27.024   2.193  52.619  1.00  0.00     0.032 A 
HETATM   19  C9  UNL     1      27.755   1.036  52.846  1.00  0.00     0.042 A 
HETATM   20  C10 UNL     1      27.328  -0.087  53.532  1.00  0.00     0.101 A 
HETATM   21  C12 UNL     1      26.023  -0.046  54.052  1.00  0.00     0.103 A 
HETATM   22  C14 UNL     1      25.272   1.117  53.833  1.00  0.00     0.068 A 
BRANCH  20  23
HETATM   23  O2  UNL     1      28.054  -1.229  53.751  1.00  0.00    -0.353 OA
HETATM   24  C11 UNL     1      29.387  -1.446  53.419  1.00  0.00     0.210 C 
ENDBRANCH  20  23
BRANCH  21  25
HETATM   25  O3  UNL     1      25.567  -1.116  54.726  1.00  0.00    -0.353 OA
HETATM   26  C13 UNL     1      24.488  -1.304  55.572  1.00  0.00     0.210 C 
ENDBRANCH  21  25
ENDBRANCH  15  17
ENDBRANCH  14  15
ENDBRANCH   4  14
BRANCH   1  27
HETATM   27  O1  UNL     1      19.301   0.627  51.283  1.00  0.00    -0.359 OA
HETATM   28  C1  UNL     1      18.056   1.196  51.549  1.00  0.00     0.209 C 
ENDBRANCH   1  27
TORSDOF 6
ENDMDL
MODEL 9
REMARK VINA RESULT:      -7.1      4.133      7.391
REMARK  6 active torsions:
REMARK  status: ('A' for Active; 'I' for Inactive)
REMARK    1  A    between atoms: O1_2  and  C2_3 
REMARK    2  A    between atoms: C5_6  and  C6_7 
REMARK    3  A    between atoms: C6_7  and  N1_8 
REMARK    4  A    between atoms: N1_8  and  C7_9 
REMARK    5  A    between atoms: C10_12  and  O2_13 
REMARK    6  A    between atoms: C12_15  and  O3_16 
ROOT
HETATM    1  C2  UNL     1      19.823   2.178  49.435  1.00  0.00     0.057 A 
HETATM    2  C3  UNL     1      19.607   2.673  50.688  1.00  0.00     0.042 A 
HETATM    3  C4  UNL     1      20.291   1.754  51.384  1.00  0.00     0.089 A 
HETATM    4  C5  UNL     1      20.976   0.830  52.072  1.00  0.00    -0.043 A 
HETATM    5  C15 UNL     1      21.161   0.380  50.789  1.00  0.00     0.070 A 
HETATM    6  C16 UNL     1      20.536   1.198  49.962  1.00  0.00     0.053 A 
HETATM    7  C17 UNL     1      21.440   0.978  48.751  1.00  0.00     0.049 C 
HETATM    8  C18 UNL     1      22.388   2.241  48.837  1.00  0.00     0.202 C 
HETATM    9  O4  UNL     1      22.905   2.149  50.145  1.00  0.00    -0.279 OA
HETATM   10  N2  UNL     1      22.232   3.103  50.884  1.00  0.00    -0.261 N 
HETATM   11  C19 UNL     1      21.668   3.438  52.195  1.00  0.00     0.225 C 
HETATM   12  N3  UNL     1      20.566   2.685  52.496  1.00  0.00    -0.265 NA
HETATM   13  H22 UNL     1      21.985   3.963  50.356  1.00  0.00     0.195 HD
ENDROOT
BRANCH   4  14
HETATM   14  C6  UNL     1      21.379   0.374  53.416  1.00  0.00     0.153 C 
BRANCH  14  15
HETATM   15  N1  UNL     1      22.360  -0.661  53.223  1.00  0.00    -0.386 N 
HETATM   16  H7  UNL     1      22.133  -1.623  52.916  1.00  0.00     0.160 HD
BRANCH  15  17
HETATM   17  C7  UNL     1      23.683  -0.230  53.495  1.00  0.00     0.031 A 
HETATM   18  C8  UNL     1      24.325  -0.909  54.546  1.00  0.00     0.032 A 
HETATM   19  C9  UNL     1      25.588  -0.448  54.888  1.00  0.00     0.042 A 
HETATM   20  C10 UNL     1      26.267   0.605  54.302  1.00  0.00     0.101 A 
HETATM   21  C12 UNL     1      25.610   1.269  53.253  1.00  0.00     0.103 A 
HETATM   22  C14 UNL     1      24.334   0.814  52.892  1.00  0.00     0.068 A 
BRANCH  20  23
HETATM   23  O2  UNL     1      27.515   1.059  54.647  1.00  0.00    -0.353 OA
HETATM   24  C11 UNL     1      28.659   0.291  54.829  1.00  0.00     0.210 C 
ENDBRANCH  20  23
BRANCH  21  25
HETATM   25  O3  UNL     1      26.234   2.299  52.654  1.00  0.00    -0.353 OA
HETATM   26  C13 UNL     1      26.700   2.495  51.366  1.00  0.00     0.210 C 
ENDBRANCH  21  25
ENDBRANCH  15  17
ENDBRANCH  14  15
ENDBRANCH   4  14
BRANCH   1  27
HETATM   27  O1  UNL     1      19.421   2.599  48.194  1.00  0.00    -0.359 OA
HETATM   28  C1  UNL     1      18.883   3.867  47.971  1.00  0.00     0.209 C 
ENDBRANCH   1  27
TORSDOF 6
ENDMDL
