MODEL 1
REMARK VINA RESULT:      -8.8      0.000      0.000
REMARK  5 active torsions:
REMARK  status: ('A' for Active; 'I' for Inactive)
REMARK    1  A    between atoms: C2_2  and  C3_3 
REMARK    2  A    between atoms: C6_7  and  N2_8 
REMARK    3  A    between atoms: C14_17  and  N3_18 
REMARK       I    between atoms: N3_18  and  C15_19 
REMARK    4  A    between atoms: C15_19  and  C16_21 
REMARK    5  A    between atoms: C18_23  and  O2_24 
ROOT
HETATM    1  C3  UNL     1      22.298   1.379  50.246  1.00  0.00     0.002 C 
HETATM    2  C4  UNL     1      23.053   1.348  51.339  1.00  0.00     0.056 C 
HETATM    3  N1  UNL     1      24.381   1.868  51.331  1.00  0.00    -0.265 NA
HETATM    4  C5  UNL     1      25.507   1.383  51.732  1.00  0.00     0.119 C 
HETATM    5  C6  UNL     1      25.822   0.101  52.350  1.00  0.00     0.152 C 
HETATM    6  C12 UNL     1      24.814  -0.357  53.328  1.00  0.00     0.002 C 
HETATM    7  C13 UNL     1      23.538  -0.031  53.344  1.00  0.00     0.003 C 
HETATM    8  C14 UNL     1      22.547   0.786  52.597  1.00  0.00     0.159 C 
ENDROOT
BRANCH   8   9
HETATM    9  N3  UNL     1      21.368  -0.045  52.479  1.00  0.00    -0.344 N 
HETATM   10  C15 UNL     1      20.070   0.350  52.948  1.00  0.00     0.248 C 
HETATM   11  O1  UNL     1      20.130   1.496  53.461  1.00  0.00    -0.268 OA
HETATM   12  H17 UNL     1      21.522  -0.971  52.022  1.00  0.00     0.163 HD
BRANCH  10  13
HETATM   13  C16 UNL     1      18.884  -0.487  52.829  1.00  0.00     0.013 A 
HETATM   14  C17 UNL     1      18.806  -1.602  53.524  1.00  0.00     0.049 A 
HETATM   15  C18 UNL     1      17.615  -2.431  53.397  1.00  0.00     0.065 A 
HETATM   16  C20 UNL     1      16.683  -1.992  52.575  1.00  0.00     0.010 A 
HETATM   17  C21 UNL     1      16.651  -0.769  51.747  1.00  0.00     0.035 A 
HETATM   18  C22 UNL     1      17.878   0.062  51.893  1.00  0.00     0.048 A 
BRANCH  15  19
HETATM   19  O2  UNL     1      17.473  -3.609  54.098  1.00  0.00    -0.356 OA
HETATM   20  C19 UNL     1      16.608  -4.649  53.720  1.00  0.00     0.210 C 
ENDBRANCH  15  19
ENDBRANCH  10  13
ENDBRANCH   8   9
BRANCH   1  21
HETATM   21  C2  UNL     1      21.003   1.050  49.651  1.00  0.00     0.025 C 
HETATM   22  C1  UNL     1      20.029   2.224  49.684  1.00  0.00     0.009 C 
ENDBRANCH   1  21
BRANCH   5  23
HETATM   23  N2  UNL     1      27.131   0.154  52.956  1.00  0.00    -0.352 N 
HETATM   24  C7  UNL     1      27.715  -1.147  52.848  1.00  0.00     0.088 A 
HETATM   25  C8  UNL     1      28.935  -1.417  53.325  1.00  0.00    -0.004 A 
HETATM   26  C9  UNL     1      29.766  -0.406  53.994  1.00  0.00     0.081 A 
HETATM   27  C10 UNL     1      29.088   0.893  54.059  1.00  0.00     0.030 A 
HETATM   28 CL1  UNL     1      29.916   2.229  54.820  1.00  0.00    -0.087 Cl
HETATM   29  C11 UNL     1      27.900   1.161  53.595  1.00  0.00     0.111 A 
ENDBRANCH   5  23
TORSDOF 5
ENDMDL
MODEL 2
REMARK VINA RESULT:      -8.5      0.972      1.691
REMARK  5 active torsions:
REMARK  status: ('A' for Active; 'I' for Inactive)
REMARK    1  A    between atoms: C2_2  and  C3_3 
REMARK    2  A    between atoms: C6_7  and  N2_8 
REMARK    3  A    between atoms: C14_17  and  N3_18 
REMARK       I    between atoms: N3_18  and  C15_19 
REMARK    4  A    between atoms: C15_19  and  C16_21 
REMARK    5  A    between atoms: C18_23  and  O2_24 
ROOT
HETATM    1  C3  UNL     1      22.307   1.371  50.278  1.00  0.00     0.002 C 
HETATM    2  C4  UNL     1      23.071   1.342  51.365  1.00  0.00     0.056 C 
HETATM    3  N1  UNL     1      24.393   1.875  51.350  1.00  0.00    -0.265 NA
HETATM    4  C5  UNL     1      25.527   1.401  51.740  1.00  0.00     0.119 C 
HETATM    5  C6  UNL     1      25.860   0.119  52.348  1.00  0.00     0.152 C 
HETATM    6  C12 UNL     1      24.865  -0.356  53.331  1.00  0.00     0.002 C 
HETATM    7  C13 UNL     1      23.585  -0.043  53.359  1.00  0.00     0.003 C 
HETATM    8  C14 UNL     1      22.580   0.768  52.623  1.00  0.00     0.159 C 
ENDROOT
BRANCH   8   9
HETATM    9  N3  UNL     1      21.409  -0.075  52.510  1.00  0.00    -0.344 N 
HETATM   10  C15 UNL     1      20.105   0.315  52.966  1.00  0.00     0.248 C 
HETATM   11  O1  UNL     1      20.152   1.469  53.463  1.00  0.00    -0.268 OA
HETATM   12  H17 UNL     1      21.574  -1.006  52.068  1.00  0.00     0.163 HD
BRANCH  10  13
HETATM   13  C16 UNL     1      18.927  -0.533  52.851  1.00  0.00     0.013 A 
HETATM   14  C17 UNL     1      17.968  -0.200  52.013  1.00  0.00     0.049 A 
HETATM   15  C18 UNL     1      16.794  -1.056  51.906  1.00  0.00     0.065 A 
HETATM   16  C20 UNL     1      16.781  -2.125  52.676  1.00  0.00     0.010 A 
HETATM   17  C21 UNL     1      17.784  -2.606  53.647  1.00  0.00     0.035 A 
HETATM   18  C22 UNL     1      18.974  -1.716  53.740  1.00  0.00     0.048 A 
BRANCH  15  19
HETATM   19  O2  UNL     1      15.757  -0.762  51.048  1.00  0.00    -0.356 OA
HETATM   20  C19 UNL     1      15.917  -0.534  49.671  1.00  0.00     0.210 C 
ENDBRANCH  15  19
ENDBRANCH  10  13
ENDBRANCH   8   9
BRANCH   1  21
HETATM   21  C2  UNL     1      21.011   1.032  49.691  1.00  0.00     0.025 C 
HETATM   22  C1  UNL     1      20.071   2.232  49.616  1.00  0.00     0.009 C 
ENDBRANCH   1  21
BRANCH   5  23
HETATM   23  N2  UNL     1      27.174   0.181  52.944  1.00  0.00    -0.352 N 
HETATM   24  C7  UNL     1      27.762  -1.118  52.843  1.00  0.00     0.088 A 
HETATM   25  C8  UNL     1      28.986  -1.379  53.313  1.00  0.00    -0.004 A 
HETATM   26  C9  UNL     1      29.818  -0.359  53.967  1.00  0.00     0.081 A 
HETATM   27  C10 UNL     1      29.135   0.938  54.026  1.00  0.00     0.030 A 
HETATM   28 CL1  UNL     1      29.964   2.284  54.770  1.00  0.00    -0.087 Cl
HETATM   29  C11 UNL     1      27.943   1.197  53.569  1.00  0.00     0.111 A 
ENDBRANCH   5  23
TORSDOF 5
ENDMDL
MODEL 3
REMARK VINA RESULT:      -8.3      1.521      2.214
REMARK  5 active torsions:
REMARK  status: ('A' for Active; 'I' for Inactive)
REMARK    1  A    between atoms: C2_2  and  C3_3 
REMARK    2  A    between atoms: C6_7  and  N2_8 
REMARK    3  A    between atoms: C14_17  and  N3_18 
REMARK       I    between atoms: N3_18  and  C15_19 
REMARK    4  A    between atoms: C15_19  and  C16_21 
REMARK    5  A    between atoms: C18_23  and  O2_24 
ROOT
HETATM    1  C3  UNL     1      22.347   1.861  49.754  1.00  0.00     0.002 C 
HETATM    2  C4  UNL     1      23.050   1.852  50.882  1.00  0.00     0.056 C 
HETATM    3  N1  UNL     1      24.385   2.353  50.921  1.00  0.00    -0.265 NA
HETATM    4  C5  UNL     1      25.483   1.865  51.388  1.00  0.00     0.119 C 
HETATM    5  C6  UNL     1      25.749   0.598  52.057  1.00  0.00     0.152 C 
HETATM    6  C12 UNL     1      24.690   0.183  53.001  1.00  0.00     0.002 C 
HETATM    7  C13 UNL     1      23.420   0.528  52.947  1.00  0.00     0.003 C 
HETATM    8  C14 UNL     1      22.477   1.336  52.131  1.00  0.00     0.159 C 
ENDROOT
BRANCH   8   9
HETATM    9  N3  UNL     1      21.292   0.519  51.983  1.00  0.00    -0.344 N 
HETATM   10  C15 UNL     1      20.000   0.901  52.477  1.00  0.00     0.248 C 
HETATM   11  O1  UNL     1      20.070   2.023  53.041  1.00  0.00    -0.268 OA
HETATM   12  H17 UNL     1      21.437  -0.387  51.484  1.00  0.00     0.163 HD
BRANCH  10  13
HETATM   13  C16 UNL     1      18.808   0.078  52.328  1.00  0.00     0.013 A 
HETATM   14  C17 UNL     1      17.956   0.341  51.358  1.00  0.00     0.049 A 
HETATM   15  C18 UNL     1      16.767  -0.488  51.218  1.00  0.00     0.065 A 
HETATM   16  C20 UNL     1      16.630  -1.464  52.094  1.00  0.00     0.010 A 
HETATM   17  C21 UNL     1      17.505  -1.859  53.216  1.00  0.00     0.035 A 
HETATM   18  C22 UNL     1      18.713  -0.998  53.340  1.00  0.00     0.048 A 
BRANCH  15  19
HETATM   19  O2  UNL     1      15.840  -0.264  50.224  1.00  0.00    -0.356 OA
HETATM   20  C19 UNL     1      14.863  -1.196  49.836  1.00  0.00     0.210 C 
ENDBRANCH  15  19
ENDBRANCH  10  13
ENDBRANCH   8   9
BRANCH   1  21
HETATM   21  C2  UNL     1      21.075   1.533  49.110  1.00  0.00     0.025 C 
HETATM   22  C1  UNL     1      20.072   2.681  49.177  1.00  0.00     0.009 C 
ENDBRANCH   1  21
BRANCH   5  23
HETATM   23  N2  UNL     1      27.030   0.649  52.722  1.00  0.00    -0.352 N 
HETATM   24  C7  UNL     1      27.280   2.010  53.082  1.00  0.00     0.088 A 
HETATM   25  C8  UNL     1      28.399   2.380  53.715  1.00  0.00    -0.004 A 
HETATM   26  C9  UNL     1      29.452   1.425  54.087  1.00  0.00     0.081 A 
HETATM   27  C10 UNL     1      29.110   0.059  53.679  1.00  0.00     0.030 A 
HETATM   28 CL1  UNL     1      30.239  -1.225  54.034  1.00  0.00    -0.087 Cl
HETATM   29  C11 UNL     1      28.021  -0.307  53.063  1.00  0.00     0.111 A 
ENDBRANCH   5  23
TORSDOF 5
ENDMDL
MODEL 4
REMARK VINA RESULT:      -7.9      7.513     12.077
REMARK  5 active torsions:
REMARK  status: ('A' for Active; 'I' for Inactive)
REMARK    1  A    between atoms: C2_2  and  C3_3 
REMARK    2  A    between atoms: C6_7  and  N2_8 
REMARK    3  A    between atoms: C14_17  and  N3_18 
REMARK       I    between atoms: N3_18  and  C15_19 
REMARK    4  A    between atoms: C15_19  and  C16_21 
REMARK    5  A    between atoms: C18_23  and  O2_24 
ROOT
HETATM    1  C3  UNL     1      26.490   8.306  50.009  1.00  0.00     0.002 C 
HETATM    2  C4  UNL     1      26.091   7.162  49.464  1.00  0.00     0.056 C 
HETATM    3  N1  UNL     1      24.745   6.710  49.604  1.00  0.00    -0.265 NA
HETATM    4  C5  UNL     1      24.240   5.577  49.960  1.00  0.00     0.119 C 
HETATM    5  C6  UNL     1      24.888   4.332  50.354  1.00  0.00     0.152 C 
HETATM    6  C12 UNL     1      26.093   4.006  49.563  1.00  0.00     0.002 C 
HETATM    7  C13 UNL     1      26.873   4.866  48.940  1.00  0.00     0.003 C 
HETATM    8  C14 UNL     1      27.016   6.324  48.692  1.00  0.00     0.159 C 
ENDROOT
BRANCH   8   9
HETATM    9  N3  UNL     1      28.421   6.614  48.876  1.00  0.00    -0.344 N 
HETATM   10  C15 UNL     1      29.269   7.121  47.834  1.00  0.00     0.248 C 
HETATM   11  O1  UNL     1      28.607   7.265  46.774  1.00  0.00    -0.268 OA
HETATM   12  H17 UNL     1      28.792   6.426  49.834  1.00  0.00     0.163 HD
BRANCH  10  13
HETATM   13  C16 UNL     1      30.683   7.413  48.020  1.00  0.00     0.013 A 
HETATM   14  C17 UNL     1      31.497   6.454  48.410  1.00  0.00     0.049 A 
HETATM   15  C18 UNL     1      32.909   6.758  48.593  1.00  0.00     0.065 A 
HETATM   16  C20 UNL     1      33.276   8.000  48.349  1.00  0.00     0.010 A 
HETATM   17  C21 UNL     1      32.469   9.156  47.909  1.00  0.00     0.035 A 
HETATM   18  C22 UNL     1      31.029   8.823  47.729  1.00  0.00     0.048 A 
BRANCH  15  19
HETATM   19  O2  UNL     1      33.811   5.798  49.000  1.00  0.00    -0.356 OA
HETATM   20  C19 UNL     1      35.199   5.891  48.807  1.00  0.00     0.210 C 
ENDBRANCH  15  19
ENDBRANCH  10  13
ENDBRANCH   8   9
BRANCH   1  21
HETATM   21  C2  UNL     1      27.602   9.234  50.215  1.00  0.00     0.025 C 
HETATM   22  C1  UNL     1      27.733  10.251  49.085  1.00  0.00     0.009 C 
ENDBRANCH   1  21
BRANCH   5  23
HETATM   23  N2  UNL     1      23.939   3.246  50.305  1.00  0.00    -0.352 N 
HETATM   24  C7  UNL     1      23.375   3.217  48.991  1.00  0.00     0.088 A 
HETATM   25  C8  UNL     1      22.454   2.315  48.637  1.00  0.00    -0.004 A 
HETATM   26  C9  UNL     1      21.952   1.289  49.561  1.00  0.00     0.081 A 
HETATM   27  C10 UNL     1      22.583   1.395  50.880  1.00  0.00     0.030 A 
HETATM   28 CL1  UNL     1      22.117   0.260  52.123  1.00  0.00    -0.087 Cl
HETATM   29  C11 UNL     1      23.481   2.272  51.231  1.00  0.00     0.111 A 
ENDBRANCH   5  23
TORSDOF 5
ENDMDL
MODEL 5
REMARK VINA RESULT:      -7.9      4.519      8.898
REMARK  5 active torsions:
REMARK  status: ('A' for Active; 'I' for Inactive)
REMARK    1  A    between atoms: C2_2  and  C3_3 
REMARK    2  A    between atoms: C6_7  and  N2_8 
REMARK    3  A    between atoms: C14_17  and  N3_18 
REMARK       I    between atoms: N3_18  and  C15_19 
REMARK    4  A    between atoms: C15_19  and  C16_21 
REMARK    5  A    between atoms: C18_23  and  O2_24 
ROOT
HETATM    1  C3  UNL     1      22.239   0.219  52.400  1.00  0.00     0.002 C 
HETATM    2  C4  UNL     1      22.174   1.294  51.621  1.00  0.00     0.056 C 
HETATM    3  N1  UNL     1      20.959   1.659  50.970  1.00  0.00    -0.265 NA
HETATM    4  C5  UNL     1      20.685   1.970  49.749  1.00  0.00     0.119 C 
HETATM    5  C6  UNL     1      21.548   2.059  48.577  1.00  0.00     0.152 C 
HETATM    6  C12 UNL     1      22.878   2.640  48.854  1.00  0.00     0.002 C 
HETATM    7  C13 UNL     1      23.510   2.626  50.010  1.00  0.00     0.003 C 
HETATM    8  C14 UNL     1      23.347   2.150  51.408  1.00  0.00     0.159 C 
ENDROOT
BRANCH   8   9
HETATM    9  N3  UNL     1      24.620   1.565  51.770  1.00  0.00    -0.344 N 
HETATM   10  C15 UNL     1      25.424   2.033  52.863  1.00  0.00     0.248 C 
HETATM   11  O1  UNL     1      24.856   3.000  53.431  1.00  0.00    -0.268 OA
HETATM   12  H17 UNL     1      24.927   0.765  51.173  1.00  0.00     0.163 HD
BRANCH  10  13
HETATM   13  C16 UNL     1      26.705   1.444  53.228  1.00  0.00     0.013 A 
HETATM   14  C17 UNL     1      26.860   0.138  53.163  1.00  0.00     0.049 A 
HETATM   15  C18 UNL     1      28.145  -0.441  53.529  1.00  0.00     0.065 A 
HETATM   16  C20 UNL     1      29.080   0.408  53.908  1.00  0.00     0.010 A 
HETATM   17  C21 UNL     1      29.033   1.879  54.021  1.00  0.00     0.035 A 
HETATM   18  C22 UNL     1      27.710   2.449  53.642  1.00  0.00     0.048 A 
BRANCH  15  19
HETATM   19  O2  UNL     1      28.369  -1.799  53.482  1.00  0.00    -0.356 OA
HETATM   20  C19 UNL     1      27.618  -2.694  52.702  1.00  0.00     0.210 C 
ENDBRANCH  15  19
ENDBRANCH  10  13
ENDBRANCH   8   9
BRANCH   1  21
HETATM   21  C2  UNL     1      23.082  -0.613  53.259  1.00  0.00     0.025 C 
HETATM   22  C1  UNL     1      22.319  -1.183  54.452  1.00  0.00     0.009 C 
ENDBRANCH   1  21
BRANCH   5  23
HETATM   23  N2  UNL     1      20.881   2.793  47.528  1.00  0.00    -0.352 N 
HETATM   24  C7  UNL     1      21.882   3.275  46.628  1.00  0.00     0.088 A 
HETATM   25  C8  UNL     1      21.571   3.999  45.548  1.00  0.00    -0.004 A 
HETATM   26  C9  UNL     1      20.188   4.355  45.202  1.00  0.00     0.081 A 
HETATM   27  C10 UNL     1      19.233   3.819  46.178  1.00  0.00     0.030 A 
HETATM   28 CL1  UNL     1      17.532   4.135  45.940  1.00  0.00    -0.087 Cl
HETATM   29  C11 UNL     1      19.530   3.113  47.232  1.00  0.00     0.111 A 
ENDBRANCH   5  23
TORSDOF 5
ENDMDL
MODEL 6
REMARK VINA RESULT:      -7.8      4.702      9.643
REMARK  5 active torsions:
REMARK  status: ('A' for Active; 'I' for Inactive)
REMARK    1  A    between atoms: C2_2  and  C3_3 
REMARK    2  A    between atoms: C6_7  and  N2_8 
REMARK    3  A    between atoms: C14_17  and  N3_18 
REMARK       I    between atoms: N3_18  and  C15_19 
REMARK    4  A    between atoms: C15_19  and  C16_21 
REMARK    5  A    between atoms: C18_23  and  O2_24 
ROOT
HETATM    1  C3  UNL     1      24.357   1.208  53.022  1.00  0.00     0.002 C 
HETATM    2  C4  UNL     1      23.080   1.528  52.843  1.00  0.00     0.056 C 
HETATM    3  N1  UNL     1      22.039   0.782  53.472  1.00  0.00    -0.265 NA
HETATM    4  C5  UNL     1      20.950   0.257  53.021  1.00  0.00     0.119 C 
HETATM    5  C6  UNL     1      20.390   0.244  51.676  1.00  0.00     0.152 C 
HETATM    6  C12 UNL     1      20.559   1.516  50.942  1.00  0.00     0.002 C 
HETATM    7  C13 UNL     1      21.504   2.412  51.142  1.00  0.00     0.003 C 
HETATM    8  C14 UNL     1      22.692   2.664  51.998  1.00  0.00     0.159 C 
ENDROOT
BRANCH   8   9
HETATM    9  N3  UNL     1      23.718   3.155  51.104  1.00  0.00    -0.344 N 
HETATM   10  C15 UNL     1      24.253   4.486  51.167  1.00  0.00     0.248 C 
HETATM   11  O1  UNL     1      23.698   5.128  52.096  1.00  0.00    -0.268 OA
HETATM   12  H17 UNL     1      24.052   2.469  50.392  1.00  0.00     0.163 HD
BRANCH  10  13
HETATM   13  C16 UNL     1      25.285   4.980  50.267  1.00  0.00     0.013 A 
HETATM   14  C17 UNL     1      25.318   6.259  49.959  1.00  0.00     0.049 A 
HETATM   15  C18 UNL     1      26.355   6.743  49.057  1.00  0.00     0.065 A 
HETATM   16  C20 UNL     1      27.204   5.840  48.608  1.00  0.00     0.010 A 
HETATM   17  C21 UNL     1      27.274   4.390  48.877  1.00  0.00     0.035 A 
HETATM   18  C22 UNL     1      26.205   3.918  49.800  1.00  0.00     0.048 A 
BRANCH  15  19
HETATM   19  O2  UNL     1      26.442   8.069  48.696  1.00  0.00    -0.356 OA
HETATM   20  C19 UNL     1      26.252   9.140  49.585  1.00  0.00     0.210 C 
ENDBRANCH  15  19
ENDBRANCH  10  13
ENDBRANCH   8   9
BRANCH   1  21
HETATM   21  C2  UNL     1      25.748   1.526  52.702  1.00  0.00     0.025 C 
HETATM   22  C1  UNL     1      26.446   0.403  51.941  1.00  0.00     0.009 C 
ENDBRANCH   1  21
BRANCH   5  23
HETATM   23  N2  UNL     1      18.997  -0.134  51.725  1.00  0.00    -0.352 N 
HETATM   24  C7  UNL     1      18.770  -0.804  52.967  1.00  0.00     0.088 A 
HETATM   25  C8  UNL     1      17.567  -1.279  53.304  1.00  0.00    -0.004 A 
HETATM   26  C9  UNL     1      16.391  -1.152  52.432  1.00  0.00     0.081 A 
HETATM   27  C10 UNL     1      16.718  -0.454  51.185  1.00  0.00     0.030 A 
HETATM   28 CL1  UNL     1      15.448  -0.202  50.012  1.00  0.00    -0.087 Cl
HETATM   29  C11 UNL     1      17.889   0.012  50.851  1.00  0.00     0.111 A 
ENDBRANCH   5  23
TORSDOF 5
ENDMDL
MODEL 7
REMARK VINA RESULT:      -7.6      4.781      6.894
REMARK  5 active torsions:
REMARK  status: ('A' for Active; 'I' for Inactive)
REMARK    1  A    between atoms: C2_2  and  C3_3 
REMARK    2  A    between atoms: C6_7  and  N2_8 
REMARK    3  A    between atoms: C14_17  and  N3_18 
REMARK       I    between atoms: N3_18  and  C15_19 
REMARK    4  A    between atoms: C15_19  and  C16_21 
REMARK    5  A    between atoms: C18_23  and  O2_24 
ROOT
HETATM    1  C3  UNL     1      26.797   2.018  51.552  1.00  0.00     0.002 C 
HETATM    2  C4  UNL     1      26.112   2.753  50.683  1.00  0.00     0.056 C 
HETATM    3  N1  UNL     1      26.767   3.708  49.849  1.00  0.00    -0.265 NA
HETATM    4  C5  UNL     1      26.524   4.948  49.589  1.00  0.00     0.119 C 
HETATM    5  C6  UNL     1      25.468   5.829  50.072  1.00  0.00     0.152 C 
HETATM    6  C12 UNL     1      24.148   5.175  50.188  1.00  0.00     0.002 C 
HETATM    7  C13 UNL     1      23.928   3.890  50.373  1.00  0.00     0.003 C 
HETATM    8  C14 UNL     1      24.658   2.607  50.542  1.00  0.00     0.159 C 
ENDROOT
BRANCH   8   9
HETATM    9  N3  UNL     1      23.993   1.920  51.627  1.00  0.00    -0.344 N 
HETATM   10  C15 UNL     1      22.818   1.114  51.453  1.00  0.00     0.248 C 
HETATM   11  O1  UNL     1      22.477   1.107  50.242  1.00  0.00    -0.268 OA
HETATM   12  H17 UNL     1      24.427   2.050  52.568  1.00  0.00     0.163 HD
BRANCH  10  13
HETATM   13  C16 UNL     1      22.148   0.422  52.546  1.00  0.00     0.013 A 
HETATM   14  C17 UNL     1      22.867  -0.116  53.509  1.00  0.00     0.049 A 
HETATM   15  C18 UNL     1      22.188  -0.805  54.597  1.00  0.00     0.065 A 
HETATM   16  C20 UNL     1      20.871  -0.839  54.534  1.00  0.00     0.010 A 
HETATM   17  C21 UNL     1      19.958  -0.279  53.518  1.00  0.00     0.035 A 
HETATM   18  C22 UNL     1      20.674   0.421  52.416  1.00  0.00     0.048 A 
BRANCH  15  19
HETATM   19  O2  UNL     1      22.884  -1.388  55.633  1.00  0.00    -0.356 OA
HETATM   20  C19 UNL     1      24.282  -1.348  55.762  1.00  0.00     0.210 C 
ENDBRANCH  15  19
ENDBRANCH  10  13
ENDBRANCH   8   9
BRANCH   1  21
HETATM   21  C2  UNL     1      26.738   0.982  52.582  1.00  0.00     0.025 C 
HETATM   22  C1  UNL     1      26.663  -0.425  51.995  1.00  0.00     0.009 C 
ENDBRANCH   1  21
BRANCH   5  23
HETATM   23  N2  UNL     1      25.383   7.001  49.234  1.00  0.00    -0.352 N 
HETATM   24  C7  UNL     1      25.860   8.116  49.993  1.00  0.00     0.088 A 
HETATM   25  C8  UNL     1      25.900   9.352  49.484  1.00  0.00    -0.004 A 
HETATM   26  C9  UNL     1      25.462   9.661  48.116  1.00  0.00     0.081 A 
HETATM   27  C10 UNL     1      24.991   8.462  47.416  1.00  0.00     0.030 A 
HETATM   28 CL1  UNL     1      24.426   8.623  45.771  1.00  0.00    -0.087 Cl
HETATM   29  C11 UNL     1      24.949   7.255  47.907  1.00  0.00     0.111 A 
ENDBRANCH   5  23
TORSDOF 5
ENDMDL
MODEL 8
REMARK VINA RESULT:      -7.5      2.435      4.399
REMARK  5 active torsions:
REMARK  status: ('A' for Active; 'I' for Inactive)
REMARK    1  A    between atoms: C2_2  and  C3_3 
REMARK    2  A    between atoms: C6_7  and  N2_8 
REMARK    3  A    between atoms: C14_17  and  N3_18 
REMARK       I    between atoms: N3_18  and  C15_19 
REMARK    4  A    between atoms: C15_19  and  C16_21 
REMARK    5  A    between atoms: C18_23  and  O2_24 
ROOT
HETATM    1  C3  UNL     1      20.901  -0.124  53.223  1.00  0.00     0.002 C 
HETATM    2  C4  UNL     1      22.097  -0.036  52.651  1.00  0.00     0.056 C 
HETATM    3  N1  UNL     1      23.213  -0.762  53.163  1.00  0.00    -0.265 NA
HETATM    4  C5  UNL     1      24.418  -0.410  53.459  1.00  0.00     0.119 C 
HETATM    5  C6  UNL     1      25.077   0.887  53.369  1.00  0.00     0.152 C 
HETATM    6  C12 UNL     1      24.714   1.663  52.165  1.00  0.00     0.002 C 
HETATM    7  C13 UNL     1      23.594   1.559  51.479  1.00  0.00     0.003 C 
HETATM    8  C14 UNL     1      22.314   0.804  51.467  1.00  0.00     0.159 C 
ENDROOT
BRANCH   8   9
HETATM    9  N3  UNL     1      21.285   1.787  51.203  1.00  0.00    -0.344 N 
HETATM   10  C15 UNL     1      20.523   1.829  49.987  1.00  0.00     0.248 C 
HETATM   11  O1  UNL     1      20.888   0.902  49.219  1.00  0.00    -0.268 OA
HETATM   12  H17 UNL     1      21.128   2.481  51.967  1.00  0.00     0.163 HD
BRANCH  10  13
HETATM   13  C16 UNL     1      19.488   2.818  49.722  1.00  0.00     0.013 A 
HETATM   14  C17 UNL     1      18.642   3.142  50.677  1.00  0.00     0.049 A 
HETATM   15  C18 UNL     1      17.610   4.132  50.401  1.00  0.00     0.065 A 
HETATM   16  C20 UNL     1      17.601   4.642  49.185  1.00  0.00     0.010 A 
HETATM   17  C21 UNL     1      18.487   4.365  48.037  1.00  0.00     0.035 A 
HETATM   18  C22 UNL     1      19.533   3.351  48.342  1.00  0.00     0.048 A 
BRANCH  15  19
HETATM   19  O2  UNL     1      16.695   4.513  51.358  1.00  0.00    -0.356 OA
HETATM   20  C19 UNL     1      15.981   3.613  52.166  1.00  0.00     0.210 C 
ENDBRANCH  15  19
ENDBRANCH  10  13
ENDBRANCH   8   9
BRANCH   1  21
HETATM   21  C2  UNL     1      19.505   0.310  53.198  1.00  0.00     0.025 C 
HETATM   22  C1  UNL     1      18.655  -0.506  52.227  1.00  0.00     0.009 C 
ENDBRANCH   1  21
BRANCH   5  23
HETATM   23  N2  UNL     1      26.508   0.721  53.454  1.00  0.00    -0.352 N 
HETATM   24  C7  UNL     1      27.094   2.022  53.554  1.00  0.00     0.088 A 
HETATM   25  C8  UNL     1      28.416   2.197  53.645  1.00  0.00    -0.004 A 
HETATM   26  C9  UNL     1      29.366   1.076  53.649  1.00  0.00     0.081 A 
HETATM   27  C10 UNL     1      28.678  -0.215  53.543  1.00  0.00     0.030 A 
HETATM   28 CL1  UNL     1      29.638  -1.674  53.532  1.00  0.00    -0.087 Cl
HETATM   29  C11 UNL     1      27.390  -0.391  53.455  1.00  0.00     0.111 A 
ENDBRANCH   5  23
TORSDOF 5
ENDMDL
MODEL 9
REMARK VINA RESULT:      -7.5      7.782     12.288
REMARK  5 active torsions:
REMARK  status: ('A' for Active; 'I' for Inactive)
REMARK    1  A    between atoms: C2_2  and  C3_3 
REMARK    2  A    between atoms: C6_7  and  N2_8 
REMARK    3  A    between atoms: C14_17  and  N3_18 
REMARK       I    between atoms: N3_18  and  C15_19 
REMARK    4  A    between atoms: C15_19  and  C16_21 
REMARK    5  A    between atoms: C18_23  and  O2_24 
ROOT
HETATM    1  C3  UNL     1      26.414   8.247  49.975  1.00  0.00     0.002 C 
HETATM    2  C4  UNL     1      26.015   7.082  49.477  1.00  0.00     0.056 C 
HETATM    3  N1  UNL     1      24.684   6.612  49.681  1.00  0.00    -0.265 NA
HETATM    4  C5  UNL     1      24.214   5.481  50.086  1.00  0.00     0.119 C 
HETATM    5  C6  UNL     1      24.898   4.258  50.487  1.00  0.00     0.152 C 
HETATM    6  C12 UNL     1      26.077   3.931  49.658  1.00  0.00     0.002 C 
HETATM    7  C13 UNL     1      26.817   4.787  48.983  1.00  0.00     0.003 C 
HETATM    8  C14 UNL     1      26.924   6.239  48.691  1.00  0.00     0.159 C 
ENDROOT
BRANCH   8   9
HETATM    9  N3  UNL     1      28.330   6.558  48.812  1.00  0.00    -0.344 N 
HETATM   10  C15 UNL     1      29.080   7.235  47.793  1.00  0.00     0.248 C 
HETATM   11  O1  UNL     1      28.336   7.495  46.814  1.00  0.00    -0.268 OA
HETATM   12  H17 UNL     1      28.778   6.256  49.706  1.00  0.00     0.163 HD
BRANCH  10  13
HETATM   13  C16 UNL     1      30.496   7.556  47.916  1.00  0.00     0.013 A 
HETATM   14  C17 UNL     1      31.006   8.526  47.187  1.00  0.00     0.049 A 
HETATM   15  C18 UNL     1      32.423   8.837  47.318  1.00  0.00     0.065 A 
HETATM   16  C20 UNL     1      33.104   8.106  48.178  1.00  0.00     0.010 A 
HETATM   17  C21 UNL     1      32.652   7.001  49.047  1.00  0.00     0.035 A 
HETATM   18  C22 UNL     1      31.202   6.700  48.896  1.00  0.00     0.048 A 
BRANCH  15  19
HETATM   19  O2  UNL     1      33.016   9.841  46.584  1.00  0.00    -0.356 OA
HETATM   20  C19 UNL     1      33.063  11.186  46.985  1.00  0.00     0.210 C 
ENDBRANCH  15  19
ENDBRANCH  10  13
ENDBRANCH   8   9
BRANCH   1  21
HETATM   21  C2  UNL     1      27.517   9.198  50.114  1.00  0.00     0.025 C 
HETATM   22  C1  UNL     1      27.509  10.267  49.024  1.00  0.00     0.009 C 
ENDBRANCH   1  21
BRANCH   5  23
HETATM   23  N2  UNL     1      23.967   3.154  50.503  1.00  0.00    -0.352 N 
HETATM   24  C7  UNL     1      23.301   3.126  49.238  1.00  0.00     0.088 A 
HETATM   25  C8  UNL     1      22.370   2.210  48.950  1.00  0.00    -0.004 A 
HETATM   26  C9  UNL     1      21.961   1.168  49.902  1.00  0.00     0.081 A 
HETATM   27  C10 UNL     1      22.694   1.275  51.167  1.00  0.00     0.030 A 
HETATM   28 CL1  UNL     1      22.348   0.122  52.432  1.00  0.00    -0.087 Cl
HETATM   29  C11 UNL     1      23.602   2.166  51.454  1.00  0.00     0.111 A 
ENDBRANCH   5  23
TORSDOF 5
ENDMDL
