MODEL 1
REMARK VINA RESULT:      -7.9      0.000      0.000
REMARK  2 active torsions:
REMARK  status: ('A' for Active; 'I' for Inactive)
REMARK       I    between atoms: C2_2  and  N1_4 
REMARK    1  A    between atoms: N1_4  and  C3_5 
REMARK    2  A    between atoms: C14_20  and  O2_21 
ROOT
HETATM    1  C3  UNL     1      25.939   1.083  52.199  1.00  0.00     0.036 A 
HETATM    2  C4  UNL     1      26.235   2.084  51.252  1.00  0.00     0.039 A 
HETATM    3  C5  UNL     1      25.137   2.868  51.137  1.00  0.00    -0.023 A 
HETATM    4  C6  UNL     1      23.876   3.105  51.552  1.00  0.00     0.079 A 
HETATM    5  N2  UNL     1      22.943   3.968  51.242  1.00  0.00    -0.241 NA
HETATM    6  C7  UNL     1      21.683   3.978  51.712  1.00  0.00     0.236 A 
HETATM    7  N3  UNL     1      21.512   2.911  52.578  1.00  0.00    -0.224 NA
HETATM    8  C8  UNL     1      22.575   2.118  52.791  1.00  0.00     0.137 A 
HETATM    9  C9  UNL     1      23.874   2.041  52.393  1.00  0.00     0.041 A 
HETATM   10  C10 UNL     1      24.707   1.062  52.787  1.00  0.00     0.047 A 
HETATM   11  N4  UNL     1      22.027   0.861  53.313  1.00  0.00    -0.370 N 
HETATM   12  C11 UNL     1      22.250   0.174  52.051  1.00  0.00     0.150 C 
HETATM   13  C12 UNL     1      21.531   0.734  50.875  1.00  0.00     0.019 C 
HETATM   14  C13 UNL     1      21.776   1.419  49.763  1.00  0.00     0.065 C 
HETATM   15 CL1  UNL     1      20.188   1.583  48.940  1.00  0.00    -0.082 Cl
HETATM   16  C14 UNL     1      22.667   2.358  48.959  1.00  0.00     0.100 C 
HETATM   17  C15 UNL     1      23.834   3.050  49.118  1.00  0.00     0.017 C 
HETATM   18  C16 UNL     1      25.122   3.591  49.795  1.00  0.00     0.071 C 
HETATM   19  H8  UNL     1      21.732   0.944  54.286  1.00  0.00     0.161 HD
ENDROOT
BRANCH   1  20
HETATM   20  N1  UNL     1      26.914   0.130  52.528  1.00  0.00    -0.327 N 
HETATM   21  C2  UNL     1      27.775   0.507  53.586  1.00  0.00     0.218 C 
HETATM   22  C1  UNL     1      28.857  -0.428  54.031  1.00  0.00     0.117 C 
HETATM   23  O1  UNL     1      27.538   1.653  54.082  1.00  0.00    -0.274 OA
HETATM   24  H4  UNL     1      26.982  -0.783  52.016  1.00  0.00     0.169 HD
ENDBRANCH   1  20
BRANCH  16  25
HETATM   25  O2  UNL     1      22.174   2.607  47.654  1.00  0.00    -0.277 OA
HETATM   26  I1  UNL     1      21.890   4.478  46.908  1.00  0.00     0.116 I 
ENDBRANCH  16  25
TORSDOF 2
ENDMDL
MODEL 2
REMARK VINA RESULT:      -7.7      2.388      3.618
REMARK  2 active torsions:
REMARK  status: ('A' for Active; 'I' for Inactive)
REMARK       I    between atoms: C2_2  and  N1_4 
REMARK    1  A    between atoms: N1_4  and  C3_5 
REMARK    2  A    between atoms: C14_20  and  O2_21 
ROOT
HETATM    1  C3  UNL     1      25.400   1.513  53.210  1.00  0.00     0.036 A 
HETATM    2  C4  UNL     1      24.270   0.691  53.387  1.00  0.00     0.039 A 
HETATM    3  C5  UNL     1      23.469   0.867  52.310  1.00  0.00    -0.023 A 
HETATM    4  C6  UNL     1      23.295   1.494  51.128  1.00  0.00     0.079 A 
HETATM    5  N2  UNL     1      22.351   1.524  50.223  1.00  0.00    -0.241 NA
HETATM    6  C7  UNL     1      22.322   2.310  49.132  1.00  0.00     0.236 A 
HETATM    7  N3  UNL     1      23.456   3.106  49.115  1.00  0.00    -0.224 NA
HETATM    8  C8  UNL     1      24.331   2.948  50.121  1.00  0.00     0.137 A 
HETATM    9  C9  UNL     1      24.461   2.177  51.235  1.00  0.00     0.041 A 
HETATM   10  C10 UNL     1      25.494   2.289  52.090  1.00  0.00     0.047 A 
HETATM   11  N4  UNL     1      25.133   4.176  50.138  1.00  0.00    -0.370 N 
HETATM   12  C11 UNL     1      24.451   4.674  51.321  1.00  0.00     0.150 C 
HETATM   13  C12 UNL     1      22.984   4.882  51.180  1.00  0.00     0.019 C 
HETATM   14  C13 UNL     1      21.836   4.343  51.577  1.00  0.00     0.065 C 
HETATM   15 CL1  UNL     1      20.549   5.385  50.879  1.00  0.00    -0.082 Cl
HETATM   16  C14 UNL     1      21.049   3.150  52.105  1.00  0.00     0.100 C 
HETATM   17  C15 UNL     1      21.267   1.842  52.431  1.00  0.00     0.017 C 
HETATM   18  C16 UNL     1      22.025   0.503  52.639  1.00  0.00     0.071 C 
HETATM   19  H8  UNL     1      25.815   4.202  49.378  1.00  0.00     0.161 HD
ENDROOT
BRANCH   1  20
HETATM   20  N1  UNL     1      26.413   1.518  54.179  1.00  0.00    -0.327 N 
HETATM   21  C2  UNL     1      27.442   0.571  53.963  1.00  0.00     0.218 C 
HETATM   22  C1  UNL     1      28.582   0.480  54.930  1.00  0.00     0.117 C 
HETATM   23  O1  UNL     1      27.296  -0.144  52.922  1.00  0.00    -0.274 OA
HETATM   24  H4  UNL     1      26.389   2.179  54.993  1.00  0.00     0.169 HD
ENDBRANCH   1  20
BRANCH  16  25
HETATM   25  O2  UNL     1      19.685   3.449  52.346  1.00  0.00    -0.277 OA
HETATM   26  I1  UNL     1      18.157   2.583  51.320  1.00  0.00     0.116 I 
ENDBRANCH  16  25
TORSDOF 2
ENDMDL
MODEL 3
REMARK VINA RESULT:      -7.2      8.869     10.365
REMARK  2 active torsions:
REMARK  status: ('A' for Active; 'I' for Inactive)
REMARK       I    between atoms: C2_2  and  N1_4 
REMARK    1  A    between atoms: N1_4  and  C3_5 
REMARK    2  A    between atoms: C14_20  and  O2_21 
ROOT
HETATM    1  C3  UNL     1      31.953   3.759  46.437  1.00  0.00     0.036 A 
HETATM    2  C4  UNL     1      32.839   4.435  45.575  1.00  0.00     0.039 A 
HETATM    3  C5  UNL     1      32.979   5.697  46.047  1.00  0.00    -0.023 A 
HETATM    4  C6  UNL     1      32.635   6.584  47.003  1.00  0.00     0.079 A 
HETATM    5  N2  UNL     1      32.898   7.844  47.238  1.00  0.00    -0.241 NA
HETATM    6  C7  UNL     1      32.365   8.597  48.217  1.00  0.00     0.236 A 
HETATM    7  N3  UNL     1      31.471   7.828  48.946  1.00  0.00    -0.224 NA
HETATM    8  C8  UNL     1      31.319   6.547  48.575  1.00  0.00     0.137 A 
HETATM    9  C9  UNL     1      31.822   5.702  47.635  1.00  0.00     0.041 A 
HETATM   10  C10 UNL     1      31.423   4.423  47.506  1.00  0.00     0.047 A 
HETATM   11  N4  UNL     1      30.035   6.124  49.143  1.00  0.00    -0.370 N 
HETATM   12  C11 UNL     1      29.379   6.176  47.847  1.00  0.00     0.150 C 
HETATM   13  C12 UNL     1      29.365   7.508  47.183  1.00  0.00     0.019 C 
HETATM   14  C13 UNL     1      29.931   8.142  46.162  1.00  0.00     0.065 C 
HETATM   15 CL1  UNL     1      29.205   9.785  46.155  1.00  0.00    -0.082 Cl
HETATM   16  C14 UNL     1      31.067   8.276  45.154  1.00  0.00     0.100 C 
HETATM   17  C15 UNL     1      32.247   7.657  44.852  1.00  0.00     0.017 C 
HETATM   18  C16 UNL     1      33.422   6.647  44.941  1.00  0.00     0.071 C 
HETATM   19  H8  UNL     1      30.094   5.960  50.149  1.00  0.00     0.161 HD
ENDROOT
BRANCH   1  20
HETATM   20  N1  UNL     1      31.636   2.416  46.191  1.00  0.00    -0.327 N 
HETATM   21  C2  UNL     1      32.348   1.486  46.986  1.00  0.00     0.218 C 
HETATM   22  C1  UNL     1      32.097   0.019  46.816  1.00  0.00     0.117 C 
HETATM   23  O1  UNL     1      33.170   2.005  47.805  1.00  0.00    -0.274 OA
HETATM   24  H4  UNL     1      30.926   2.145  45.469  1.00  0.00     0.169 HD
ENDBRANCH   1  20
BRANCH  16  25
HETATM   25  O2  UNL     1      30.874   9.342  44.242  1.00  0.00    -0.277 OA
HETATM   26  I1  UNL     1      32.276  10.774  43.889  1.00  0.00     0.116 I 
ENDBRANCH  16  25
TORSDOF 2
ENDMDL
MODEL 4
REMARK VINA RESULT:      -7.2      2.874      3.924
REMARK  2 active torsions:
REMARK  status: ('A' for Active; 'I' for Inactive)
REMARK       I    between atoms: C2_2  and  N1_4 
REMARK    1  A    between atoms: N1_4  and  C3_5 
REMARK    2  A    between atoms: C14_20  and  O2_21 
ROOT
HETATM    1  C3  UNL     1      22.308   0.978  52.575  1.00  0.00     0.036 A 
HETATM    2  C4  UNL     1      21.775   0.513  51.356  1.00  0.00     0.039 A 
HETATM    3  C5  UNL     1      22.194   1.357  50.384  1.00  0.00    -0.023 A 
HETATM    4  C6  UNL     1      22.917   2.456  50.083  1.00  0.00     0.079 A 
HETATM    5  N2  UNL     1      23.156   3.140  48.994  1.00  0.00    -0.241 NA
HETATM    6  C7  UNL     1      23.842   4.295  48.916  1.00  0.00     0.236 A 
HETATM    7  N3  UNL     1      24.252   4.666  50.187  1.00  0.00    -0.224 NA
HETATM    8  C8  UNL     1      23.925   3.848  51.200  1.00  0.00     0.137 A 
HETATM    9  C9  UNL     1      23.271   2.668  51.374  1.00  0.00     0.041 A 
HETATM   10  C10 UNL     1      23.084   2.102  52.580  1.00  0.00     0.047 A 
HETATM   11  N4  UNL     1      24.030   4.666  52.413  1.00  0.00    -0.370 N 
HETATM   12  C11 UNL     1      22.585   4.770  52.537  1.00  0.00     0.150 C 
HETATM   13  C12 UNL     1      21.884   5.420  51.397  1.00  0.00     0.019 C 
HETATM   14  C13 UNL     1      21.092   5.109  50.377  1.00  0.00     0.065 C 
HETATM   15 CL1  UNL     1      20.737   6.664  49.551  1.00  0.00    -0.082 Cl
HETATM   16  C14 UNL     1      20.541   4.079  49.398  1.00  0.00     0.100 C 
HETATM   17  C15 UNL     1      20.709   2.756  49.101  1.00  0.00     0.017 C 
HETATM   18  C16 UNL     1      21.261   1.308  49.179  1.00  0.00     0.071 C 
HETATM   19  H8  UNL     1      25.000   4.828  52.686  1.00  0.00     0.161 HD
ENDROOT
BRANCH   1  20
HETATM   20  N1  UNL     1      22.044   0.276  53.759  1.00  0.00    -0.327 N 
HETATM   21  C2  UNL     1      23.033  -0.670  54.120  1.00  0.00     0.218 C 
HETATM   22  C1  UNL     1      22.864  -1.482  55.367  1.00  0.00     0.117 C 
HETATM   23  O1  UNL     1      24.015  -0.744  53.316  1.00  0.00    -0.274 OA
HETATM   24  H4  UNL     1      21.174   0.454  54.318  1.00  0.00     0.169 HD
ENDBRANCH   1  20
BRANCH  16  25
HETATM   25  O2  UNL     1      19.560   4.612  48.526  1.00  0.00    -0.277 OA
HETATM   26  I1  UNL     1      18.764   3.569  46.973  1.00  0.00     0.116 I 
ENDBRANCH  16  25
TORSDOF 2
ENDMDL
MODEL 5
REMARK VINA RESULT:      -7.1      3.806      5.901
REMARK  2 active torsions:
REMARK  status: ('A' for Active; 'I' for Inactive)
REMARK       I    between atoms: C2_2  and  N1_4 
REMARK    1  A    between atoms: N1_4  and  C3_5 
REMARK    2  A    between atoms: C14_20  and  O2_21 
ROOT
HETATM    1  C3  UNL     1      25.587   6.929  49.984  1.00  0.00     0.036 A 
HETATM    2  C4  UNL     1      26.459   5.989  49.401  1.00  0.00     0.039 A 
HETATM    3  C5  UNL     1      25.779   4.824  49.287  1.00  0.00    -0.023 A 
HETATM    4  C6  UNL     1      24.612   4.179  49.488  1.00  0.00     0.079 A 
HETATM    5  N2  UNL     1      24.186   2.955  49.311  1.00  0.00    -0.241 NA
HETATM    6  C7  UNL     1      22.984   2.472  49.676  1.00  0.00     0.236 A 
HETATM    7  N3  UNL     1      22.257   3.480  50.288  1.00  0.00    -0.224 NA
HETATM    8  C8  UNL     1      22.841   4.685  50.388  1.00  0.00     0.137 A 
HETATM    9  C9  UNL     1      24.018   5.268  50.034  1.00  0.00     0.041 A 
HETATM   10  C10 UNL     1      24.318   6.549  50.315  1.00  0.00     0.047 A 
HETATM   11  N4  UNL     1      22.114   5.386  51.451  1.00  0.00    -0.370 N 
HETATM   12  C11 UNL     1      23.205   5.205  52.395  1.00  0.00     0.150 C 
HETATM   13  C12 UNL     1      23.566   3.794  52.703  1.00  0.00     0.019 C 
HETATM   14  C13 UNL     1      24.531   2.914  52.462  1.00  0.00     0.065 C 
HETATM   15 CL1  UNL     1      24.050   1.421  53.338  1.00  0.00    -0.082 Cl
HETATM   16  C14 UNL     1      25.706   2.440  51.615  1.00  0.00     0.100 C 
HETATM   17  C15 UNL     1      26.368   2.814  50.480  1.00  0.00     0.017 C 
HETATM   18  C16 UNL     1      26.737   3.639  49.218  1.00  0.00     0.071 C 
HETATM   19  H8  UNL     1      21.198   5.712  51.141  1.00  0.00     0.161 HD
ENDROOT
BRANCH   1  20
HETATM   20  N1  UNL     1      26.029   8.241  50.208  1.00  0.00    -0.327 N 
HETATM   21  C2  UNL     1      26.017   9.072  49.062  1.00  0.00     0.218 C 
HETATM   22  C1  UNL     1      26.468  10.496  49.174  1.00  0.00     0.117 C 
HETATM   23  O1  UNL     1      25.607   8.508  48.000  1.00  0.00    -0.274 OA
HETATM   24  H4  UNL     1      26.342   8.559  51.157  1.00  0.00     0.169 HD
ENDBRANCH   1  20
BRANCH  16  25
HETATM   25  O2  UNL     1      26.321   1.270  52.126  1.00  0.00    -0.277 OA
HETATM   26  I1  UNL     1      27.879   1.311  53.432  1.00  0.00     0.116 I 
ENDBRANCH  16  25
TORSDOF 2
ENDMDL
MODEL 6
REMARK VINA RESULT:      -6.9      9.081     10.526
REMARK  2 active torsions:
REMARK  status: ('A' for Active; 'I' for Inactive)
REMARK       I    between atoms: C2_2  and  N1_4 
REMARK    1  A    between atoms: N1_4  and  C3_5 
REMARK    2  A    between atoms: C14_20  and  O2_21 
ROOT
HETATM    1  C3  UNL     1      32.743   5.166  48.278  1.00  0.00     0.036 A 
HETATM    2  C4  UNL     1      33.748   5.994  47.740  1.00  0.00     0.039 A 
HETATM    3  C5  UNL     1      33.300   7.271  47.813  1.00  0.00    -0.023 A 
HETATM    4  C6  UNL     1      32.299   8.091  48.190  1.00  0.00     0.079 A 
HETATM    5  N2  UNL     1      32.075   9.378  48.117  1.00  0.00    -0.241 NA
HETATM    6  C7  UNL     1      30.941  10.009  48.472  1.00  0.00     0.236 A 
HETATM    7  N3  UNL     1      30.023   9.073  48.922  1.00  0.00    -0.224 NA
HETATM    8  C8  UNL     1      30.413   7.789  48.936  1.00  0.00     0.137 A 
HETATM    9  C9  UNL     1      31.525   7.068  48.629  1.00  0.00     0.041 A 
HETATM   10  C10 UNL     1      31.586   5.728  48.736  1.00  0.00     0.047 A 
HETATM   11  N4  UNL     1      29.175   7.004  48.971  1.00  0.00    -0.370 N 
HETATM   12  C11 UNL     1      29.305   6.628  47.573  1.00  0.00     0.150 C 
HETATM   13  C12 UNL     1      29.310   7.754  46.600  1.00  0.00     0.019 C 
HETATM   14  C13 UNL     1      30.147   8.404  45.798  1.00  0.00     0.065 C 
HETATM   15 CL1  UNL     1      29.149   9.643  44.964  1.00  0.00    -0.082 Cl
HETATM   16  C14 UNL     1      31.566   8.806  45.417  1.00  0.00     0.100 C 
HETATM   17  C15 UNL     1      32.840   8.634  45.879  1.00  0.00     0.017 C 
HETATM   18  C16 UNL     1      34.003   8.154  46.787  1.00  0.00     0.071 C 
HETATM   19  H8  UNL     1      28.737   7.016  49.893  1.00  0.00     0.161 HD
ENDROOT
BRANCH   1  20
HETATM   20  N1  UNL     1      32.948   3.780  48.343  1.00  0.00    -0.327 N 
HETATM   21  C2  UNL     1      32.585   3.074  47.171  1.00  0.00     0.218 C 
HETATM   22  C1  UNL     1      32.759   1.587  47.118  1.00  0.00     0.117 C 
HETATM   23  O1  UNL     1      32.127   3.798  46.234  1.00  0.00    -0.274 OA
HETATM   24  H4  UNL     1      33.340   3.325  49.202  1.00  0.00     0.169 HD
ENDBRANCH   1  20
BRANCH  16  25
HETATM   25  O2  UNL     1      31.621   9.588  44.236  1.00  0.00    -0.277 OA
HETATM   26  I1  UNL     1      32.751  11.270  44.065  1.00  0.00     0.116 I 
ENDBRANCH  16  25
TORSDOF 2
ENDMDL
MODEL 7
REMARK VINA RESULT:      -6.9      3.215      5.058
REMARK  2 active torsions:
REMARK  status: ('A' for Active; 'I' for Inactive)
REMARK       I    between atoms: C2_2  and  N1_4 
REMARK    1  A    between atoms: N1_4  and  C3_5 
REMARK    2  A    between atoms: C14_20  and  O2_21 
ROOT
HETATM    1  C3  UNL     1      24.090   7.657  50.841  1.00  0.00     0.036 A 
HETATM    2  C4  UNL     1      22.892   7.981  50.173  1.00  0.00     0.039 A 
HETATM    3  C5  UNL     1      22.018   6.971  50.398  1.00  0.00    -0.023 A 
HETATM    4  C6  UNL     1      21.804   5.783  51.000  1.00  0.00     0.079 A 
HETATM    5  N2  UNL     1      20.813   4.929  51.041  1.00  0.00    -0.241 NA
HETATM    6  C7  UNL     1      20.830   3.722  51.634  1.00  0.00     0.236 A 
HETATM    7  N3  UNL     1      22.080   3.508  52.194  1.00  0.00    -0.224 NA
HETATM    8  C8  UNL     1      22.986   4.490  52.064  1.00  0.00     0.137 A 
HETATM    9  C9  UNL     1      23.056   5.734  51.517  1.00  0.00     0.041 A 
HETATM   10  C10 UNL     1      24.172   6.484  51.536  1.00  0.00     0.047 A 
HETATM   11  N4  UNL     1      24.288   3.853  52.284  1.00  0.00    -0.370 N 
HETATM   12  C11 UNL     1      24.611   3.890  50.868  1.00  0.00     0.150 C 
HETATM   13  C12 UNL     1      23.686   3.141  49.974  1.00  0.00     0.019 C 
HETATM   14  C13 UNL     1      22.740   3.366  49.069  1.00  0.00     0.065 C 
HETATM   15 CL1  UNL     1      22.220   1.742  48.504  1.00  0.00    -0.082 Cl
HETATM   16  C14 UNL     1      21.691   4.284  48.454  1.00  0.00     0.100 C 
HETATM   17  C15 UNL     1      21.171   5.530  48.662  1.00  0.00     0.017 C 
HETATM   18  C16 UNL     1      20.951   6.922  49.311  1.00  0.00     0.071 C 
HETATM   19  H8  UNL     1      24.457   3.652  53.271  1.00  0.00     0.161 HD
ENDROOT
BRANCH   1  20
HETATM   20  N1  UNL     1      25.174   8.544  50.789  1.00  0.00    -0.327 N 
HETATM   21  C2  UNL     1      26.248   8.118  49.971  1.00  0.00     0.218 C 
HETATM   22  C1  UNL     1      27.465   8.982  49.835  1.00  0.00     0.117 C 
HETATM   23  O1  UNL     1      26.071   6.995  49.403  1.00  0.00    -0.274 OA
HETATM   24  H4  UNL     1      25.170   9.446  51.325  1.00  0.00     0.169 HD
ENDBRANCH   1  20
BRANCH  16  25
HETATM   25  O2  UNL     1      21.047   3.713  47.329  1.00  0.00    -0.277 OA
HETATM   26  I1  UNL     1      21.533   4.179  45.410  1.00  0.00     0.116 I 
ENDBRANCH  16  25
TORSDOF 2
ENDMDL
MODEL 8
REMARK VINA RESULT:      -6.8      2.253      2.840
REMARK  2 active torsions:
REMARK  status: ('A' for Active; 'I' for Inactive)
REMARK       I    between atoms: C2_2  and  N1_4 
REMARK    1  A    between atoms: N1_4  and  C3_5 
REMARK    2  A    between atoms: C14_20  and  O2_21 
ROOT
HETATM    1  C3  UNL     1      23.947   1.333  52.699  1.00  0.00     0.036 A 
HETATM    2  C4  UNL     1      24.237   2.647  53.117  1.00  0.00     0.039 A 
HETATM    3  C5  UNL     1      23.239   3.444  52.665  1.00  0.00    -0.023 A 
HETATM    4  C6  UNL     1      22.075   3.513  51.988  1.00  0.00     0.079 A 
HETATM    5  N2  UNL     1      21.264   4.475  51.632  1.00  0.00    -0.241 NA
HETATM    6  C7  UNL     1      20.174   4.349  50.853  1.00  0.00     0.236 A 
HETATM    7  N3  UNL     1      20.045   3.025  50.465  1.00  0.00    -0.224 NA
HETATM    8  C8  UNL     1      20.964   2.159  50.921  1.00  0.00     0.137 A 
HETATM    9  C9  UNL     1      22.065   2.184  51.720  1.00  0.00     0.041 A 
HETATM   10  C10 UNL     1      22.817   1.097  51.969  1.00  0.00     0.047 A 
HETATM   11  N4  UNL     1      20.896   1.005  50.020  1.00  0.00    -0.370 N 
HETATM   12  C11 UNL     1      22.135   1.377  49.357  1.00  0.00     0.150 C 
HETATM   13  C12 UNL     1      22.133   2.704  48.683  1.00  0.00     0.019 C 
HETATM   14  C13 UNL     1      22.641   3.923  48.831  1.00  0.00     0.065 C 
HETATM   15 CL1  UNL     1      22.061   4.861  47.414  1.00  0.00    -0.082 Cl
HETATM   16  C14 UNL     1      23.250   5.001  49.719  1.00  0.00     0.100 C 
HETATM   17  C15 UNL     1      23.563   5.189  51.035  1.00  0.00     0.017 C 
HETATM   18  C16 UNL     1      23.706   4.890  52.551  1.00  0.00     0.071 C 
HETATM   19  H8  UNL     1      20.075   0.425  50.197  1.00  0.00     0.161 HD
ENDROOT
BRANCH   1  20
HETATM   20  N1  UNL     1      24.815   0.288  53.046  1.00  0.00    -0.327 N 
HETATM   21  C2  UNL     1      26.031   0.265  52.321  1.00  0.00     0.218 C 
HETATM   22  C1  UNL     1      27.042  -0.804  52.602  1.00  0.00     0.117 C 
HETATM   23  O1  UNL     1      26.157   1.194  51.464  1.00  0.00    -0.274 OA
HETATM   24  H4  UNL     1      24.563  -0.411  53.785  1.00  0.00     0.169 HD
ENDBRANCH   1  20
BRANCH  16  25
HETATM   25  O2  UNL     1      23.617   6.167  49.001  1.00  0.00    -0.277 OA
HETATM   26  I1  UNL     1      23.242   8.051  49.669  1.00  0.00     0.116 I 
ENDBRANCH  16  25
TORSDOF 2
ENDMDL
MODEL 9
REMARK VINA RESULT:      -6.8      3.358      4.898
REMARK  2 active torsions:
REMARK  status: ('A' for Active; 'I' for Inactive)
REMARK       I    between atoms: C2_2  and  N1_4 
REMARK    1  A    between atoms: N1_4  and  C3_5 
REMARK    2  A    between atoms: C14_20  and  O2_21 
ROOT
HETATM    1  C3  UNL     1      21.924   1.071  50.581  1.00  0.00     0.036 A 
HETATM    2  C4  UNL     1      21.718   1.461  49.242  1.00  0.00     0.039 A 
HETATM    3  C5  UNL     1      22.686   2.354  48.928  1.00  0.00    -0.023 A 
HETATM    4  C6  UNL     1      23.774   3.028  49.353  1.00  0.00     0.079 A 
HETATM    5  N2  UNL     1      24.572   3.925  48.833  1.00  0.00    -0.241 NA
HETATM    6  C7  UNL     1      25.570   4.565  49.469  1.00  0.00     0.236 A 
HETATM    7  N3  UNL     1      25.620   4.134  50.785  1.00  0.00    -0.224 NA
HETATM    8  C8  UNL     1      24.728   3.203  51.159  1.00  0.00     0.137 A 
HETATM    9  C9  UNL     1      23.717   2.488  50.595  1.00  0.00     0.041 A 
HETATM   10  C10 UNL     1      22.963   1.611  51.282  1.00  0.00     0.047 A 
HETATM   11  N4  UNL     1      24.667   3.285  52.622  1.00  0.00    -0.370 N 
HETATM   12  C11 UNL     1      23.377   3.954  52.589  1.00  0.00     0.150 C 
HETATM   13  C12 UNL     1      23.348   5.264  51.882  1.00  0.00     0.019 C 
HETATM   14  C13 UNL     1      22.894   5.804  50.757  1.00  0.00     0.065 C 
HETATM   15 CL1  UNL     1      23.351   7.540  50.838  1.00  0.00    -0.082 Cl
HETATM   16  C14 UNL     1      22.414   5.653  49.318  1.00  0.00     0.100 C 
HETATM   17  C15 UNL     1      22.246   4.663  48.393  1.00  0.00     0.017 C 
HETATM   18  C16 UNL     1      22.252   3.242  47.767  1.00  0.00     0.071 C 
HETATM   19  H8  UNL     1      25.485   2.865  53.066  1.00  0.00     0.161 HD
ENDROOT
BRANCH   1  20
HETATM   20  N1  UNL     1      21.066   0.131  51.169  1.00  0.00    -0.327 N 
HETATM   21  C2  UNL     1      19.941   0.686  51.825  1.00  0.00     0.218 C 
HETATM   22  C1  UNL     1      18.951  -0.218  52.492  1.00  0.00     0.117 C 
HETATM   23  O1  UNL     1      19.875   1.954  51.785  1.00  0.00    -0.274 OA
HETATM   24  H4  UNL     1      21.262  -0.898  51.115  1.00  0.00     0.169 HD
ENDBRANCH   1  20
BRANCH  16  25
HETATM   25  O2  UNL     1      22.008   6.881  48.738  1.00  0.00    -0.277 OA
HETATM   26  I1  UNL     1      22.643   7.514  46.913  1.00  0.00     0.116 I 
ENDBRANCH  16  25
TORSDOF 2
ENDMDL
