MODEL 1
REMARK VINA RESULT:      -7.9      0.000      0.000
REMARK  4 active torsions:
REMARK  status: ('A' for Active; 'I' for Inactive)
REMARK    1  A    between atoms: C4_4  and  C5_5 
REMARK    2  A    between atoms: C10_12  and  N3_13 
REMARK    3  A    between atoms: N3_13  and  C11_14 
REMARK    4  A    between atoms: C18_22  and  O1_23 
ROOT
HETATM    1  C5  UNL     1      26.528   0.168  53.141  1.00  0.00    -0.015 A 
HETATM    2  C6  UNL     1      25.858  -0.539  54.145  1.00  0.00     0.013 A 
HETATM    3  C7  UNL     1      24.484  -0.469  54.216  1.00  0.00     0.033 A 
HETATM    4  C8  UNL     1      23.807   0.293  53.298  1.00  0.00     0.075 A 
HETATM    5  N1  UNL     1      22.465   0.380  53.338  1.00  0.00    -0.241 NA
HETATM    6  C9  UNL     1      21.782   1.121  52.447  1.00  0.00     0.236 A 
HETATM    7  N2  UNL     1      22.451   1.787  51.497  1.00  0.00    -0.223 NA
HETATM    8  C10 UNL     1      23.777   1.771  51.364  1.00  0.00     0.144 A 
HETATM    9  C17 UNL     1      24.426   1.004  52.294  1.00  0.00     0.072 A 
HETATM   10  C18 UNL     1      25.797   0.919  52.244  1.00  0.00     0.089 A 
ENDROOT
BRANCH   8  11
HETATM   11  N3  UNL     1      24.394   2.503  50.324  1.00  0.00    -0.340 N 
HETATM   12  H9  UNL     1      24.815   2.315  49.400  1.00  0.00     0.167 HD
BRANCH  11  13
HETATM   13  C11 UNL     1      24.569   3.912  50.417  1.00  0.00     0.035 A 
HETATM   14  C12 UNL     1      23.881   4.804  51.224  1.00  0.00     0.029 A 
HETATM   15  C13 UNL     1      24.059   6.162  51.280  1.00  0.00     0.004 A 
HETATM   16  C14 UNL     1      25.011   6.713  50.463  1.00  0.00     0.019 A 
HETATM   17  C15 UNL     1      25.737   5.883  49.630  1.00  0.00     0.013 A 
HETATM   18 BR1  UNL     1      27.024   6.810  48.554  1.00  0.00    -0.051 Br
HETATM   19  C16 UNL     1      25.518   4.531  49.612  1.00  0.00     0.048 A 
ENDBRANCH  11  13
ENDBRANCH   8  11
BRANCH  10  20
HETATM   20  O1  UNL     1      26.594   1.558  51.315  1.00  0.00    -0.359 OA
HETATM   21  H14 UNL     1      26.866   1.038  50.494  1.00  0.00     0.217 HD
ENDBRANCH  10  20
BRANCH   1  22
HETATM   22  C4  UNL     1      28.024   0.056  53.111  1.00  0.00     0.053 A 
HETATM   23  C2  UNL     1      28.745   1.168  53.917  1.00  0.00    -0.079 A 
HETATM   24  C1  UNL     1      29.026   2.457  53.779  1.00  0.00     0.015 C 
HETATM   25  C3  UNL     1      28.637  -0.217  54.442  1.00  0.00     0.048 A 
ENDBRANCH   1  22
TORSDOF 4
ENDMDL
MODEL 2
REMARK VINA RESULT:      -7.8      2.041      2.438
REMARK  4 active torsions:
REMARK  status: ('A' for Active; 'I' for Inactive)
REMARK    1  A    between atoms: C4_4  and  C5_5 
REMARK    2  A    between atoms: C10_12  and  N3_13 
REMARK    3  A    between atoms: N3_13  and  C11_14 
REMARK    4  A    between atoms: C18_22  and  O1_23 
ROOT
HETATM    1  C5  UNL     1      26.080   0.245  52.859  1.00  0.00    -0.015 A 
HETATM    2  C6  UNL     1      25.536  -0.672  53.764  1.00  0.00     0.013 A 
HETATM    3  C7  UNL     1      24.182  -0.643  54.021  1.00  0.00     0.033 A 
HETATM    4  C8  UNL     1      23.402   0.285  53.381  1.00  0.00     0.075 A 
HETATM    5  N1  UNL     1      22.077   0.339  53.608  1.00  0.00    -0.241 NA
HETATM    6  C9  UNL     1      21.293   1.241  52.990  1.00  0.00     0.236 A 
HETATM    7  N2  UNL     1      21.842   2.106  52.128  1.00  0.00    -0.223 NA
HETATM    8  C10 UNL     1      23.141   2.142  51.828  1.00  0.00     0.144 A 
HETATM    9  C17 UNL     1      23.895   1.206  52.482  1.00  0.00     0.072 A 
HETATM   10  C18 UNL     1      25.248   1.157  52.243  1.00  0.00     0.089 A 
ENDROOT
BRANCH   8  11
HETATM   11  N3  UNL     1      23.628   3.090  50.899  1.00  0.00    -0.340 N 
HETATM   12  H9  UNL     1      24.339   3.837  50.868  1.00  0.00     0.167 HD
BRANCH  11  13
HETATM   13  C11 UNL     1      23.090   3.177  49.584  1.00  0.00     0.035 A 
HETATM   14  C12 UNL     1      22.608   2.147  48.791  1.00  0.00     0.029 A 
HETATM   15  C13 UNL     1      22.112   2.258  47.518  1.00  0.00     0.004 A 
HETATM   16  C14 UNL     1      22.079   3.506  46.955  1.00  0.00     0.019 A 
HETATM   17  C15 UNL     1      22.544   4.582  47.688  1.00  0.00     0.013 A 
HETATM   18 BR1  UNL     1      22.428   6.253  46.757  1.00  0.00    -0.051 Br
HETATM   19  C16 UNL     1      23.031   4.416  48.957  1.00  0.00     0.048 A 
ENDBRANCH  11  13
ENDBRANCH   8  11
BRANCH  10  20
HETATM   20  O1  UNL     1      25.927   1.993  51.379  1.00  0.00    -0.359 OA
HETATM   21  H14 UNL     1      25.584   2.937  51.275  1.00  0.00     0.217 HD
ENDBRANCH  10  20
BRANCH   1  22
HETATM   22  C4  UNL     1      27.558   0.168  52.616  1.00  0.00     0.053 A 
HETATM   23  C2  UNL     1      28.386   1.102  53.536  1.00  0.00    -0.079 A 
HETATM   24  C1  UNL     1      28.658   2.397  53.632  1.00  0.00     0.015 C 
HETATM   25  C3  UNL     1      28.334  -0.362  53.773  1.00  0.00     0.048 A 
ENDBRANCH   1  22
TORSDOF 4
ENDMDL
MODEL 3
REMARK VINA RESULT:      -7.7      2.337      5.754
REMARK  4 active torsions:
REMARK  status: ('A' for Active; 'I' for Inactive)
REMARK    1  A    between atoms: C4_4  and  C5_5 
REMARK    2  A    between atoms: C10_12  and  N3_13 
REMARK    3  A    between atoms: N3_13  and  C11_14 
REMARK    4  A    between atoms: C18_22  and  O1_23 
ROOT
HETATM    1  C5  UNL     1      24.150   4.409  49.844  1.00  0.00    -0.015 A 
HETATM    2  C6  UNL     1      23.281   4.287  48.755  1.00  0.00     0.013 A 
HETATM    3  C7  UNL     1      22.394   3.234  48.715  1.00  0.00     0.033 A 
HETATM    4  C8  UNL     1      22.384   2.331  49.748  1.00  0.00     0.075 A 
HETATM    5  N1  UNL     1      21.529   1.293  49.742  1.00  0.00    -0.241 NA
HETATM    6  C9  UNL     1      21.502   0.398  50.746  1.00  0.00     0.236 A 
HETATM    7  N2  UNL     1      22.346   0.541  51.775  1.00  0.00    -0.223 NA
HETATM    8  C10 UNL     1      23.233   1.530  51.885  1.00  0.00     0.144 A 
HETATM    9  C17 UNL     1      23.220   2.414  50.840  1.00  0.00     0.072 A 
HETATM   10  C18 UNL     1      24.097   3.473  50.855  1.00  0.00     0.089 A 
ENDROOT
BRANCH   8  11
HETATM   11  N3  UNL     1      24.079   1.602  53.015  1.00  0.00    -0.340 N 
HETATM   12  H9  UNL     1      24.121   2.117  53.909  1.00  0.00     0.167 HD
BRANCH  11  13
HETATM   13  C11 UNL     1      25.256   0.806  53.107  1.00  0.00     0.035 A 
HETATM   14  C12 UNL     1      25.404  -0.535  52.790  1.00  0.00     0.029 A 
HETATM   15  C13 UNL     1      26.547  -1.281  52.906  1.00  0.00     0.004 A 
HETATM   16  C14 UNL     1      27.669  -0.656  53.381  1.00  0.00     0.019 A 
HETATM   17  C15 UNL     1      27.596   0.682  53.718  1.00  0.00     0.013 A 
HETATM   18 BR1  UNL     1      29.250   1.403  54.364  1.00  0.00    -0.051 Br
HETATM   19  C16 UNL     1      26.427   1.383  53.583  1.00  0.00     0.048 A 
ENDBRANCH  11  13
ENDBRANCH   8  11
BRANCH  10  20
HETATM   20  O1  UNL     1      25.012   3.726  51.859  1.00  0.00    -0.359 OA
HETATM   21  H14 UNL     1      25.418   4.648  51.901  1.00  0.00     0.217 HD
ENDBRANCH  10  20
BRANCH   1  22
HETATM   22  C4  UNL     1      25.094   5.575  49.835  1.00  0.00     0.053 A 
HETATM   23  C2  UNL     1      26.283   5.402  48.852  1.00  0.00    -0.079 A 
HETATM   24  C1  UNL     1      27.419   4.720  48.795  1.00  0.00     0.015 C 
HETATM   25  C3  UNL     1      25.145   6.302  48.534  1.00  0.00     0.048 A 
ENDBRANCH   1  22
TORSDOF 4
ENDMDL
MODEL 4
REMARK VINA RESULT:      -7.7      2.019      4.541
REMARK  4 active torsions:
REMARK  status: ('A' for Active; 'I' for Inactive)
REMARK    1  A    between atoms: C4_4  and  C5_5 
REMARK    2  A    between atoms: C10_12  and  N3_13 
REMARK    3  A    between atoms: N3_13  and  C11_14 
REMARK    4  A    between atoms: C18_22  and  O1_23 
ROOT
HETATM    1  C5  UNL     1      22.353   0.884  53.109  1.00  0.00    -0.015 A 
HETATM    2  C6  UNL     1      22.893  -0.254  53.718  1.00  0.00     0.013 A 
HETATM    3  C7  UNL     1      24.257  -0.448  53.694  1.00  0.00     0.033 A 
HETATM    4  C8  UNL     1      25.052   0.481  53.074  1.00  0.00     0.075 A 
HETATM    5  N1  UNL     1      26.387   0.323  53.035  1.00  0.00    -0.241 NA
HETATM    6  C9  UNL     1      27.185   1.223  52.433  1.00  0.00     0.236 A 
HETATM    7  N2  UNL     1      26.640   2.302  51.859  1.00  0.00    -0.223 NA
HETATM    8  C10 UNL     1      25.332   2.560  51.838  1.00  0.00     0.144 A 
HETATM    9  C17 UNL     1      24.564   1.615  52.463  1.00  0.00     0.072 A 
HETATM   10  C18 UNL     1      23.200   1.786  52.500  1.00  0.00     0.089 A 
ENDROOT
BRANCH   8  11
HETATM   11  N3  UNL     1      24.850   3.732  51.212  1.00  0.00    -0.340 N 
HETATM   12  H9  UNL     1      23.986   4.297  51.204  1.00  0.00     0.167 HD
BRANCH  11  13
HETATM   13  C11 UNL     1      25.657   4.463  50.294  1.00  0.00     0.035 A 
HETATM   14  C12 UNL     1      26.693   3.989  49.506  1.00  0.00     0.029 A 
HETATM   15  C13 UNL     1      27.466   4.721  48.643  1.00  0.00     0.004 A 
HETATM   16  C14 UNL     1      27.202   6.061  48.535  1.00  0.00     0.019 A 
HETATM   17  C15 UNL     1      26.182   6.604  49.292  1.00  0.00     0.013 A 
HETATM   18 BR1  UNL     1      25.944   8.487  49.022  1.00  0.00    -0.051 Br
HETATM   19  C16 UNL     1      25.439   5.827  50.140  1.00  0.00     0.048 A 
ENDBRANCH  11  13
ENDBRANCH   8  11
BRANCH  10  20
HETATM   20  O1  UNL     1      22.524   2.855  51.945  1.00  0.00    -0.359 OA
HETATM   21  H14 UNL     1      21.577   3.021  52.252  1.00  0.00     0.217 HD
ENDBRANCH  10  20
BRANCH   1  22
HETATM   22  C4  UNL     1      20.863   1.045  53.166  1.00  0.00     0.053 A 
HETATM   23  C2  UNL     1      20.124   0.395  51.966  1.00  0.00    -0.079 A 
HETATM   24  C1  UNL     1      19.916   0.655  50.682  1.00  0.00     0.015 C 
HETATM   25  C3  UNL     1      20.121  -0.240  53.309  1.00  0.00     0.048 A 
ENDBRANCH   1  22
TORSDOF 4
ENDMDL
MODEL 5
REMARK VINA RESULT:      -7.5      2.665      4.745
REMARK  4 active torsions:
REMARK  status: ('A' for Active; 'I' for Inactive)
REMARK    1  A    between atoms: C4_4  and  C5_5 
REMARK    2  A    between atoms: C10_12  and  N3_13 
REMARK    3  A    between atoms: N3_13  and  C11_14 
REMARK    4  A    between atoms: C18_22  and  O1_23 
ROOT
HETATM    1  C5  UNL     1      22.558   0.391  53.559  1.00  0.00    -0.015 A 
HETATM    2  C6  UNL     1      23.479  -0.589  53.941  1.00  0.00     0.013 A 
HETATM    3  C7  UNL     1      24.775  -0.514  53.478  1.00  0.00     0.033 A 
HETATM    4  C8  UNL     1      25.128   0.523  52.654  1.00  0.00     0.075 A 
HETATM    5  N1  UNL     1      26.385   0.628  52.186  1.00  0.00    -0.241 NA
HETATM    6  C9  UNL     1      26.753   1.638  51.378  1.00  0.00     0.236 A 
HETATM    7  N2  UNL     1      25.850   2.562  51.029  1.00  0.00    -0.223 NA
HETATM    8  C10 UNL     1      24.579   2.558  51.434  1.00  0.00     0.144 A 
HETATM    9  C17 UNL     1      24.255   1.511  52.253  1.00  0.00     0.072 A 
HETATM   10  C18 UNL     1      22.968   1.413  52.729  1.00  0.00     0.089 A 
ENDROOT
BRANCH   8  11
HETATM   11  N3  UNL     1      23.699   3.582  51.017  1.00  0.00    -0.340 N 
HETATM   12  H9  UNL     1      23.252   4.420  51.422  1.00  0.00     0.167 HD
BRANCH  11  13
HETATM   13  C11 UNL     1      23.181   3.615  49.692  1.00  0.00     0.035 A 
HETATM   14  C12 UNL     1      22.701   2.556  48.938  1.00  0.00     0.029 A 
HETATM   15  C13 UNL     1      22.224   2.614  47.655  1.00  0.00     0.004 A 
HETATM   16  C14 UNL     1      22.210   3.837  47.037  1.00  0.00     0.019 A 
HETATM   17  C15 UNL     1      22.673   4.940  47.729  1.00  0.00     0.013 A 
HETATM   18 BR1  UNL     1      22.584   6.570  46.724  1.00  0.00    -0.051 Br
HETATM   19  C16 UNL     1      23.141   4.826  49.011  1.00  0.00     0.048 A 
ENDBRANCH  11  13
ENDBRANCH   8  11
BRANCH  10  20
HETATM   20  O1  UNL     1      21.951   2.302  52.440  1.00  0.00    -0.359 OA
HETATM   21  H14 UNL     1      21.076   2.185  52.927  1.00  0.00     0.217 HD
ENDBRANCH  10  20
BRANCH   1  22
HETATM   22  C4  UNL     1      21.162   0.260  54.093  1.00  0.00     0.053 A 
HETATM   23  C2  UNL     1      20.173  -0.390  53.090  1.00  0.00    -0.079 A 
HETATM   24  C1  UNL     1      19.520  -0.041  51.990  1.00  0.00     0.015 C 
HETATM   25  C3  UNL     1      20.704  -1.150  54.249  1.00  0.00     0.048 A 
ENDBRANCH   1  22
TORSDOF 4
ENDMDL
MODEL 6
REMARK VINA RESULT:      -7.5      1.607      2.219
REMARK  4 active torsions:
REMARK  status: ('A' for Active; 'I' for Inactive)
REMARK    1  A    between atoms: C4_4  and  C5_5 
REMARK    2  A    between atoms: C10_12  and  N3_13 
REMARK    3  A    between atoms: N3_13  and  C11_14 
REMARK    4  A    between atoms: C18_22  and  O1_23 
ROOT
HETATM    1  C5  UNL     1      25.100   0.851  52.364  1.00  0.00    -0.015 A 
HETATM    2  C6  UNL     1      24.053  -0.033  52.644  1.00  0.00     0.013 A 
HETATM    3  C7  UNL     1      22.764   0.449  52.710  1.00  0.00     0.033 A 
HETATM    4  C8  UNL     1      22.541   1.786  52.499  1.00  0.00     0.075 A 
HETATM    5  N1  UNL     1      21.294   2.289  52.554  1.00  0.00    -0.241 NA
HETATM    6  C9  UNL     1      21.053   3.596  52.349  1.00  0.00     0.236 A 
HETATM    7  N2  UNL     1      22.076   4.418  52.084  1.00  0.00    -0.223 NA
HETATM    8  C10 UNL     1      23.349   4.029  52.004  1.00  0.00     0.144 A 
HETATM    9  C17 UNL     1      23.541   2.691  52.221  1.00  0.00     0.072 A 
HETATM   10  C18 UNL     1      24.819   2.185  52.160  1.00  0.00     0.089 A 
ENDROOT
BRANCH   8  11
HETATM   11  N3  UNL     1      24.361   4.970  51.712  1.00  0.00    -0.340 N 
HETATM   12  H9  UNL     1      25.159   5.412  52.195  1.00  0.00     0.167 HD
BRANCH  11  13
HETATM   13  C11 UNL     1      24.448   5.587  50.432  1.00  0.00     0.035 A 
HETATM   14  C12 UNL     1      23.417   5.854  49.544  1.00  0.00     0.029 A 
HETATM   15  C13 UNL     1      23.532   6.434  48.308  1.00  0.00     0.004 A 
HETATM   16  C14 UNL     1      24.785   6.795  47.889  1.00  0.00     0.019 A 
HETATM   17  C15 UNL     1      25.862   6.560  48.723  1.00  0.00     0.013 A 
HETATM   18 BR1  UNL     1      27.540   7.124  47.989  1.00  0.00    -0.051 Br
HETATM   19  C16 UNL     1      25.692   5.976  49.950  1.00  0.00     0.048 A 
ENDBRANCH  11  13
ENDBRANCH   8  11
BRANCH  10  20
HETATM   20  O1  UNL     1      25.950   2.931  51.895  1.00  0.00    -0.359 OA
HETATM   21  H14 UNL     1      26.510   2.665  51.099  1.00  0.00     0.217 HD
ENDBRANCH  10  20
BRANCH   1  22
HETATM   22  C4  UNL     1      26.483   0.271  52.303  1.00  0.00     0.053 A 
HETATM   23  C2  UNL     1      27.010  -0.220  53.677  1.00  0.00    -0.079 A 
HETATM   24  C1  UNL     1      27.484   0.314  54.795  1.00  0.00     0.015 C 
HETATM   25  C3  UNL     1      26.546  -1.179  52.643  1.00  0.00     0.048 A 
ENDBRANCH   1  22
TORSDOF 4
ENDMDL
MODEL 7
REMARK VINA RESULT:      -7.4      2.847      6.263
REMARK  4 active torsions:
REMARK  status: ('A' for Active; 'I' for Inactive)
REMARK    1  A    between atoms: C4_4  and  C5_5 
REMARK    2  A    between atoms: C10_12  and  N3_13 
REMARK    3  A    between atoms: N3_13  and  C11_14 
REMARK    4  A    between atoms: C18_22  and  O1_23 
ROOT
HETATM    1  C5  UNL     1      24.604   5.957  49.165  1.00  0.00    -0.015 A 
HETATM    2  C6  UNL     1      23.875   6.197  47.996  1.00  0.00     0.013 A 
HETATM    3  C7  UNL     1      22.643   5.600  47.835  1.00  0.00     0.033 A 
HETATM    4  C8  UNL     1      22.163   4.784  48.827  1.00  0.00     0.075 A 
HETATM    5  N1  UNL     1      20.964   4.187  48.703  1.00  0.00    -0.241 NA
HETATM    6  C9  UNL     1      20.474   3.385  49.664  1.00  0.00     0.236 A 
HETATM    7  N2  UNL     1      21.195   3.173  50.772  1.00  0.00    -0.223 NA
HETATM    8  C10 UNL     1      22.393   3.713  51.002  1.00  0.00     0.144 A 
HETATM    9  C17 UNL     1      22.847   4.520  49.994  1.00  0.00     0.072 A 
HETATM   10  C18 UNL     1      24.073   5.128  50.130  1.00  0.00     0.089 A 
ENDROOT
BRANCH   8  11
HETATM   11  N3  UNL     1      23.077   3.435  52.207  1.00  0.00    -0.340 N 
HETATM   12  H9  UNL     1      23.470   3.961  53.003  1.00  0.00     0.167 HD
BRANCH  11  13
HETATM   13  C11 UNL     1      23.400   2.100  52.581  1.00  0.00     0.035 A 
HETATM   14  C12 UNL     1      22.575   1.160  53.178  1.00  0.00     0.029 A 
HETATM   15  C13 UNL     1      22.919  -0.115  53.544  1.00  0.00     0.004 A 
HETATM   16  C14 UNL     1      24.205  -0.521  53.303  1.00  0.00     0.019 A 
HETATM   17  C15 UNL     1      25.084   0.365  52.709  1.00  0.00     0.013 A 
HETATM   18 BR1  UNL     1      26.839  -0.358  52.442  1.00  0.00    -0.051 Br
HETATM   19  C16 UNL     1      24.689   1.630  52.363  1.00  0.00     0.048 A 
ENDBRANCH  11  13
ENDBRANCH   8  11
BRANCH  10  20
HETATM   20  O1  UNL     1      24.905   4.987  51.223  1.00  0.00    -0.359 OA
HETATM   21  H14 UNL     1      24.545   4.493  52.026  1.00  0.00     0.217 HD
ENDBRANCH  10  20
BRANCH   1  22
HETATM   22  C4  UNL     1      25.937   6.633  49.287  1.00  0.00     0.053 A 
HETATM   23  C2  UNL     1      27.070   5.914  48.508  1.00  0.00    -0.079 A 
HETATM   24  C1  UNL     1      27.818   4.827  48.643  1.00  0.00     0.015 C 
HETATM   25  C3  UNL     1      26.464   7.170  48.000  1.00  0.00     0.048 A 
ENDBRANCH   1  22
TORSDOF 4
ENDMDL
MODEL 8
REMARK VINA RESULT:      -7.4      1.751      1.981
REMARK  4 active torsions:
REMARK  status: ('A' for Active; 'I' for Inactive)
REMARK    1  A    between atoms: C4_4  and  C5_5 
REMARK    2  A    between atoms: C10_12  and  N3_13 
REMARK    3  A    between atoms: N3_13  and  C11_14 
REMARK    4  A    between atoms: C18_22  and  O1_23 
ROOT
HETATM    1  C5  UNL     1      25.873   0.209  52.824  1.00  0.00    -0.015 A 
HETATM    2  C6  UNL     1      25.408  -0.586  53.876  1.00  0.00     0.013 A 
HETATM    3  C7  UNL     1      24.067  -0.570  54.193  1.00  0.00     0.033 A 
HETATM    4  C8  UNL     1      23.221   0.227  53.465  1.00  0.00     0.075 A 
HETATM    5  N1  UNL     1      21.906   0.265  53.746  1.00  0.00    -0.241 NA
HETATM    6  C9  UNL     1      21.058   1.039  53.044  1.00  0.00     0.236 A 
HETATM    7  N2  UNL     1      21.532   1.789  52.041  1.00  0.00    -0.223 NA
HETATM    8  C10 UNL     1      22.814   1.829  51.676  1.00  0.00     0.144 A 
HETATM    9  C17 UNL     1      23.635   1.025  52.421  1.00  0.00     0.072 A 
HETATM   10  C18 UNL     1      24.977   0.991  52.125  1.00  0.00     0.089 A 
ENDROOT
BRANCH   8  11
HETATM   11  N3  UNL     1      23.220   2.649  50.599  1.00  0.00    -0.340 N 
HETATM   12  H9  UNL     1      23.596   2.530  49.645  1.00  0.00     0.167 HD
BRANCH  11  13
HETATM   13  C11 UNL     1      23.162   4.068  50.690  1.00  0.00     0.035 A 
HETATM   14  C12 UNL     1      24.090   4.923  51.263  1.00  0.00     0.029 A 
HETATM   15  C13 UNL     1      24.000   6.287  51.353  1.00  0.00     0.004 A 
HETATM   16  C14 UNL     1      22.886   6.886  50.827  1.00  0.00     0.019 A 
HETATM   17  C15 UNL     1      21.917   6.096  50.239  1.00  0.00     0.013 A 
HETATM   18 BR1  UNL     1      20.427   7.088  49.554  1.00  0.00    -0.051 Br
HETATM   19  C16 UNL     1      22.056   4.735  50.176  1.00  0.00     0.048 A 
ENDBRANCH  11  13
ENDBRANCH   8  11
BRANCH  10  20
HETATM   20  O1  UNL     1      25.582   1.718  51.118  1.00  0.00    -0.359 OA
HETATM   21  H14 UNL     1      26.268   1.246  50.548  1.00  0.00     0.217 HD
ENDBRANCH  10  20
BRANCH   1  22
HETATM   22  C4  UNL     1      27.341   0.151  52.523  1.00  0.00     0.053 A 
HETATM   23  C2  UNL     1      28.196   1.077  53.428  1.00  0.00    -0.079 A 
HETATM   24  C1  UNL     1      28.459   2.372  53.538  1.00  0.00     0.015 C 
HETATM   25  C3  UNL     1      28.167  -0.393  53.640  1.00  0.00     0.048 A 
ENDBRANCH   1  22
TORSDOF 4
ENDMDL
MODEL 9
REMARK VINA RESULT:      -7.4      1.850      3.982
REMARK  4 active torsions:
REMARK  status: ('A' for Active; 'I' for Inactive)
REMARK    1  A    between atoms: C4_4  and  C5_5 
REMARK    2  A    between atoms: C10_12  and  N3_13 
REMARK    3  A    between atoms: N3_13  and  C11_14 
REMARK    4  A    between atoms: C18_22  and  O1_23 
ROOT
HETATM    1  C5  UNL     1      23.694   0.117  52.914  1.00  0.00    -0.015 A 
HETATM    2  C6  UNL     1      24.318  -0.423  54.043  1.00  0.00     0.013 A 
HETATM    3  C7  UNL     1      25.617  -0.066  54.332  1.00  0.00     0.033 A 
HETATM    4  C8  UNL     1      26.265   0.814  53.503  1.00  0.00     0.075 A 
HETATM    5  N1  UNL     1      27.533   1.186  53.757  1.00  0.00    -0.241 NA
HETATM    6  C9  UNL     1      28.187   2.048  52.958  1.00  0.00     0.236 A 
HETATM    7  N2  UNL     1      27.564   2.549  51.884  1.00  0.00    -0.223 NA
HETATM    8  C10 UNL     1      26.311   2.251  51.538  1.00  0.00     0.144 A 
HETATM    9  C17 UNL     1      25.690   1.370  52.382  1.00  0.00     0.072 A 
HETATM   10  C18 UNL     1      24.393   0.997  52.115  1.00  0.00     0.089 A 
ENDROOT
BRANCH   8  11
HETATM   11  N3  UNL     1      25.735   2.836  50.388  1.00  0.00    -0.340 N 
HETATM   12  H9  UNL     1      25.283   2.524  49.514  1.00  0.00     0.167 HD
BRANCH  11  13
HETATM   13  C11 UNL     1      25.686   4.249  50.225  1.00  0.00     0.035 A 
HETATM   14  C12 UNL     1      24.837   5.149  50.849  1.00  0.00     0.029 A 
HETATM   15  C13 UNL     1      24.801   6.506  50.660  1.00  0.00     0.004 A 
HETATM   16  C14 UNL     1      25.687   7.047  49.766  1.00  0.00     0.019 A 
HETATM   17  C15 UNL     1      26.564   6.209  49.105  1.00  0.00     0.013 A 
HETATM   18 BR1  UNL     1      27.734   7.123  47.893  1.00  0.00    -0.051 Br
HETATM   19  C16 UNL     1      26.559   4.858  49.331  1.00  0.00     0.048 A 
ENDBRANCH  11  13
ENDBRANCH   8  11
BRANCH  10  20
HETATM   20  O1  UNL     1      23.648   1.445  51.042  1.00  0.00    -0.359 OA
HETATM   21  H14 UNL     1      22.802   1.957  51.241  1.00  0.00     0.217 HD
ENDBRANCH  10  20
BRANCH   1  22
HETATM   22  C4  UNL     1      22.279  -0.307  52.649  1.00  0.00     0.053 A 
HETATM   23  C2  UNL     1      21.519  -0.760  53.923  1.00  0.00    -0.079 A 
HETATM   24  C1  UNL     1      21.488  -1.816  54.725  1.00  0.00     0.015 C 
HETATM   25  C3  UNL     1      21.256   0.561  53.298  1.00  0.00     0.048 A 
ENDBRANCH   1  22
TORSDOF 4
ENDMDL
