MODEL 1
REMARK VINA RESULT:      -8.9      0.000      0.000
REMARK  3 active torsions:
REMARK  status: ('A' for Active; 'I' for Inactive)
REMARK    1  A    between atoms: O1_2  and  C2_3 
REMARK    2  A    between atoms: C12_16  and  N4_17 
REMARK    3  A    between atoms: N4_17  and  C13_18 
ROOT
HETATM    1  C2  UNL     1      17.610  -1.339  52.714  1.00  0.00     0.068 A 
HETATM    2  C3  UNL     1      17.517  -0.526  51.576  1.00  0.00     0.039 A 
HETATM    3  C4  UNL     1      18.567   0.301  51.232  1.00  0.00     0.033 A 
HETATM    4  C5  UNL     1      19.728   0.341  52.007  1.00  0.00     0.041 A 
HETATM    5  C6  UNL     1      19.873  -0.446  53.148  1.00  0.00    -0.011 A 
HETATM    6  C7  UNL     1      18.785  -1.246  53.428  1.00  0.00     0.048 A 
HETATM    7  C8  UNL     1      20.996  -0.554  54.088  1.00  0.00     0.161 C 
HETATM    8  N1  UNL     1      22.285  -0.549  53.394  1.00  0.00    -0.379 N 
HETATM    9  C9  UNL     1      22.791   0.471  52.550  1.00  0.00     0.121 A 
HETATM   10  C10 UNL     1      22.040   1.264  51.667  1.00  0.00     0.160 A 
HETATM   11  N2  UNL     1      22.632   2.207  50.881  1.00  0.00    -0.222 NA
HETATM   12  C11 UNL     1      23.985   2.377  50.961  1.00  0.00     0.237 A 
HETATM   13  N3  UNL     1      24.668   1.604  51.814  1.00  0.00    -0.222 NA
HETATM   14  C12 UNL     1      24.154   0.663  52.612  1.00  0.00     0.160 A 
HETATM   15  N5  UNL     1      20.624   1.274  51.411  1.00  0.00    -0.339 N 
HETATM   16  H9  UNL     1      23.001  -1.334  53.439  1.00  0.00     0.160 HD
HETATM   17  H15 UNL     1      20.272   2.015  50.752  1.00  0.00     0.167 HD
ENDROOT
BRANCH  14  18
HETATM   18  N4  UNL     1      24.936  -0.092  53.521  1.00  0.00    -0.339 N 
HETATM   19  H11 UNL     1      24.578  -0.669  54.307  1.00  0.00     0.167 HD
BRANCH  18  20
HETATM   20  C13 UNL     1      26.359  -0.187  53.541  1.00  0.00     0.035 A 
HETATM   21  C14 UNL     1      27.095  -1.267  53.095  1.00  0.00     0.032 A 
HETATM   22  C15 UNL     1      28.459  -1.363  53.103  1.00  0.00     0.046 A 
HETATM   23  C16 UNL     1      29.201  -0.311  53.590  1.00  0.00     0.138 A 
HETATM   24  F1  UNL     1      30.537  -0.442  53.581  1.00  0.00    -0.204 F 
HETATM   25  C17 UNL     1      28.543   0.796  54.051  1.00  0.00     0.074 A 
HETATM   26 CL1  UNL     1      29.547   2.091  54.652  1.00  0.00    -0.081 Cl
HETATM   27  C18 UNL     1      27.174   0.824  54.013  1.00  0.00     0.056 A 
ENDBRANCH  18  20
ENDBRANCH  14  18
BRANCH   1  28
HETATM   28  O1  UNL     1      16.620  -2.187  53.127  1.00  0.00    -0.356 OA
HETATM   29  C1  UNL     1      15.511  -2.423  52.299  1.00  0.00     0.210 C 
ENDBRANCH   1  28
TORSDOF 3
ENDMDL
MODEL 2
REMARK VINA RESULT:      -8.8      3.820      5.424
REMARK  3 active torsions:
REMARK  status: ('A' for Active; 'I' for Inactive)
REMARK    1  A    between atoms: O1_2  and  C2_3 
REMARK    2  A    between atoms: C12_16  and  N4_17 
REMARK    3  A    between atoms: N4_17  and  C13_18 
ROOT
HETATM    1  C2  UNL     1      20.084  -0.607  53.365  1.00  0.00     0.068 A 
HETATM    2  C3  UNL     1      20.994  -1.129  54.295  1.00  0.00     0.039 A 
HETATM    3  C4  UNL     1      22.347  -0.911  54.132  1.00  0.00     0.033 A 
HETATM    4  C5  UNL     1      22.826  -0.174  53.048  1.00  0.00     0.041 A 
HETATM    5  C6  UNL     1      21.966   0.368  52.094  1.00  0.00    -0.011 A 
HETATM    6  C7  UNL     1      20.631   0.109  52.322  1.00  0.00     0.048 A 
HETATM    7  C8  UNL     1      22.260   1.165  50.896  1.00  0.00     0.161 C 
HETATM    8  N1  UNL     1      23.310   2.153  51.148  1.00  0.00    -0.379 N 
HETATM    9  C9  UNL     1      24.635   1.893  51.580  1.00  0.00     0.121 A 
HETATM   10  C10 UNL     1      25.031   0.888  52.478  1.00  0.00     0.160 A 
HETATM   11  N2  UNL     1      26.335   0.737  52.844  1.00  0.00    -0.222 NA
HETATM   12  C11 UNL     1      27.269   1.586  52.323  1.00  0.00     0.237 A 
HETATM   13  N3  UNL     1      26.855   2.532  51.471  1.00  0.00    -0.222 NA
HETATM   14  C12 UNL     1      25.597   2.737  51.068  1.00  0.00     0.160 A 
HETATM   15  N5  UNL     1      24.246  -0.116  53.146  1.00  0.00    -0.339 N 
HETATM   16  H9  UNL     1      23.192   3.205  51.042  1.00  0.00     0.160 HD
HETATM   17  H15 UNL     1      24.775  -0.819  53.723  1.00  0.00     0.167 HD
ENDROOT
BRANCH  14  18
HETATM   18  N4  UNL     1      25.237   3.735  50.130  1.00  0.00    -0.339 N 
HETATM   19  H11 UNL     1      24.300   3.868  49.703  1.00  0.00     0.167 HD
BRANCH  18  20
HETATM   20  C13 UNL     1      26.096   4.733  49.582  1.00  0.00     0.035 A 
HETATM   21  C14 UNL     1      27.258   4.490  48.876  1.00  0.00     0.032 A 
HETATM   22  C15 UNL     1      28.082   5.441  48.341  1.00  0.00     0.046 A 
HETATM   23  C16 UNL     1      27.760   6.770  48.495  1.00  0.00     0.138 A 
HETATM   24  F1  UNL     1      28.592   7.673  47.956  1.00  0.00    -0.204 F 
HETATM   25  C17 UNL     1      26.622   7.092  49.184  1.00  0.00     0.074 A 
HETATM   26 CL1  UNL     1      26.276   8.795  49.341  1.00  0.00    -0.081 Cl
HETATM   27  C18 UNL     1      25.843   6.087  49.694  1.00  0.00     0.056 A 
ENDBRANCH  18  20
ENDBRANCH  14  18
BRANCH   1  28
HETATM   28  O1  UNL     1      18.729  -0.775  53.449  1.00  0.00    -0.356 OA
HETATM   29  C1  UNL     1      18.193  -2.062  53.607  1.00  0.00     0.210 C 
ENDBRANCH   1  28
TORSDOF 3
ENDMDL
MODEL 3
REMARK VINA RESULT:      -8.8      1.770      2.916
REMARK  3 active torsions:
REMARK  status: ('A' for Active; 'I' for Inactive)
REMARK    1  A    between atoms: O1_2  and  C2_3 
REMARK    2  A    between atoms: C12_16  and  N4_17 
REMARK    3  A    between atoms: N4_17  and  C13_18 
ROOT
HETATM    1  C2  UNL     1      17.806   1.142  50.298  1.00  0.00     0.068 A 
HETATM    2  C3  UNL     1      17.229   0.567  51.439  1.00  0.00     0.039 A 
HETATM    3  C4  UNL     1      18.028  -0.066  52.370  1.00  0.00     0.033 A 
HETATM    4  C5  UNL     1      19.410  -0.143  52.190  1.00  0.00     0.041 A 
HETATM    5  C6  UNL     1      20.035   0.411  51.075  1.00  0.00    -0.011 A 
HETATM    6  C7  UNL     1      19.175   1.026  50.189  1.00  0.00     0.048 A 
HETATM    7  C8  UNL     1      21.455   0.441  50.700  1.00  0.00     0.161 C 
HETATM    8  N1  UNL     1      22.313   0.704  51.856  1.00  0.00    -0.379 N 
HETATM    9  C9  UNL     1      22.405  -0.072  53.039  1.00  0.00     0.121 A 
HETATM   10  C10 UNL     1      21.347  -0.744  53.673  1.00  0.00     0.160 A 
HETATM   11  N2  UNL     1      21.542  -1.447  54.824  1.00  0.00    -0.222 NA
HETATM   12  C11 UNL     1      22.795  -1.494  55.364  1.00  0.00     0.237 A 
HETATM   13  N3  UNL     1      23.779  -0.842  54.732  1.00  0.00    -0.222 NA
HETATM   14  C12 UNL     1      23.660  -0.135  53.605  1.00  0.00     0.160 A 
HETATM   15  N5  UNL     1      19.961  -0.845  53.300  1.00  0.00    -0.339 N 
HETATM   16  H9  UNL     1      22.975   1.532  51.945  1.00  0.00     0.160 HD
HETATM   17  H15 UNL     1      19.360  -1.471  53.895  1.00  0.00     0.167 HD
ENDROOT
BRANCH  14  18
HETATM   18  N4  UNL     1      24.757   0.498  52.969  1.00  0.00    -0.339 N 
HETATM   19  H11 UNL     1      24.703   1.262  52.268  1.00  0.00     0.167 HD
BRANCH  18  20
HETATM   20  C13 UNL     1      26.137   0.194  53.158  1.00  0.00     0.035 A 
HETATM   21  C14 UNL     1      26.743  -1.008  52.845  1.00  0.00     0.032 A 
HETATM   22  C15 UNL     1      28.067  -1.303  53.016  1.00  0.00     0.046 A 
HETATM   23  C16 UNL     1      28.905  -0.346  53.541  1.00  0.00     0.138 A 
HETATM   24  F1  UNL     1      30.198  -0.673  53.693  1.00  0.00    -0.204 F 
HETATM   25  C17 UNL     1      28.379   0.872  53.876  1.00  0.00     0.074 A 
HETATM   26 CL1  UNL     1      29.499   2.037  54.536  1.00  0.00    -0.081 Cl
HETATM   27  C18 UNL     1      27.042   1.099  53.679  1.00  0.00     0.056 A 
ENDBRANCH  18  20
ENDBRANCH  14  18
BRANCH   1  28
HETATM   28  O1  UNL     1      17.091   1.788  49.327  1.00  0.00    -0.356 OA
HETATM   29  C1  UNL     1      16.213   2.825  49.678  1.00  0.00     0.210 C 
ENDBRANCH   1  28
TORSDOF 3
ENDMDL
MODEL 4
REMARK VINA RESULT:      -8.6      1.627      2.093
REMARK  3 active torsions:
REMARK  status: ('A' for Active; 'I' for Inactive)
REMARK    1  A    between atoms: O1_2  and  C2_3 
REMARK    2  A    between atoms: C12_16  and  N4_17 
REMARK    3  A    between atoms: N4_17  and  C13_18 
ROOT
HETATM    1  C2  UNL     1      18.611  -0.182  51.650  1.00  0.00     0.068 A 
HETATM    2  C3  UNL     1      18.722   0.327  50.349  1.00  0.00     0.039 A 
HETATM    3  C4  UNL     1      19.825   1.076  49.994  1.00  0.00     0.033 A 
HETATM    4  C5  UNL     1      20.839   1.336  50.918  1.00  0.00     0.041 A 
HETATM    5  C6  UNL     1      20.779   0.855  52.225  1.00  0.00    -0.011 A 
HETATM    6  C7  UNL     1      19.649   0.116  52.506  1.00  0.00     0.048 A 
HETATM    7  C8  UNL     1      21.724   1.011  53.337  1.00  0.00     0.161 C 
HETATM    8  N1  UNL     1      23.112   0.884  52.889  1.00  0.00    -0.379 N 
HETATM    9  C9  UNL     1      23.767   1.683  51.918  1.00  0.00     0.121 A 
HETATM   10  C10 UNL     1      23.187   2.216  50.755  1.00  0.00     0.160 A 
HETATM   11  N2  UNL     1      23.916   2.956  49.873  1.00  0.00    -0.222 NA
HETATM   12  C11 UNL     1      25.237   3.180  50.134  1.00  0.00     0.237 A 
HETATM   13  N3  UNL     1      25.756   2.657  51.252  1.00  0.00    -0.222 NA
HETATM   14  C12 UNL     1      25.103   1.924  52.159  1.00  0.00     0.160 A 
HETATM   15  N5  UNL     1      21.835   2.123  50.271  1.00  0.00    -0.339 N 
HETATM   16  H9  UNL     1      23.801   0.155  53.243  1.00  0.00     0.160 HD
HETATM   17  H15 UNL     1      21.609   2.670  49.402  1.00  0.00     0.167 HD
ENDROOT
BRANCH  14  18
HETATM   18  N4  UNL     1      25.710   1.436  53.342  1.00  0.00    -0.339 N 
HETATM   19  H11 UNL     1      25.305   1.470  54.298  1.00  0.00     0.167 HD
BRANCH  18  20
HETATM   20  C13 UNL     1      26.993   0.825  53.448  1.00  0.00     0.035 A 
HETATM   21  C14 UNL     1      28.162   1.473  53.797  1.00  0.00     0.032 A 
HETATM   22  C15 UNL     1      29.395   0.892  53.908  1.00  0.00     0.046 A 
HETATM   23  C16 UNL     1      29.526  -0.456  53.660  1.00  0.00     0.138 A 
HETATM   24  F1  UNL     1      30.751  -0.989  53.780  1.00  0.00    -0.204 F 
HETATM   25  C17 UNL     1      28.411  -1.167  53.308  1.00  0.00     0.074 A 
HETATM   26 CL1  UNL     1      28.651  -2.870  53.009  1.00  0.00    -0.081 Cl
HETATM   27  C18 UNL     1      27.207  -0.520  53.215  1.00  0.00     0.056 A 
ENDBRANCH  18  20
ENDBRANCH  14  18
BRANCH   1  28
HETATM   28  O1  UNL     1      17.554  -0.933  52.086  1.00  0.00    -0.356 OA
HETATM   29  C1  UNL     1      17.602  -1.541  53.350  1.00  0.00     0.210 C 
ENDBRANCH   1  28
TORSDOF 3
ENDMDL
MODEL 5
REMARK VINA RESULT:      -8.6      4.123      6.887
REMARK  3 active torsions:
REMARK  status: ('A' for Active; 'I' for Inactive)
REMARK    1  A    between atoms: O1_2  and  C2_3 
REMARK    2  A    between atoms: C12_16  and  N4_17 
REMARK    3  A    between atoms: N4_17  and  C13_18 
ROOT
HETATM    1  C2  UNL     1      25.768   6.674  48.199  1.00  0.00     0.068 A 
HETATM    2  C3  UNL     1      24.372   6.727  48.087  1.00  0.00     0.039 A 
HETATM    3  C4  UNL     1      23.595   5.763  48.696  1.00  0.00     0.033 A 
HETATM    4  C5  UNL     1      24.183   4.729  49.427  1.00  0.00     0.041 A 
HETATM    5  C6  UNL     1      25.565   4.628  49.570  1.00  0.00    -0.011 A 
HETATM    6  C7  UNL     1      26.276   5.625  48.935  1.00  0.00     0.048 A 
HETATM    7  C8  UNL     1      26.375   3.635  50.287  1.00  0.00     0.161 C 
HETATM    8  N1  UNL     1      25.776   3.276  51.574  1.00  0.00    -0.379 N 
HETATM    9  C9  UNL     1      24.490   2.719  51.786  1.00  0.00     0.121 A 
HETATM   10  C10 UNL     1      23.328   3.016  51.054  1.00  0.00     0.160 A 
HETATM   11  N2  UNL     1      22.132   2.436  51.356  1.00  0.00    -0.222 NA
HETATM   12  C11 UNL     1      22.072   1.551  52.393  1.00  0.00     0.237 A 
HETATM   13  N3  UNL     1      23.199   1.292  53.068  1.00  0.00    -0.222 NA
HETATM   14  C12 UNL     1      24.402   1.821  52.827  1.00  0.00     0.160 A 
HETATM   15  N5  UNL     1      23.142   3.899  49.933  1.00  0.00    -0.339 N 
HETATM   16  H9  UNL     1      26.246   3.404  52.519  1.00  0.00     0.160 HD
HETATM   17  H15 UNL     1      22.185   3.906  49.495  1.00  0.00     0.167 HD
ENDROOT
BRANCH  14  18
HETATM   18  N4  UNL     1      25.563   1.469  53.560  1.00  0.00    -0.339 N 
HETATM   19  H11 UNL     1      25.982   2.008  54.342  1.00  0.00     0.167 HD
BRANCH  18  20
HETATM   20  C13 UNL     1      26.381   0.320  53.351  1.00  0.00     0.035 A 
HETATM   21  C14 UNL     1      25.952  -0.886  52.832  1.00  0.00     0.032 A 
HETATM   22  C15 UNL     1      26.732  -1.989  52.622  1.00  0.00     0.046 A 
HETATM   23  C16 UNL     1      28.070  -1.933  52.941  1.00  0.00     0.138 A 
HETATM   24  F1  UNL     1      28.804  -3.034  52.720  1.00  0.00    -0.204 F 
HETATM   25  C17 UNL     1      28.571  -0.771  53.461  1.00  0.00     0.074 A 
HETATM   26 CL1  UNL     1      30.275  -0.772  53.842  1.00  0.00    -0.081 Cl
HETATM   27  C18 UNL     1      27.731   0.295  53.646  1.00  0.00     0.056 A 
ENDBRANCH  18  20
ENDBRANCH  14  18
BRANCH   1  28
HETATM   28  O1  UNL     1      26.613   7.586  47.628  1.00  0.00    -0.356 OA
HETATM   29  C1  UNL     1      27.848   7.868  48.231  1.00  0.00     0.210 C 
ENDBRANCH   1  28
TORSDOF 3
ENDMDL
MODEL 6
REMARK VINA RESULT:      -8.5      5.254      7.748
REMARK  3 active torsions:
REMARK  status: ('A' for Active; 'I' for Inactive)
REMARK    1  A    between atoms: O1_2  and  C2_3 
REMARK    2  A    between atoms: C12_16  and  N4_17 
REMARK    3  A    between atoms: N4_17  and  C13_18 
ROOT
HETATM    1  C2  UNL     1      26.873  -0.866  53.068  1.00  0.00     0.068 A 
HETATM    2  C3  UNL     1      25.648  -0.929  53.746  1.00  0.00     0.039 A 
HETATM    3  C4  UNL     1      24.765   0.129  53.674  1.00  0.00     0.033 A 
HETATM    4  C5  UNL     1      25.076   1.269  52.932  1.00  0.00     0.041 A 
HETATM    5  C6  UNL     1      26.280   1.386  52.239  1.00  0.00    -0.011 A 
HETATM    6  C7  UNL     1      27.110   0.291  52.357  1.00  0.00     0.048 A 
HETATM    7  C8  UNL     1      26.795   2.483  51.410  1.00  0.00     0.161 C 
HETATM    8  N1  UNL     1      25.748   3.059  50.564  1.00  0.00    -0.379 N 
HETATM    9  C9  UNL     1      24.535   3.651  51.000  1.00  0.00     0.121 A 
HETATM   10  C10 UNL     1      23.759   3.240  52.096  1.00  0.00     0.160 A 
HETATM   11  N2  UNL     1      22.594   3.869  52.416  1.00  0.00    -0.222 NA
HETATM   12  C11 UNL     1      22.179   4.919  51.649  1.00  0.00     0.237 A 
HETATM   13  N3  UNL     1      22.944   5.283  50.612  1.00  0.00    -0.222 NA
HETATM   14  C12 UNL     1      24.095   4.714  50.242  1.00  0.00     0.160 A 
HETATM   15  N5  UNL     1      23.986   2.179  53.042  1.00  0.00    -0.339 N 
HETATM   16  H9  UNL     1      25.775   3.092  49.502  1.00  0.00     0.160 HD
HETATM   17  H15 UNL     1      23.298   2.103  53.834  1.00  0.00     0.167 HD
ENDROOT
BRANCH  14  18
HETATM   18  N4  UNL     1      24.873   5.181  49.153  1.00  0.00    -0.339 N 
HETATM   19  H11 UNL     1      24.855   4.812  48.183  1.00  0.00     0.167 HD
BRANCH  18  20
HETATM   20  C13 UNL     1      25.838   6.229  49.189  1.00  0.00     0.035 A 
HETATM   21  C14 UNL     1      25.757   7.367  49.967  1.00  0.00     0.032 A 
HETATM   22  C15 UNL     1      26.682   8.373  50.012  1.00  0.00     0.046 A 
HETATM   23  C16 UNL     1      27.810   8.281  49.229  1.00  0.00     0.138 A 
HETATM   24  F1  UNL     1      28.695   9.287  49.301  1.00  0.00    -0.204 F 
HETATM   25  C17 UNL     1      27.963   7.182  48.429  1.00  0.00     0.074 A 
HETATM   26 CL1  UNL     1      29.416   7.132  47.464  1.00  0.00    -0.081 Cl
HETATM   27  C18 UNL     1      26.996   6.212  48.433  1.00  0.00     0.056 A 
ENDBRANCH  18  20
ENDBRANCH  14  18
BRANCH   1  28
HETATM   28  O1  UNL     1      27.806  -1.866  53.085  1.00  0.00    -0.356 OA
HETATM   29  C1  UNL     1      29.148  -1.566  53.364  1.00  0.00     0.210 C 
ENDBRANCH   1  28
TORSDOF 3
ENDMDL
MODEL 7
REMARK VINA RESULT:      -8.5      5.105      8.877
REMARK  3 active torsions:
REMARK  status: ('A' for Active; 'I' for Inactive)
REMARK    1  A    between atoms: O1_2  and  C2_3 
REMARK    2  A    between atoms: C12_16  and  N4_17 
REMARK    3  A    between atoms: N4_17  and  C13_18 
ROOT
HETATM    1  C2  UNL     1      26.596   0.306  54.311  1.00  0.00     0.068 A 
HETATM    2  C3  UNL     1      26.502   1.585  53.743  1.00  0.00     0.039 A 
HETATM    3  C4  UNL     1      25.333   1.979  53.125  1.00  0.00     0.033 A 
HETATM    4  C5  UNL     1      24.237   1.118  53.055  1.00  0.00     0.041 A 
HETATM    5  C6  UNL     1      24.276  -0.162  53.602  1.00  0.00    -0.011 A 
HETATM    6  C7  UNL     1      25.474  -0.487  54.203  1.00  0.00     0.048 A 
HETATM    7  C8  UNL     1      23.248  -1.211  53.638  1.00  0.00     0.161 C 
HETATM    8  N1  UNL     1      21.921  -0.657  53.917  1.00  0.00    -0.379 N 
HETATM    9  C9  UNL     1      21.229   0.316  53.154  1.00  0.00     0.121 A 
HETATM   10  C10 UNL     1      21.807   1.406  52.481  1.00  0.00     0.160 A 
HETATM   11  N2  UNL     1      21.044   2.299  51.790  1.00  0.00    -0.222 NA
HETATM   12  C11 UNL     1      19.691   2.123  51.757  1.00  0.00     0.237 A 
HETATM   13  N3  UNL     1      19.175   1.073  52.409  1.00  0.00    -0.222 NA
HETATM   14  C12 UNL     1      19.861   0.161  53.104  1.00  0.00     0.160 A 
HETATM   15  N5  UNL     1      23.188   1.795  52.368  1.00  0.00    -0.339 N 
HETATM   16  H9  UNL     1      21.316  -0.923  54.750  1.00  0.00     0.160 HD
HETATM   17  H15 UNL     1      23.394   2.616  51.744  1.00  0.00     0.167 HD
ENDROOT
BRANCH  14  18
HETATM   18  N4  UNL     1      19.250  -0.949  53.737  1.00  0.00    -0.339 N 
HETATM   19  H11 UNL     1      19.603  -1.448  54.577  1.00  0.00     0.167 HD
BRANCH  18  20
HETATM   20  C13 UNL     1      18.048  -1.602  53.332  1.00  0.00     0.035 A 
HETATM   21  C14 UNL     1      17.052  -1.037  52.559  1.00  0.00     0.032 A 
HETATM   22  C15 UNL     1      15.901  -1.659  52.160  1.00  0.00     0.046 A 
HETATM   23  C16 UNL     1      15.678  -2.963  52.541  1.00  0.00     0.138 A 
HETATM   24  F1  UNL     1      14.538  -3.538  52.130  1.00  0.00    -0.204 F 
HETATM   25  C17 UNL     1      16.620  -3.591  53.309  1.00  0.00     0.074 A 
HETATM   26 CL1  UNL     1      16.271  -5.242  53.753  1.00  0.00    -0.081 Cl
HETATM   27  C18 UNL     1      17.750  -2.907  53.672  1.00  0.00     0.056 A 
ENDBRANCH  18  20
ENDBRANCH  14  18
BRANCH   1  28
HETATM   28  O1  UNL     1      27.714  -0.166  54.942  1.00  0.00    -0.356 OA
HETATM   29  C1  UNL     1      28.973   0.368  54.627  1.00  0.00     0.210 C 
ENDBRANCH   1  28
TORSDOF 3
ENDMDL
MODEL 8
REMARK VINA RESULT:      -8.3      4.768      7.907
REMARK  3 active torsions:
REMARK  status: ('A' for Active; 'I' for Inactive)
REMARK    1  A    between atoms: O1_2  and  C2_3 
REMARK    2  A    between atoms: C12_16  and  N4_17 
REMARK    3  A    between atoms: N4_17  and  C13_18 
ROOT
HETATM    1  C2  UNL     1      27.697  -0.867  53.052  1.00  0.00     0.068 A 
HETATM    2  C3  UNL     1      26.595  -1.670  52.726  1.00  0.00     0.039 A 
HETATM    3  C4  UNL     1      25.330  -1.121  52.688  1.00  0.00     0.033 A 
HETATM    4  C5  UNL     1      25.129   0.231  52.972  1.00  0.00     0.041 A 
HETATM    5  C6  UNL     1      26.187   1.074  53.301  1.00  0.00    -0.011 A 
HETATM    6  C7  UNL     1      27.421   0.457  53.320  1.00  0.00     0.048 A 
HETATM    7  C8  UNL     1      26.193   2.506  53.629  1.00  0.00     0.161 C 
HETATM    8  N1  UNL     1      25.286   3.262  52.763  1.00  0.00    -0.379 N 
HETATM    9  C9  UNL     1      23.890   3.066  52.618  1.00  0.00     0.121 A 
HETATM   10  C10 UNL     1      23.219   1.832  52.649  1.00  0.00     0.160 A 
HETATM   11  N2  UNL     1      21.869   1.753  52.478  1.00  0.00    -0.222 NA
HETATM   12  C11 UNL     1      21.163   2.904  52.272  1.00  0.00     0.237 A 
HETATM   13  N3  UNL     1      21.835   4.061  52.248  1.00  0.00    -0.222 NA
HETATM   14  C12 UNL     1      23.153   4.212  52.409  1.00  0.00     0.160 A 
HETATM   15  N5  UNL     1      23.736   0.504  52.852  1.00  0.00    -0.339 N 
HETATM   16  H9  UNL     1      25.582   4.058  52.122  1.00  0.00     0.160 HD
HETATM   17  H15 UNL     1      23.027  -0.271  52.909  1.00  0.00     0.167 HD
ENDROOT
BRANCH  14  18
HETATM   18  N4  UNL     1      23.793   5.476  52.412  1.00  0.00    -0.339 N 
HETATM   19  H11 UNL     1      24.148   5.983  53.247  1.00  0.00     0.167 HD
BRANCH  18  20
HETATM   20  C13 UNL     1      24.054   6.298  51.277  1.00  0.00     0.035 A 
HETATM   21  C14 UNL     1      23.316   7.405  50.903  1.00  0.00     0.032 A 
HETATM   22  C15 UNL     1      23.565   8.202  49.820  1.00  0.00     0.046 A 
HETATM   23  C16 UNL     1      24.637   7.912  49.007  1.00  0.00     0.138 A 
HETATM   24  F1  UNL     1      24.849   8.717  47.955  1.00  0.00    -0.204 F 
HETATM   25  C17 UNL     1      25.416   6.829  49.312  1.00  0.00     0.074 A 
HETATM   26 CL1  UNL     1      26.756   6.521  48.237  1.00  0.00    -0.081 Cl
HETATM   27  C18 UNL     1      25.108   6.073  50.412  1.00  0.00     0.056 A 
ENDBRANCH  18  20
ENDBRANCH  14  18
BRANCH   1  28
HETATM   28  O1  UNL     1      28.983  -1.327  53.113  1.00  0.00    -0.356 OA
HETATM   29  C1  UNL     1      29.965  -0.571  53.773  1.00  0.00     0.210 C 
ENDBRANCH   1  28
TORSDOF 3
ENDMDL
MODEL 9
REMARK VINA RESULT:      -8.2      4.666      8.383
REMARK  3 active torsions:
REMARK  status: ('A' for Active; 'I' for Inactive)
REMARK    1  A    between atoms: O1_2  and  C2_3 
REMARK    2  A    between atoms: C12_16  and  N4_17 
REMARK    3  A    between atoms: N4_17  and  C13_18 
ROOT
HETATM    1  C2  UNL     1      27.627   0.081  53.501  1.00  0.00     0.068 A 
HETATM    2  C3  UNL     1      28.222   1.283  53.093  1.00  0.00     0.039 A 
HETATM    3  C4  UNL     1      27.451   2.272  52.516  1.00  0.00     0.033 A 
HETATM    4  C5  UNL     1      26.080   2.091  52.331  1.00  0.00     0.041 A 
HETATM    5  C6  UNL     1      25.437   0.916  52.718  1.00  0.00    -0.011 A 
HETATM    6  C7  UNL     1      26.270  -0.025  53.286  1.00  0.00     0.048 A 
HETATM    7  C8  UNL     1      24.024   0.530  52.615  1.00  0.00     0.161 C 
HETATM    8  N1  UNL     1      23.134   1.643  52.948  1.00  0.00    -0.379 N 
HETATM    9  C9  UNL     1      23.074   2.904  52.302  1.00  0.00     0.121 A 
HETATM   10  C10 UNL     1      24.162   3.617  51.773  1.00  0.00     0.160 A 
HETATM   11  N2  UNL     1      23.996   4.837  51.189  1.00  0.00    -0.222 NA
HETATM   12  C11 UNL     1      22.740   5.369  51.121  1.00  0.00     0.237 A 
HETATM   13  N3  UNL     1      21.727   4.662  51.635  1.00  0.00    -0.222 NA
HETATM   14  C12 UNL     1      21.817   3.463  52.220  1.00  0.00     0.160 A 
HETATM   15  N5  UNL     1      25.558   3.268  51.721  1.00  0.00    -0.339 N 
HETATM   16  H9  UNL     1      22.420   1.636  53.736  1.00  0.00     0.160 HD
HETATM   17  H15 UNL     1      26.188   3.933  51.205  1.00  0.00     0.167 HD
ENDROOT
BRANCH  14  18
HETATM   18  N4  UNL     1      20.692   2.754  52.707  1.00  0.00    -0.339 N 
HETATM   19  H11 UNL     1      20.361   2.727  53.692  1.00  0.00     0.167 HD
BRANCH  18  20
HETATM   20  C13 UNL     1      19.813   1.930  51.944  1.00  0.00     0.035 A 
HETATM   21  C14 UNL     1      19.469   2.135  50.622  1.00  0.00     0.032 A 
HETATM   22  C15 UNL     1      18.634   1.346  49.881  1.00  0.00     0.046 A 
HETATM   23  C16 UNL     1      18.065   0.238  50.468  1.00  0.00     0.138 A 
HETATM   24  F1  UNL     1      17.251  -0.512  49.709  1.00  0.00    -0.204 F 
HETATM   25  C17 UNL     1      18.357  -0.032  51.777  1.00  0.00     0.074 A 
HETATM   26 CL1  UNL     1      17.600  -1.452  52.455  1.00  0.00    -0.081 Cl
HETATM   27  C18 UNL     1      19.202   0.803  52.459  1.00  0.00     0.056 A 
ENDBRANCH  18  20
ENDBRANCH  14  18
BRANCH   1  28
HETATM   28  O1  UNL     1      28.314  -0.950  54.081  1.00  0.00    -0.356 OA
HETATM   29  C1  UNL     1      29.675  -1.135  53.790  1.00  0.00     0.210 C 
ENDBRANCH   1  28
TORSDOF 3
ENDMDL
