MODEL 1
REMARK VINA RESULT:      -7.8      0.000      0.000
REMARK  1 active torsions:
REMARK  status: ('A' for Active; 'I' for Inactive)
REMARK    1  A    between atoms: C12_16  and  N3_17 
ROOT
HETATM    1  C1  UNL     1      26.343  -0.214  53.096  1.00  0.00     0.037 C 
HETATM    2  C2  UNL     1      25.693   0.646  52.107  1.00  0.00    -0.017 C 
HETATM    3  C3  UNL     1      24.416   0.944  52.273  1.00  0.00    -0.012 C 
HETATM    4  C4  UNL     1      23.793   0.343  53.483  1.00  0.00     0.036 C 
HETATM    5  C5  UNL     1      22.523  -0.011  53.766  1.00  0.00     0.050 C 
HETATM    6 CL1  UNL     1      22.521  -1.337  54.912  1.00  0.00    -0.086 Cl
HETATM    7  C6  UNL     1      21.141   0.421  53.366  1.00  0.00     0.246 C 
HETATM    8  F1  UNL     1      20.417   0.808  54.472  1.00  0.00    -0.238 F 
HETATM    9  C7  UNL     1      21.146   1.408  52.298  1.00  0.00    -0.018 C 
HETATM   10  C8  UNL     1      21.369   1.327  50.963  1.00  0.00     0.010 C 
HETATM   11  C9  UNL     1      22.784   1.585  50.525  1.00  0.00     0.030 C 
HETATM   12  C10 UNL     1      23.961   1.831  51.168  1.00  0.00     0.039 C 
HETATM   13  N1  UNL     1      24.964   2.821  51.048  1.00  0.00    -0.371 N 
HETATM   14  C11 UNL     1      25.169   4.074  50.383  1.00  0.00     0.272 C 
HETATM   15  N2  UNL     1      24.464   5.196  50.848  1.00  0.00    -0.256 NA
HETATM   16  C12 UNL     1      23.383   5.401  51.432  1.00  0.00     0.118 C 
HETATM   17  C13 UNL     1      22.088   4.910  52.070  1.00  0.00     0.245 C 
HETATM   18  O1  UNL     1      22.018   3.567  52.009  1.00  0.00    -0.379 OA
HETATM   19  C14 UNL     1      20.926   2.905  52.511  1.00  0.00     0.205 C 
HETATM   20  H9  UNL     1      25.799   2.620  51.605  1.00  0.00     0.161 HD
ENDROOT
BRANCH  16  21
HETATM   21  N3  UNL     1      23.378   6.839  51.555  1.00  0.00    -0.386 N 
HETATM   22  H12 UNL     1      23.172   7.532  52.330  1.00  0.00     0.157 HD
HETATM   23  H13 UNL     1      23.601   7.561  50.826  1.00  0.00     0.157 HD
ENDBRANCH  16  21
TORSDOF 1
ENDMDL
MODEL 2
REMARK VINA RESULT:      -7.6      2.183      2.925
REMARK  1 active torsions:
REMARK  status: ('A' for Active; 'I' for Inactive)
REMARK    1  A    between atoms: C12_16  and  N3_17 
ROOT
HETATM    1  C1  UNL     1      21.918  -1.828  54.861  1.00  0.00     0.037 C 
HETATM    2  C2  UNL     1      22.506  -0.945  53.855  1.00  0.00    -0.017 C 
HETATM    3  C3  UNL     1      21.697  -0.199  53.122  1.00  0.00    -0.012 C 
HETATM    4  C4  UNL     1      20.251  -0.367  53.429  1.00  0.00     0.036 C 
HETATM    5  C5  UNL     1      19.142  -0.212  52.680  1.00  0.00     0.050 C 
HETATM    6 CL1  UNL     1      17.880  -1.276  53.264  1.00  0.00    -0.086 Cl
HETATM    7  C6  UNL     1      18.713   0.615  51.501  1.00  0.00     0.246 C 
HETATM    8  F1  UNL     1      17.616   1.383  51.822  1.00  0.00    -0.238 F 
HETATM    9  C7  UNL     1      19.807   1.377  50.919  1.00  0.00    -0.018 C 
HETATM   10  C8  UNL     1      20.860   1.035  50.134  1.00  0.00     0.010 C 
HETATM   11  C9  UNL     1      22.135   0.718  50.864  1.00  0.00     0.030 C 
HETATM   12  C10 UNL     1      22.497   0.625  52.176  1.00  0.00     0.039 C 
HETATM   13  N1  UNL     1      23.543   1.175  52.952  1.00  0.00    -0.371 N 
HETATM   14  C11 UNL     1      24.568   2.170  52.833  1.00  0.00     0.272 C 
HETATM   15  N2  UNL     1      24.186   3.522  52.839  1.00  0.00    -0.256 NA
HETATM   16  C12 UNL     1      23.173   4.172  52.519  1.00  0.00     0.118 C 
HETATM   17  C13 UNL     1      21.750   4.259  51.976  1.00  0.00     0.245 C 
HETATM   18  O1  UNL     1      21.291   3.031  51.672  1.00  0.00    -0.379 OA
HETATM   19  C14 UNL     1      20.032   2.870  51.149  1.00  0.00     0.205 C 
HETATM   20  H9  UNL     1      23.600   0.776  53.893  1.00  0.00     0.161 HD
ENDROOT
BRANCH  16  21
HETATM   21  N3  UNL     1      23.574   5.522  52.829  1.00  0.00    -0.386 N 
HETATM   22  H12 UNL     1      24.439   5.982  53.235  1.00  0.00     0.157 HD
HETATM   23  H13 UNL     1      23.033   6.414  52.700  1.00  0.00     0.157 HD
ENDBRANCH  16  21
TORSDOF 1
ENDMDL
MODEL 3
REMARK VINA RESULT:      -7.3      3.095      4.813
REMARK  1 active torsions:
REMARK  status: ('A' for Active; 'I' for Inactive)
REMARK    1  A    between atoms: C12_16  and  N3_17 
ROOT
HETATM    1  C1  UNL     1      26.107   4.364  49.085  1.00  0.00     0.037 C 
HETATM    2  C2  UNL     1      25.693   4.037  50.449  1.00  0.00    -0.017 C 
HETATM    3  C3  UNL     1      24.639   3.257  50.617  1.00  0.00    -0.012 C 
HETATM    4  C4  UNL     1      23.995   2.806  49.353  1.00  0.00     0.036 C 
HETATM    5  C5  UNL     1      22.728   2.451  49.059  1.00  0.00     0.050 C 
HETATM    6 CL1  UNL     1      22.392   2.801  47.376  1.00  0.00    -0.086 Cl
HETATM    7  C6  UNL     1      21.555   1.849  49.778  1.00  0.00     0.246 C 
HETATM    8  F1  UNL     1      21.159   0.680  49.165  1.00  0.00    -0.238 F 
HETATM    9  C7  UNL     1      21.782   1.709  51.209  1.00  0.00    -0.018 C 
HETATM   10  C8  UNL     1      21.794   2.594  52.236  1.00  0.00     0.010 C 
HETATM   11  C9  UNL     1      23.142   3.159  52.587  1.00  0.00     0.030 C 
HETATM   12  C10 UNL     1      24.399   3.046  52.070  1.00  0.00     0.039 C 
HETATM   13  N1  UNL     1      25.667   2.738  52.616  1.00  0.00    -0.371 N 
HETATM   14  C11 UNL     1      26.224   2.247  53.842  1.00  0.00     0.272 C 
HETATM   15  N2  UNL     1      26.031   0.894  54.165  1.00  0.00    -0.256 NA
HETATM   16  C12 UNL     1      25.176   0.023  53.917  1.00  0.00     0.118 C 
HETATM   17  C13 UNL     1      23.880  -0.437  53.256  1.00  0.00     0.245 C 
HETATM   18  O1  UNL     1      23.327   0.575  52.562  1.00  0.00    -0.379 OA
HETATM   19  C14 UNL     1      22.141   0.392  51.896  1.00  0.00     0.205 C 
HETATM   20  H9  UNL     1      26.436   2.881  51.956  1.00  0.00     0.161 HD
ENDROOT
BRANCH  16  21
HETATM   21  N3  UNL     1      25.702  -1.121  54.622  1.00  0.00    -0.386 N 
HETATM   22  H12 UNL     1      25.882  -1.369  55.637  1.00  0.00     0.157 HD
HETATM   23  H13 UNL     1      26.047  -2.032  54.229  1.00  0.00     0.157 HD
ENDBRANCH  16  21
TORSDOF 1
ENDMDL
MODEL 4
REMARK VINA RESULT:      -7.2      5.611      7.404
REMARK  1 active torsions:
REMARK  status: ('A' for Active; 'I' for Inactive)
REMARK    1  A    between atoms: C12_16  and  N3_17 
ROOT
HETATM    1  C1  UNL     1      26.599   3.249  49.723  1.00  0.00     0.037 C 
HETATM    2  C2  UNL     1      27.158   4.375  48.976  1.00  0.00    -0.017 C 
HETATM    3  C3  UNL     1      26.563   5.551  49.070  1.00  0.00    -0.012 C 
HETATM    4  C4  UNL     1      25.363   5.569  49.949  1.00  0.00     0.036 C 
HETATM    5  C5  UNL     1      24.254   6.335  49.953  1.00  0.00     0.050 C 
HETATM    6 CL1  UNL     1      22.913   5.431  50.625  1.00  0.00    -0.086 Cl
HETATM    7  C6  UNL     1      23.874   7.730  49.541  1.00  0.00     0.246 C 
HETATM    8  F1  UNL     1      23.375   8.433  50.616  1.00  0.00    -0.238 F 
HETATM    9  C7  UNL     1      24.944   8.421  48.838  1.00  0.00    -0.018 C 
HETATM   10  C8  UNL     1      25.441   8.321  47.580  1.00  0.00     0.010 C 
HETATM   11  C9  UNL     1      26.615   7.397  47.419  1.00  0.00     0.030 C 
HETATM   12  C10 UNL     1      27.295   6.550  48.245  1.00  0.00     0.039 C 
HETATM   13  N1  UNL     1      28.661   6.363  48.558  1.00  0.00    -0.371 N 
HETATM   14  C11 UNL     1      29.918   7.017  48.343  1.00  0.00     0.272 C 
HETATM   15  N2  UNL     1      30.176   8.208  49.041  1.00  0.00    -0.256 NA
HETATM   16  C12 UNL     1      29.496   9.133  49.524  1.00  0.00     0.118 C 
HETATM   17  C13 UNL     1      28.157   9.804  49.817  1.00  0.00     0.245 C 
HETATM   18  O1  UNL     1      27.146   9.057  49.337  1.00  0.00    -0.379 OA
HETATM   19  C14 UNL     1      25.847   9.476  49.474  1.00  0.00     0.205 C 
HETATM   20  H9  UNL     1      28.835   5.527  49.124  1.00  0.00     0.161 HD
ENDROOT
BRANCH  16  21
HETATM   21  N3  UNL     1      30.512   9.991  50.083  1.00  0.00    -0.386 N 
HETATM   22  H12 UNL     1      30.592  11.024  50.310  1.00  0.00     0.157 HD
HETATM   23  H13 UNL     1      31.477   9.738  50.411  1.00  0.00     0.157 HD
ENDBRANCH  16  21
TORSDOF 1
ENDMDL
MODEL 5
REMARK VINA RESULT:      -7.1      1.291      1.409
REMARK  1 active torsions:
REMARK  status: ('A' for Active; 'I' for Inactive)
REMARK    1  A    between atoms: C12_16  and  N3_17 
ROOT
HETATM    1  C1  UNL     1      26.648   1.754  53.500  1.00  0.00     0.037 C 
HETATM    2  C2  UNL     1      26.025   2.429  52.362  1.00  0.00    -0.017 C 
HETATM    3  C3  UNL     1      24.743   2.211  52.126  1.00  0.00    -0.012 C 
HETATM    4  C4  UNL     1      24.087   1.276  53.081  1.00  0.00     0.036 C 
HETATM    5  C5  UNL     1      23.033   0.446  52.956  1.00  0.00     0.050 C 
HETATM    6 CL1  UNL     1      23.222  -0.917  54.039  1.00  0.00    -0.086 Cl
HETATM    7  C6  UNL     1      21.767   0.383  52.149  1.00  0.00     0.246 C 
HETATM    8  F1  UNL     1      20.667   0.334  52.977  1.00  0.00    -0.238 F 
HETATM    9  C7  UNL     1      21.690   1.426  51.138  1.00  0.00    -0.018 C 
HETATM   10  C8  UNL     1      22.297   1.599  49.937  1.00  0.00     0.010 C 
HETATM   11  C9  UNL     1      23.559   2.414  49.961  1.00  0.00     0.030 C 
HETATM   12  C10 UNL     1      24.312   2.996  50.938  1.00  0.00     0.039 C 
HETATM   13  N1  UNL     1      24.839   4.293  51.137  1.00  0.00    -0.371 N 
HETATM   14  C11 UNL     1      24.719   5.605  50.573  1.00  0.00     0.272 C 
HETATM   15  N2  UNL     1      23.532   6.321  50.801  1.00  0.00    -0.256 NA
HETATM   16  C12 UNL     1      22.339   6.038  51.022  1.00  0.00     0.118 C 
HETATM   17  C13 UNL     1      21.215   5.027  51.226  1.00  0.00     0.245 C 
HETATM   18  O1  UNL     1      21.695   3.772  51.141  1.00  0.00    -0.379 OA
HETATM   19  C14 UNL     1      20.853   2.696  51.278  1.00  0.00     0.205 C 
HETATM   20  H9  UNL     1      25.491   4.348  51.925  1.00  0.00     0.161 HD
ENDROOT
BRANCH  16  21
HETATM   21  N3  UNL     1      21.739   7.344  51.143  1.00  0.00    -0.386 N 
HETATM   22  H12 UNL     1      22.068   8.344  51.014  1.00  0.00     0.157 HD
HETATM   23  H13 UNL     1      20.754   7.592  51.409  1.00  0.00     0.157 HD
ENDBRANCH  16  21
TORSDOF 1
ENDMDL
MODEL 6
REMARK VINA RESULT:      -7.1      3.099      4.363
REMARK  1 active torsions:
REMARK  status: ('A' for Active; 'I' for Inactive)
REMARK    1  A    between atoms: C12_16  and  N3_17 
ROOT
HETATM    1  C1  UNL     1      21.913  -1.467  54.584  1.00  0.00     0.037 C 
HETATM    2  C2  UNL     1      21.504  -0.211  53.956  1.00  0.00    -0.017 C 
HETATM    3  C3  UNL     1      22.391   0.449  53.231  1.00  0.00    -0.012 C 
HETATM    4  C4  UNL     1      23.729  -0.197  53.151  1.00  0.00     0.036 C 
HETATM    5  C5  UNL     1      24.967   0.303  52.965  1.00  0.00     0.050 C 
HETATM    6 CL1  UNL     1      26.146  -0.731  53.744  1.00  0.00    -0.086 Cl
HETATM    7  C6  UNL     1      25.587   1.489  52.282  1.00  0.00     0.246 C 
HETATM    8  F1  UNL     1      26.495   1.079  51.331  1.00  0.00    -0.238 F 
HETATM    9  C7  UNL     1      24.598   2.429  51.776  1.00  0.00    -0.018 C 
HETATM   10  C8  UNL     1      23.804   3.351  52.376  1.00  0.00     0.010 C 
HETATM   11  C9  UNL     1      22.427   2.877  52.746  1.00  0.00     0.030 C 
HETATM   12  C10 UNL     1      21.769   1.684  52.681  1.00  0.00     0.039 C 
HETATM   13  N1  UNL     1      20.518   1.273  52.164  1.00  0.00    -0.371 N 
HETATM   14  C11 UNL     1      19.463   1.797  51.349  1.00  0.00     0.272 C 
HETATM   15  N2  UNL     1      19.701   1.955  49.973  1.00  0.00    -0.256 NA
HETATM   16  C12 UNL     1      20.694   2.155  49.250  1.00  0.00     0.118 C 
HETATM   17  C13 UNL     1      22.191   2.376  49.056  1.00  0.00     0.245 C 
HETATM   18  O1  UNL     1      22.825   2.340  50.242  1.00  0.00    -0.379 OA
HETATM   19  C14 UNL     1      24.183   2.532  50.310  1.00  0.00     0.205 C 
HETATM   20  H9  UNL     1      20.274   0.311  52.415  1.00  0.00     0.161 HD
ENDROOT
BRANCH  16  21
HETATM   21  N3  UNL     1      20.103   2.196  47.935  1.00  0.00    -0.386 N 
HETATM   22  H12 UNL     1      19.130   2.059  47.537  1.00  0.00     0.157 HD
HETATM   23  H13 UNL     1      20.566   2.389  47.012  1.00  0.00     0.157 HD
ENDBRANCH  16  21
TORSDOF 1
ENDMDL
MODEL 7
REMARK VINA RESULT:      -6.8      6.952      9.039
REMARK  1 active torsions:
REMARK  status: ('A' for Active; 'I' for Inactive)
REMARK    1  A    between atoms: C12_16  and  N3_17 
ROOT
HETATM    1  C1  UNL     1      26.871   4.220  49.248  1.00  0.00     0.037 C 
HETATM    2  C2  UNL     1      27.827   5.154  48.654  1.00  0.00    -0.017 C 
HETATM    3  C3  UNL     1      27.379   6.316  48.209  1.00  0.00    -0.012 C 
HETATM    4  C4  UNL     1      25.915   6.520  48.377  1.00  0.00     0.036 C 
HETATM    5  C5  UNL     1      25.019   7.257  47.691  1.00  0.00     0.050 C 
HETATM    6 CL1  UNL     1      23.436   6.515  47.800  1.00  0.00    -0.086 Cl
HETATM    7  C6  UNL     1      25.020   8.519  46.875  1.00  0.00     0.246 C 
HETATM    8  F1  UNL     1      24.148   9.442  47.409  1.00  0.00    -0.238 F 
HETATM    9  C7  UNL     1      26.359   9.044  46.652  1.00  0.00    -0.018 C 
HETATM   10  C8  UNL     1      27.378   8.668  45.840  1.00  0.00     0.010 C 
HETATM   11  C9  UNL     1      28.389   7.742  46.455  1.00  0.00     0.030 C 
HETATM   12  C10 UNL     1      28.510   7.110  47.657  1.00  0.00     0.039 C 
HETATM   13  N1  UNL     1      29.540   7.010  48.621  1.00  0.00    -0.371 N 
HETATM   14  C11 UNL     1      30.808   7.611  48.911  1.00  0.00     0.272 C 
HETATM   15  N2  UNL     1      30.825   8.932  49.390  1.00  0.00    -0.256 NA
HETATM   16  C12 UNL     1      30.095   9.935  49.287  1.00  0.00     0.118 C 
HETATM   17  C13 UNL     1      28.851  10.642  48.756  1.00  0.00     0.245 C 
HETATM   18  O1  UNL     1      28.117   9.796  48.011  1.00  0.00    -0.379 OA
HETATM   19  C14 UNL     1      26.956  10.224  47.416  1.00  0.00     0.205 C 
HETATM   20  H9  UNL     1      29.342   6.326  49.356  1.00  0.00     0.161 HD
ENDROOT
BRANCH  16  21
HETATM   21  N3  UNL     1      30.808  10.906  50.080  1.00  0.00    -0.386 N 
HETATM   22  H12 UNL     1      30.912  11.111  51.116  1.00  0.00     0.157 HD
HETATM   23  H13 UNL     1      31.433  11.687  49.757  1.00  0.00     0.157 HD
ENDBRANCH  16  21
TORSDOF 1
ENDMDL
MODEL 8
REMARK VINA RESULT:      -6.7      3.785      5.281
REMARK  1 active torsions:
REMARK  status: ('A' for Active; 'I' for Inactive)
REMARK    1  A    between atoms: C12_16  and  N3_17 
ROOT
HETATM    1  C1  UNL     1      22.565  -1.713  54.881  1.00  0.00     0.037 C 
HETATM    2  C2  UNL     1      21.431  -0.882  54.479  1.00  0.00    -0.017 C 
HETATM    3  C3  UNL     1      21.610   0.003  53.513  1.00  0.00    -0.012 C 
HETATM    4  C4  UNL     1      22.986   0.034  52.949  1.00  0.00     0.036 C 
HETATM    5  C5  UNL     1      23.702   1.013  52.360  1.00  0.00     0.050 C 
HETATM    6 CL1  UNL     1      25.410   0.748  52.642  1.00  0.00    -0.086 Cl
HETATM    7  C6  UNL     1      23.426   2.245  51.545  1.00  0.00     0.246 C 
HETATM    8  F1  UNL     1      24.057   2.167  50.323  1.00  0.00    -0.238 F 
HETATM    9  C7  UNL     1      22.007   2.550  51.448  1.00  0.00    -0.018 C 
HETATM   10  C8  UNL     1      21.112   3.081  52.319  1.00  0.00     0.010 C 
HETATM   11  C9  UNL     1      20.329   2.087  53.130  1.00  0.00     0.030 C 
HETATM   12  C10 UNL     1      20.337   0.729  53.258  1.00  0.00     0.039 C 
HETATM   13  N1  UNL     1      19.341  -0.273  53.196  1.00  0.00    -0.371 N 
HETATM   14  C11 UNL     1      17.965  -0.406  52.819  1.00  0.00     0.272 C 
HETATM   15  N2  UNL     1      17.641  -0.348  51.453  1.00  0.00    -0.256 NA
HETATM   16  C12 UNL     1      18.126   0.182  50.435  1.00  0.00     0.118 C 
HETATM   17  C13 UNL     1      19.184   1.032  49.739  1.00  0.00     0.245 C 
HETATM   18  O1  UNL     1      20.102   1.453  50.627  1.00  0.00    -0.379 OA
HETATM   19  C14 UNL     1      21.145   2.250  50.224  1.00  0.00     0.205 C 
HETATM   20  H9  UNL     1      19.679  -1.196  53.484  1.00  0.00     0.161 HD
ENDROOT
BRANCH  16  21
HETATM   21  N3  UNL     1      17.198  -0.233  49.412  1.00  0.00    -0.386 N 
HETATM   22  H12 UNL     1      16.388   0.216  48.895  1.00  0.00     0.157 HD
HETATM   23  H13 UNL     1      17.133  -1.161  48.922  1.00  0.00     0.157 HD
ENDBRANCH  16  21
TORSDOF 1
ENDMDL
MODEL 9
REMARK VINA RESULT:      -6.6      3.309      5.032
REMARK  1 active torsions:
REMARK  status: ('A' for Active; 'I' for Inactive)
REMARK    1  A    between atoms: C12_16  and  N3_17 
ROOT
HETATM    1  C1  UNL     1      26.828   3.555  49.253  1.00  0.00     0.037 C 
HETATM    2  C2  UNL     1      26.220   3.269  50.552  1.00  0.00    -0.017 C 
HETATM    3  C3  UNL     1      24.916   3.440  50.688  1.00  0.00    -0.012 C 
HETATM    4  C4  UNL     1      24.223   3.920  49.461  1.00  0.00     0.036 C 
HETATM    5  C5  UNL     1      23.101   4.644  49.280  1.00  0.00     0.050 C 
HETATM    6 CL1  UNL     1      23.219   5.553  47.787  1.00  0.00    -0.086 Cl
HETATM    7  C6  UNL     1      21.805   4.872  50.005  1.00  0.00     0.246 C 
HETATM    8  F1  UNL     1      20.736   4.529  49.206  1.00  0.00    -0.238 F 
HETATM    9  C7  UNL     1      21.775   4.246  51.318  1.00  0.00    -0.018 C 
HETATM   10  C8  UNL     1      22.348   4.559  52.506  1.00  0.00     0.010 C 
HETATM   11  C9  UNL     1      23.673   3.903  52.779  1.00  0.00     0.030 C 
HETATM   12  C10 UNL     1      24.507   3.086  52.074  1.00  0.00     0.039 C 
HETATM   13  N1  UNL     1      25.144   1.853  52.347  1.00  0.00    -0.371 N 
HETATM   14  C11 UNL     1      25.110   0.816  53.336  1.00  0.00     0.272 C 
HETATM   15  N2  UNL     1      23.994  -0.036  53.367  1.00  0.00    -0.256 NA
HETATM   16  C12 UNL     1      22.791   0.044  53.053  1.00  0.00     0.118 C 
HETATM   17  C13 UNL     1      21.597   0.815  52.499  1.00  0.00     0.245 C 
HETATM   18  O1  UNL     1      21.970   2.057  52.140  1.00  0.00    -0.379 OA
HETATM   19  C14 UNL     1      21.050   2.938  51.628  1.00  0.00     0.205 C 
HETATM   20  H9  UNL     1      25.827   1.584  51.633  1.00  0.00     0.161 HD
ENDROOT
BRANCH  16  21
HETATM   21  N3  UNL     1      22.305  -1.270  53.396  1.00  0.00    -0.386 N 
HETATM   22  H12 UNL     1      22.180  -1.822  54.292  1.00  0.00     0.157 HD
HETATM   23  H13 UNL     1      21.937  -2.021  52.759  1.00  0.00     0.157 HD
ENDBRANCH  16  21
TORSDOF 1
ENDMDL
