MODEL 1
REMARK VINA RESULT:      -7.9      0.000      0.000
REMARK  4 active torsions:
REMARK  status: ('A' for Active; 'I' for Inactive)
REMARK    1  A    between atoms: C2_2  and  N1_3 
REMARK    2  A    between atoms: C2_2  and  C14_18 
REMARK    3  A    between atoms: N1_3  and  C3_4 
REMARK    4  A    between atoms: C6_9  and  C7_10 
ROOT
HETATM    1  C3  UNL     1      22.897   1.453  51.325  1.00  0.00     0.137 A 
HETATM    2  N2  UNL     1      21.733   0.989  50.784  1.00  0.00    -0.224 NA
HETATM    3  C4  UNL     1      20.888   0.298  51.571  1.00  0.00     0.234 A 
HETATM    4  N3  UNL     1      21.182   0.069  52.866  1.00  0.00    -0.253 NA
HETATM    5  C5  UNL     1      22.324   0.513  53.433  1.00  0.00     0.133 A 
HETATM    6  C6  UNL     1      23.210   1.223  52.653  1.00  0.00     0.028 A 
ENDROOT
BRANCH   1   7
HETATM    7  N1  UNL     1      23.759   2.189  50.442  1.00  0.00    -0.369 N 
HETATM    8  H5  UNL     1      24.491   1.629  49.944  1.00  0.00     0.161 HD
BRANCH   7   9
HETATM    9  C2  UNL     1      23.631   3.607  50.251  1.00  0.00     0.090 C 
HETATM   10  C1  UNL     1      22.587   4.228  51.120  1.00  0.00     0.033 C 
BRANCH   9  11
HETATM   11  C14 UNL     1      24.947   4.275  50.548  1.00  0.00     0.053 A 
HETATM   12  C15 UNL     1      25.181   5.440  49.668  1.00  0.00    -0.016 A 
HETATM   13  C16 UNL     1      26.304   5.249  48.968  1.00  0.00    -0.004 A 
HETATM   14  C17 UNL     1      26.873   3.952  49.347  1.00  0.00    -0.004 A 
HETATM   15  C18 UNL     1      26.100   3.395  50.247  1.00  0.00    -0.016 A 
ENDBRANCH   9  11
ENDBRANCH   7   9
ENDBRANCH   1   7
BRANCH   6  16
HETATM   16  C7  UNL     1      24.467   1.760  53.141  1.00  0.00     0.028 C 
HETATM   17  C8  UNL     1      25.639   1.165  53.157  1.00  0.00    -0.034 C 
HETATM   18  C9  UNL     1      26.854   1.808  53.684  1.00  0.00     0.025 C 
HETATM   19  C13 UNL     1      25.837  -0.180  52.619  1.00  0.00     0.013 C 
HETATM   20  C10 UNL     1      28.036   1.343  53.364  1.00  0.00    -0.006 C 
HETATM   21  C11 UNL     1      28.232   0.048  53.208  1.00  0.00     0.022 C 
HETATM   22 BR1  UNL     1      29.833  -0.898  53.619  1.00  0.00    -0.050 Br
HETATM   23  C12 UNL     1      27.070  -0.652  52.668  1.00  0.00     0.021 C 
ENDBRANCH   6  16
TORSDOF 4
ENDMDL
MODEL 2
REMARK VINA RESULT:      -7.9      3.130      6.045
REMARK  4 active torsions:
REMARK  status: ('A' for Active; 'I' for Inactive)
REMARK    1  A    between atoms: C2_2  and  N1_3 
REMARK    2  A    between atoms: C2_2  and  C14_18 
REMARK    3  A    between atoms: N1_3  and  C3_4 
REMARK    4  A    between atoms: C6_9  and  C7_10 
ROOT
HETATM    1  C3  UNL     1      26.082   2.431  51.041  1.00  0.00     0.137 A 
HETATM    2  N2  UNL     1      26.883   3.055  50.130  1.00  0.00    -0.224 NA
HETATM    3  C4  UNL     1      26.499   4.251  49.648  1.00  0.00     0.234 A 
HETATM    4  N3  UNL     1      25.348   4.822  50.055  1.00  0.00    -0.253 NA
HETATM    5  C5  UNL     1      24.532   4.232  50.955  1.00  0.00     0.133 A 
HETATM    6  C6  UNL     1      24.899   3.006  51.467  1.00  0.00     0.028 A 
ENDROOT
BRANCH   1   7
HETATM    7  N1  UNL     1      26.544   1.160  51.528  1.00  0.00    -0.369 N 
HETATM    8  H5  UNL     1      26.030   0.319  51.173  1.00  0.00     0.161 HD
BRANCH   7   9
HETATM    9  C2  UNL     1      27.642   1.043  52.447  1.00  0.00     0.090 C 
HETATM   10  C1  UNL     1      27.839   2.260  53.290  1.00  0.00     0.033 C 
BRANCH   9  11
HETATM   11  C14 UNL     1      27.410  -0.130  53.361  1.00  0.00     0.053 A 
HETATM   12  C15 UNL     1      26.173  -0.860  53.010  1.00  0.00    -0.016 A 
HETATM   13  C16 UNL     1      25.342  -0.854  54.058  1.00  0.00    -0.004 A 
HETATM   14  C17 UNL     1      25.982  -0.121  55.155  1.00  0.00    -0.004 A 
HETATM   15  C18 UNL     1      27.161   0.293  54.759  1.00  0.00    -0.016 A 
ENDBRANCH   9  11
ENDBRANCH   7   9
ENDBRANCH   1   7
BRANCH   6  16
HETATM   16  C7  UNL     1      24.115   2.272  52.443  1.00  0.00     0.028 C 
HETATM   17  C8  UNL     1      22.963   1.666  52.253  1.00  0.00    -0.034 C 
HETATM   18  C9  UNL     1      22.252   0.950  53.324  1.00  0.00     0.025 C 
HETATM   19  C13 UNL     1      22.310   1.629  50.946  1.00  0.00     0.013 C 
HETATM   20  C10 UNL     1      21.319   0.079  53.026  1.00  0.00    -0.006 C 
HETATM   21  C11 UNL     1      20.522   0.272  51.993  1.00  0.00     0.022 C 
HETATM   22 BR1  UNL     1      18.697  -0.261  51.874  1.00  0.00    -0.050 Br
HETATM   23  C12 UNL     1      21.171   0.963  50.882  1.00  0.00     0.021 C 
ENDBRANCH   6  16
TORSDOF 4
ENDMDL
MODEL 3
REMARK VINA RESULT:      -7.9      2.823      5.232
REMARK  4 active torsions:
REMARK  status: ('A' for Active; 'I' for Inactive)
REMARK    1  A    between atoms: C2_2  and  N1_3 
REMARK    2  A    between atoms: C2_2  and  C14_18 
REMARK    3  A    between atoms: N1_3  and  C3_4 
REMARK    4  A    between atoms: C6_9  and  C7_10 
ROOT
HETATM    1  C3  UNL     1      23.764  -0.149  53.356  1.00  0.00     0.137 A 
HETATM    2  N2  UNL     1      23.516  -0.890  54.474  1.00  0.00    -0.224 NA
HETATM    3  C4  UNL     1      22.248  -0.986  54.915  1.00  0.00     0.234 A 
HETATM    4  N3  UNL     1      21.243  -0.364  54.266  1.00  0.00    -0.253 NA
HETATM    5  C5  UNL     1      21.454   0.377  53.157  1.00  0.00     0.133 A 
HETATM    6  C6  UNL     1      22.742   0.494  52.682  1.00  0.00     0.028 A 
ENDROOT
BRANCH   1   7
HETATM    7  N1  UNL     1      25.134  -0.087  52.926  1.00  0.00    -0.369 N 
HETATM    8  H5  UNL     1      25.302   0.364  51.995  1.00  0.00     0.161 HD
BRANCH   7   9
HETATM    9  C2  UNL     1      26.212  -0.610  53.719  1.00  0.00     0.090 C 
HETATM   10  C1  UNL     1      27.243  -1.330  52.913  1.00  0.00     0.033 C 
BRANCH   9  11
HETATM   11  C14 UNL     1      26.890   0.517  54.451  1.00  0.00     0.053 A 
HETATM   12  C15 UNL     1      26.777   1.795  53.714  1.00  0.00    -0.016 A 
HETATM   13  C16 UNL     1      28.001   2.254  53.433  1.00  0.00    -0.004 A 
HETATM   14  C17 UNL     1      28.987   1.309  53.969  1.00  0.00    -0.004 A 
HETATM   15  C18 UNL     1      28.355   0.318  54.548  1.00  0.00    -0.016 A 
ENDBRANCH   9  11
ENDBRANCH   7   9
ENDBRANCH   1   7
BRANCH   6  16
HETATM   16  C7  UNL     1      23.100   1.254  51.498  1.00  0.00     0.028 C 
HETATM   17  C8  UNL     1      23.363   2.540  51.422  1.00  0.00    -0.034 C 
HETATM   18  C9  UNL     1      23.714   3.210  50.160  1.00  0.00     0.025 C 
HETATM   19  C13 UNL     1      23.359   3.406  52.600  1.00  0.00     0.013 C 
HETATM   20  C10 UNL     1      24.305   4.379  50.177  1.00  0.00    -0.006 C 
HETATM   21  C11 UNL     1      24.009   5.270  51.104  1.00  0.00     0.022 C 
HETATM   22 BR1  UNL     1      24.000   7.161  50.874  1.00  0.00    -0.050 Br
HETATM   23  C12 UNL     1      23.669   4.674  52.393  1.00  0.00     0.021 C 
ENDBRANCH   6  16
TORSDOF 4
ENDMDL
MODEL 4
REMARK VINA RESULT:      -7.8      3.259      5.275
REMARK  4 active torsions:
REMARK  status: ('A' for Active; 'I' for Inactive)
REMARK    1  A    between atoms: C2_2  and  N1_3 
REMARK    2  A    between atoms: C2_2  and  C14_18 
REMARK    3  A    between atoms: N1_3  and  C3_4 
REMARK    4  A    between atoms: C6_9  and  C7_10 
ROOT
HETATM    1  C3  UNL     1      25.341   1.666  53.371  1.00  0.00     0.137 A 
HETATM    2  N2  UNL     1      26.411   1.730  54.215  1.00  0.00    -0.224 NA
HETATM    3  C4  UNL     1      26.804   0.607  54.843  1.00  0.00     0.234 A 
HETATM    4  N3  UNL     1      26.155  -0.558  54.644  1.00  0.00    -0.253 NA
HETATM    5  C5  UNL     1      25.094  -0.657  53.816  1.00  0.00     0.133 A 
HETATM    6  C6  UNL     1      24.668   0.476  53.158  1.00  0.00     0.028 A 
ENDROOT
BRANCH   1   7
HETATM    7  N1  UNL     1      24.969   2.892  52.721  1.00  0.00    -0.369 N 
HETATM    8  H5  UNL     1      24.148   3.398  53.132  1.00  0.00     0.161 HD
BRANCH   7   9
HETATM    9  C2  UNL     1      25.675   3.399  51.577  1.00  0.00     0.090 C 
HETATM   10  C1  UNL     1      26.412   2.343  50.823  1.00  0.00     0.033 C 
BRANCH   9  11
HETATM   11  C14 UNL     1      24.700   4.055  50.636  1.00  0.00     0.053 A 
HETATM   12  C15 UNL     1      23.386   4.279  51.277  1.00  0.00    -0.016 A 
HETATM   13  C16 UNL     1      22.441   3.630  50.589  1.00  0.00    -0.004 A 
HETATM   14  C17 UNL     1      23.077   2.945  49.458  1.00  0.00    -0.004 A 
HETATM   15  C18 UNL     1      24.364   3.186  49.485  1.00  0.00    -0.016 A 
ENDBRANCH   9  11
ENDBRANCH   7   9
ENDBRANCH   1   7
BRANCH   6  16
HETATM   16  C7  UNL     1      23.545   0.502  52.238  1.00  0.00     0.028 C 
HETATM   17  C8  UNL     1      22.297   0.175  52.490  1.00  0.00    -0.034 C 
HETATM   18  C9  UNL     1      21.235   0.237  51.472  1.00  0.00     0.025 C 
HETATM   19  C13 UNL     1      21.855  -0.248  53.817  1.00  0.00     0.013 C 
HETATM   20  C10 UNL     1      19.976   0.252  51.835  1.00  0.00    -0.006 C 
HETATM   21  C11 UNL     1      19.568  -0.435  52.884  1.00  0.00     0.022 C 
HETATM   22 BR1  UNL     1      17.866  -1.268  53.083  1.00  0.00    -0.050 Br
HETATM   23  C12 UNL     1      20.568  -0.521  53.944  1.00  0.00     0.021 C 
ENDBRANCH   6  16
TORSDOF 4
ENDMDL
MODEL 5
REMARK VINA RESULT:      -7.6      3.052      5.882
REMARK  4 active torsions:
REMARK  status: ('A' for Active; 'I' for Inactive)
REMARK    1  A    between atoms: C2_2  and  N1_3 
REMARK    2  A    between atoms: C2_2  and  C14_18 
REMARK    3  A    between atoms: N1_3  and  C3_4 
REMARK    4  A    between atoms: C6_9  and  C7_10 
ROOT
HETATM    1  C3  UNL     1      24.596   0.322  53.331  1.00  0.00     0.137 A 
HETATM    2  N2  UNL     1      25.202  -0.900  53.317  1.00  0.00    -0.224 NA
HETATM    3  C4  UNL     1      26.512  -0.966  53.016  1.00  0.00     0.234 A 
HETATM    4  N3  UNL     1      27.212   0.151  52.733  1.00  0.00    -0.253 NA
HETATM    5  C5  UNL     1      26.644   1.376  52.738  1.00  0.00     0.133 A 
HETATM    6  C6  UNL     1      25.303   1.475  53.043  1.00  0.00     0.028 A 
ENDROOT
BRANCH   1   7
HETATM    7  N1  UNL     1      23.198   0.334  53.666  1.00  0.00    -0.369 N 
HETATM    8  H5  UNL     1      22.868   1.157  54.225  1.00  0.00     0.161 HD
BRANCH   7   9
HETATM    9  C2  UNL     1      22.304  -0.715  53.263  1.00  0.00     0.090 C 
HETATM   10  C1  UNL     1      21.879  -1.595  54.392  1.00  0.00     0.033 C 
BRANCH   9  11
HETATM   11  C14 UNL     1      21.069  -0.113  52.647  1.00  0.00     0.053 A 
HETATM   12  C15 UNL     1      21.301   0.296  51.244  1.00  0.00    -0.016 A 
HETATM   13  C16 UNL     1      21.075   1.608  51.122  1.00  0.00    -0.004 A 
HETATM   14  C17 UNL     1      20.683   2.137  52.433  1.00  0.00    -0.004 A 
HETATM   15  C18 UNL     1      20.679   1.157  53.303  1.00  0.00    -0.016 A 
ENDBRANCH   9  11
ENDBRANCH   7   9
ENDBRANCH   1   7
BRANCH   6  16
HETATM   16  C7  UNL     1      24.576   2.730  53.089  1.00  0.00     0.028 C 
HETATM   17  C8  UNL     1      24.136   3.438  52.071  1.00  0.00    -0.034 C 
HETATM   18  C9  UNL     1      23.409   4.706  52.236  1.00  0.00     0.025 C 
HETATM   19  C13 UNL     1      24.307   3.000  50.687  1.00  0.00     0.013 C 
HETATM   20  C10 UNL     1      22.691   5.187  51.250  1.00  0.00    -0.006 C 
HETATM   21  C11 UNL     1      23.080   5.038  49.998  1.00  0.00     0.022 C 
HETATM   22 BR1  UNL     1      22.785   6.278  48.582  1.00  0.00    -0.050 Br
HETATM   23  C12 UNL     1      23.793   3.787  49.759  1.00  0.00     0.021 C 
ENDBRANCH   6  16
TORSDOF 4
ENDMDL
MODEL 6
REMARK VINA RESULT:      -7.6      2.245      3.596
REMARK  4 active torsions:
REMARK  status: ('A' for Active; 'I' for Inactive)
REMARK    1  A    between atoms: C2_2  and  N1_3 
REMARK    2  A    between atoms: C2_2  and  C14_18 
REMARK    3  A    between atoms: N1_3  and  C3_4 
REMARK    4  A    between atoms: C6_9  and  C7_10 
ROOT
HETATM    1  C3  UNL     1      24.047   5.360  50.897  1.00  0.00     0.137 A 
HETATM    2  N2  UNL     1      23.104   6.325  51.099  1.00  0.00    -0.224 NA
HETATM    3  C4  UNL     1      21.853   5.945  51.420  1.00  0.00     0.234 A 
HETATM    4  N3  UNL     1      21.538   4.640  51.542  1.00  0.00    -0.253 NA
HETATM    5  C5  UNL     1      22.447   3.661  51.350  1.00  0.00     0.133 A 
HETATM    6  C6  UNL     1      23.736   4.018  51.019  1.00  0.00     0.028 A 
ENDROOT
BRANCH   1   7
HETATM    7  N1  UNL     1      25.366   5.822  50.563  1.00  0.00    -0.369 N 
HETATM    8  H5  UNL     1      26.157   5.358  51.071  1.00  0.00     0.161 HD
BRANCH   7   9
HETATM    9  C2  UNL     1      25.594   6.856  49.592  1.00  0.00     0.090 C 
HETATM   10  C1  UNL     1      26.407   7.992  50.120  1.00  0.00     0.033 C 
BRANCH   9  11
HETATM   11  C14 UNL     1      26.311   6.279  48.401  1.00  0.00     0.053 A 
HETATM   12  C15 UNL     1      27.062   5.055  48.755  1.00  0.00    -0.016 A 
HETATM   13  C16 UNL     1      28.360   5.237  48.488  1.00  0.00    -0.004 A 
HETATM   14  C17 UNL     1      28.537   6.588  47.945  1.00  0.00    -0.004 A 
HETATM   15  C18 UNL     1      27.370   7.183  47.895  1.00  0.00    -0.016 A 
ENDBRANCH   9  11
ENDBRANCH   7   9
ENDBRANCH   1   7
BRANCH   6  16
HETATM   16  C7  UNL     1      24.806   3.064  50.793  1.00  0.00     0.028 C 
HETATM   17  C8  UNL     1      25.495   2.404  51.698  1.00  0.00    -0.034 C 
HETATM   18  C9  UNL     1      26.568   1.458  51.352  1.00  0.00     0.025 C 
HETATM   19  C13 UNL     1      25.225   2.535  53.129  1.00  0.00     0.013 C 
HETATM   20  C10 UNL     1      26.975   0.575  52.230  1.00  0.00    -0.006 C 
HETATM   21  C11 UNL     1      27.021   0.872  53.514  1.00  0.00     0.022 C 
HETATM   22 BR1  UNL     1      28.293   0.214  54.770  1.00  0.00    -0.050 Br
HETATM   23  C12 UNL     1      25.969   1.795  53.932  1.00  0.00     0.021 C 
ENDBRANCH   6  16
TORSDOF 4
ENDMDL
MODEL 7
REMARK VINA RESULT:      -7.4      1.262      1.817
REMARK  4 active torsions:
REMARK  status: ('A' for Active; 'I' for Inactive)
REMARK    1  A    between atoms: C2_2  and  N1_3 
REMARK    2  A    between atoms: C2_2  and  C14_18 
REMARK    3  A    between atoms: N1_3  and  C3_4 
REMARK    4  A    between atoms: C6_9  and  C7_10 
ROOT
HETATM    1  C3  UNL     1      21.638   0.863  52.037  1.00  0.00     0.137 A 
HETATM    2  N2  UNL     1      20.406   0.279  52.021  1.00  0.00    -0.224 NA
HETATM    3  C4  UNL     1      20.007  -0.413  53.105  1.00  0.00     0.234 A 
HETATM    4  N3  UNL     1      20.808  -0.528  54.183  1.00  0.00    -0.253 NA
HETATM    5  C5  UNL     1      22.033   0.037  54.232  1.00  0.00     0.133 A 
HETATM    6  C6  UNL     1      22.469   0.751  53.137  1.00  0.00     0.028 A 
ENDROOT
BRANCH   1   7
HETATM    7  N1  UNL     1      22.010   1.595  50.857  1.00  0.00    -0.369 N 
HETATM    8  H5  UNL     1      22.696   1.122  50.222  1.00  0.00     0.161 HD
BRANCH   7   9
HETATM    9  C2  UNL     1      21.478   2.896  50.563  1.00  0.00     0.090 C 
HETATM   10  C1  UNL     1      20.978   3.617  51.771  1.00  0.00     0.033 C 
BRANCH   9  11
HETATM   11  C14 UNL     1      22.544   3.741  49.918  1.00  0.00     0.053 A 
HETATM   12  C15 UNL     1      23.619   2.912  49.332  1.00  0.00    -0.016 A 
HETATM   13  C16 UNL     1      24.785   3.229  49.903  1.00  0.00    -0.004 A 
HETATM   14  C17 UNL     1      24.546   4.282  50.896  1.00  0.00    -0.004 A 
HETATM   15  C18 UNL     1      23.268   4.574  50.906  1.00  0.00    -0.016 A 
ENDBRANCH   9  11
ENDBRANCH   7   9
ENDBRANCH   1   7
BRANCH   6  16
HETATM   16  C7  UNL     1      23.760   1.411  53.065  1.00  0.00     0.028 C 
HETATM   17  C8  UNL     1      24.949   0.848  53.082  1.00  0.00    -0.034 C 
HETATM   18  C9  UNL     1      26.199   1.620  53.006  1.00  0.00     0.025 C 
HETATM   19  C13 UNL     1      25.122  -0.602  53.143  1.00  0.00     0.013 C 
HETATM   20  C10 UNL     1      27.319   1.029  52.670  1.00  0.00    -0.006 C 
HETATM   21  C11 UNL     1      27.566  -0.211  53.046  1.00  0.00     0.022 C 
HETATM   22 BR1  UNL     1      29.279  -0.931  53.467  1.00  0.00    -0.050 Br
HETATM   23  C12 UNL     1      26.368  -1.042  53.124  1.00  0.00     0.021 C 
ENDBRANCH   6  16
TORSDOF 4
ENDMDL
MODEL 8
REMARK VINA RESULT:      -7.3      3.168      5.118
REMARK  4 active torsions:
REMARK  status: ('A' for Active; 'I' for Inactive)
REMARK    1  A    between atoms: C2_2  and  N1_3 
REMARK    2  A    between atoms: C2_2  and  C14_18 
REMARK    3  A    between atoms: N1_3  and  C3_4 
REMARK    4  A    between atoms: C6_9  and  C7_10 
ROOT
HETATM    1  C3  UNL     1      25.942   2.655  51.655  1.00  0.00     0.137 A 
HETATM    2  N2  UNL     1      27.236   2.229  51.707  1.00  0.00    -0.224 NA
HETATM    3  C4  UNL     1      27.727   1.802  52.885  1.00  0.00     0.234 A 
HETATM    4  N3  UNL     1      26.957   1.795  53.992  1.00  0.00    -0.253 NA
HETATM    5  C5  UNL     1      25.673   2.210  53.976  1.00  0.00     0.133 A 
HETATM    6  C6  UNL     1      25.142   2.653  52.784  1.00  0.00     0.028 A 
ENDROOT
BRANCH   1   7
HETATM    7  N1  UNL     1      25.468   3.093  50.371  1.00  0.00    -0.369 N 
HETATM    8  H5  UNL     1      24.915   2.392  49.823  1.00  0.00     0.161 HD
BRANCH   7   9
HETATM    9  C2  UNL     1      25.733   4.411  49.864  1.00  0.00     0.090 C 
HETATM   10  C1  UNL     1      26.977   4.487  49.041  1.00  0.00     0.033 C 
BRANCH   9  11
HETATM   11  C14 UNL     1      24.578   4.864  49.012  1.00  0.00     0.053 A 
HETATM   12  C15 UNL     1      23.777   5.908  49.687  1.00  0.00    -0.016 A 
HETATM   13  C16 UNL     1      22.517   5.481  49.825  1.00  0.00    -0.004 A 
HETATM   14  C17 UNL     1      22.417   4.135  49.251  1.00  0.00    -0.004 A 
HETATM   15  C18 UNL     1      23.591   3.782  48.788  1.00  0.00    -0.016 A 
ENDBRANCH   9  11
ENDBRANCH   7   9
ENDBRANCH   1   7
BRANCH   6  16
HETATM   16  C7  UNL     1      23.776   3.119  52.631  1.00  0.00     0.028 C 
HETATM   17  C8  UNL     1      22.691   2.387  52.495  1.00  0.00    -0.034 C 
HETATM   18  C9  UNL     1      21.349   2.971  52.343  1.00  0.00     0.025 C 
HETATM   19  C13 UNL     1      22.730   0.926  52.517  1.00  0.00     0.013 C 
HETATM   20  C10 UNL     1      20.284   2.240  52.566  1.00  0.00    -0.006 C 
HETATM   21  C11 UNL     1      20.268   0.959  52.252  1.00  0.00     0.022 C 
HETATM   22 BR1  UNL     1      18.750  -0.026  51.656  1.00  0.00    -0.050 Br
HETATM   23  C12 UNL     1      21.567   0.310  52.400  1.00  0.00     0.021 C 
ENDBRANCH   6  16
TORSDOF 4
ENDMDL
MODEL 9
REMARK VINA RESULT:      -7.3      2.976      5.806
REMARK  4 active torsions:
REMARK  status: ('A' for Active; 'I' for Inactive)
REMARK    1  A    between atoms: C2_2  and  N1_3 
REMARK    2  A    between atoms: C2_2  and  C14_18 
REMARK    3  A    between atoms: N1_3  and  C3_4 
REMARK    4  A    between atoms: C6_9  and  C7_10 
ROOT
HETATM    1  C3  UNL     1      24.369   3.093  51.778  1.00  0.00     0.137 A 
HETATM    2  N2  UNL     1      23.185   3.003  52.449  1.00  0.00    -0.224 NA
HETATM    3  C4  UNL     1      22.046   3.276  51.786  1.00  0.00     0.234 A 
HETATM    4  N3  UNL     1      22.073   3.629  50.485  1.00  0.00    -0.253 NA
HETATM    5  C5  UNL     1      23.226   3.726  49.791  1.00  0.00     0.133 A 
HETATM    6  C6  UNL     1      24.409   3.454  50.443  1.00  0.00     0.028 A 
ENDROOT
BRANCH   1   7
HETATM    7  N1  UNL     1      25.552   2.785  52.533  1.00  0.00    -0.369 N 
HETATM    8  H5  UNL     1      26.287   3.532  52.558  1.00  0.00     0.161 HD
BRANCH   7   9
HETATM    9  C2  UNL     1      25.724   1.531  53.213  1.00  0.00     0.090 C 
HETATM   10  C1  UNL     1      25.969   0.386  52.287  1.00  0.00     0.033 C 
BRANCH   9  11
HETATM   11  C14 UNL     1      26.890   1.629  54.160  1.00  0.00     0.053 A 
HETATM   12  C15 UNL     1      28.069   2.247  53.513  1.00  0.00    -0.016 A 
HETATM   13  C16 UNL     1      29.094   1.389  53.547  1.00  0.00    -0.004 A 
HETATM   14  C17 UNL     1      28.650   0.160  54.215  1.00  0.00    -0.004 A 
HETATM   15  C18 UNL     1      27.395   0.296  54.564  1.00  0.00    -0.016 A 
ENDBRANCH   9  11
ENDBRANCH   7   9
ENDBRANCH   1   7
BRANCH   6  16
HETATM   16  C7  UNL     1      25.714   3.516  49.811  1.00  0.00     0.028 C 
HETATM   17  C8  UNL     1      26.290   4.565  49.265  1.00  0.00    -0.034 C 
HETATM   18  C9  UNL     1      27.623   4.512  48.645  1.00  0.00     0.025 C 
HETATM   19  C13 UNL     1      25.660   5.884  49.261  1.00  0.00     0.013 C 
HETATM   20  C10 UNL     1      28.299   5.615  48.440  1.00  0.00    -0.006 C 
HETATM   21  C11 UNL     1      27.681   6.733  48.108  1.00  0.00     0.022 C 
HETATM   22 BR1  UNL     1      28.371   8.095  46.969  1.00  0.00    -0.050 Br
HETATM   23  C12 UNL     1      26.356   6.861  48.707  1.00  0.00     0.021 C 
ENDBRANCH   6  16
TORSDOF 4
ENDMDL
