MODEL 1
REMARK VINA RESULT:      -7.9      0.000      0.000
REMARK  8 active torsions:
REMARK  status: ('A' for Active; 'I' for Inactive)
REMARK    1  A    between atoms: O1_2  and  C2_3 
REMARK    2  A    between atoms: C3_4  and  C4_5 
REMARK    3  A    between atoms: C4_5  and  N4_22 
REMARK    4  A    between atoms: C5_6  and  C6_7 
REMARK    5  A    between atoms: C6_7  and  C7_8 
REMARK    6  A    between atoms: C8_10  and  C9_11 
REMARK    7  A    between atoms: C9_11  and  C10_12 
REMARK    8  A    between atoms: N2_14  and  C11_15 
REMARK       I    between atoms: N5_25  and  C19_26 
ROOT
HETATM    1  C4  UNL     1      25.686   5.604  49.658  1.00  0.00     0.083 C 
HETATM    2  C5  UNL     1      26.103   4.367  49.436  1.00  0.00     0.020 C 
ENDROOT
BRANCH   2   3
HETATM    3  C6  UNL     1      25.190   3.244  49.824  1.00  0.00     0.110 C 
BRANCH   3   4
HETATM    4  C7  UNL     1      25.766   2.478  50.955  1.00  0.00     0.128 A 
HETATM    5  N1  UNL     1      25.108   1.566  51.518  1.00  0.00    -0.249 NA
HETATM    6  C8  UNL     1      25.497   0.725  52.613  1.00  0.00     0.213 A 
HETATM    7  N2  UNL     1      26.793   1.107  53.107  1.00  0.00    -0.343 N 
HETATM    8  C16 UNL     1      27.511   2.152  52.420  1.00  0.00     0.209 A 
HETATM    9  N3  UNL     1      27.059   2.812  51.416  1.00  0.00    -0.229 NA
BRANCH   6  10
HETATM   10  C9  UNL     1      24.398   0.776  53.636  1.00  0.00     0.080 C 
BRANCH  10  11
HETATM   11  C10 UNL     1      23.685  -0.573  53.584  1.00  0.00     0.226 C 
HETATM   12  F1  UNL     1      23.901  -1.166  54.810  1.00  0.00    -0.255 F 
ENDBRANCH  10  11
ENDBRANCH   6  10
BRANCH   7  13
HETATM   13  C11 UNL     1      27.380   0.406  54.381  1.00  0.00     0.129 A 
HETATM   14  C12 UNL     1      28.310  -0.119  54.167  1.00  0.00    -0.042 A 
HETATM   15  C13 UNL     1      28.995  -0.522  53.990  1.00  0.00    -0.059 A 
HETATM   16  C15 UNL     1      28.133  -1.046  53.034  1.00  0.00     0.069 A 
HETATM   17  C14 UNL     1      29.856  -1.048  53.746  1.00  0.00     0.038 A 
ENDBRANCH   7  13
ENDBRANCH   3   4
ENDBRANCH   2   3
BRANCH   1  18
HETATM   18  C3  UNL     1      24.389   5.750  50.255  1.00  0.00    -0.019 C 
HETATM   19  C2  UNL     1      23.295   5.875  50.748  1.00  0.00     0.060 C 
BRANCH  19  20
HETATM   20  O1  UNL     1      22.049   6.007  51.290  1.00  0.00    -0.308 OA
HETATM   21  C1  UNL     1      21.267   4.839  51.402  1.00  0.00     0.223 C 
ENDBRANCH  19  20
ENDBRANCH   1  18
BRANCH   1  22
HETATM   22  N4  UNL     1      26.489   6.728  49.320  1.00  0.00    -0.371 N 
HETATM   23  C17 UNL     1      27.601   6.358  48.473  1.00  0.00     0.143 C 
HETATM   24  C18 UNL     1      28.121   7.494  47.633  1.00  0.00     0.145 C 
HETATM   25  N5  UNL     1      28.288   8.660  48.440  1.00  0.00    -0.349 N 
HETATM   26  C19 UNL     1      29.158   9.581  47.835  1.00  0.00     0.215 C 
HETATM   27  C21 UNL     1      27.620   8.821  49.716  1.00  0.00     0.145 C 
HETATM   28  C20 UNL     1      29.464  10.871  48.525  1.00  0.00     0.117 C 
HETATM   29  O2  UNL     1      29.549   9.108  46.734  1.00  0.00    -0.274 OA
HETATM   30  C22 UNL     1      26.290   8.108  49.729  1.00  0.00     0.143 C 
ENDBRANCH   1  22
TORSDOF 8
ENDMDL
MODEL 2
REMARK VINA RESULT:      -7.8      4.842      8.082
REMARK  8 active torsions:
REMARK  status: ('A' for Active; 'I' for Inactive)
REMARK    1  A    between atoms: O1_2  and  C2_3 
REMARK    2  A    between atoms: C3_4  and  C4_5 
REMARK    3  A    between atoms: C4_5  and  N4_22 
REMARK    4  A    between atoms: C5_6  and  C6_7 
REMARK    5  A    between atoms: C6_7  and  C7_8 
REMARK    6  A    between atoms: C8_10  and  C9_11 
REMARK    7  A    between atoms: C9_11  and  C10_12 
REMARK    8  A    between atoms: N2_14  and  C11_15 
REMARK       I    between atoms: N5_25  and  C19_26 
ROOT
HETATM    1  C4  UNL     1      21.416   1.401  50.468  1.00  0.00     0.083 C 
HETATM    2  C5  UNL     1      22.351   1.477  51.403  1.00  0.00     0.020 C 
ENDROOT
BRANCH   2   3
HETATM    3  C6  UNL     1      23.695   2.005  51.003  1.00  0.00     0.110 C 
BRANCH   3   4
HETATM    4  C7  UNL     1      24.741   1.506  51.927  1.00  0.00     0.128 A 
HETATM    5  N1  UNL     1      24.606   0.405  52.521  1.00  0.00    -0.249 NA
HETATM    6  C8  UNL     1      25.504  -0.235  53.439  1.00  0.00     0.213 A 
HETATM    7  N2  UNL     1      26.638   0.610  53.706  1.00  0.00    -0.343 N 
HETATM    8  C16 UNL     1      26.750   1.858  52.993  1.00  0.00     0.209 A 
HETATM    9  N3  UNL     1      25.883   2.305  52.160  1.00  0.00    -0.229 NA
BRANCH   6  10
HETATM   10  C9  UNL     1      24.710  -0.620  54.654  1.00  0.00     0.080 C 
BRANCH  10  11
HETATM   11  C10 UNL     1      23.273  -0.845  54.189  1.00  0.00     0.226 C 
HETATM   12  F1  UNL     1      22.630  -1.481  55.229  1.00  0.00    -0.255 F 
ENDBRANCH  10  11
ENDBRANCH   6  10
BRANCH   7  13
HETATM   13  C11 UNL     1      27.700   0.173  54.775  1.00  0.00     0.129 A 
HETATM   14  C12 UNL     1      28.654  -0.088  54.319  1.00  0.00    -0.042 A 
HETATM   15  C13 UNL     1      29.357  -0.298  53.964  1.00  0.00    -0.059 A 
HETATM   16  C15 UNL     1      28.463  -1.094  53.257  1.00  0.00     0.069 A 
HETATM   17  C14 UNL     1      30.239  -0.581  53.497  1.00  0.00     0.038 A 
ENDBRANCH   7  13
ENDBRANCH   3   4
ENDBRANCH   2   3
BRANCH   1  18
HETATM   18  C3  UNL     1      21.785   1.836  49.151  1.00  0.00    -0.019 C 
HETATM   19  C2  UNL     1      22.085   2.202  48.041  1.00  0.00     0.060 C 
BRANCH  19  20
HETATM   20  O1  UNL     1      22.409   2.629  46.785  1.00  0.00    -0.308 OA
HETATM   21  C1  UNL     1      21.936   3.898  46.392  1.00  0.00     0.223 C 
ENDBRANCH  19  20
ENDBRANCH   1  18
BRANCH   1  22
HETATM   22  N4  UNL     1      20.113   0.913  50.761  1.00  0.00    -0.371 N 
HETATM   23  C17 UNL     1      20.126  -0.022  51.864  1.00  0.00     0.143 C 
HETATM   24  C18 UNL     1      18.807  -0.122  52.582  1.00  0.00     0.145 C 
HETATM   25  N5  UNL     1      17.747  -0.260  51.636  1.00  0.00    -0.349 N 
HETATM   26  C19 UNL     1      16.590  -0.788  52.234  1.00  0.00     0.215 C 
HETATM   27  C21 UNL     1      17.897   0.114  50.244  1.00  0.00     0.145 C 
HETATM   28  C20 UNL     1      15.366  -1.009  51.408  1.00  0.00     0.117 C 
HETATM   29  O2  UNL     1      16.824  -0.993  53.456  1.00  0.00    -0.274 OA
HETATM   30  C22 UNL     1      18.872   1.256  50.088  1.00  0.00     0.143 C 
ENDBRANCH   1  22
TORSDOF 8
ENDMDL
MODEL 3
REMARK VINA RESULT:      -7.6      4.155      8.203
REMARK  8 active torsions:
REMARK  status: ('A' for Active; 'I' for Inactive)
REMARK    1  A    between atoms: O1_2  and  C2_3 
REMARK    2  A    between atoms: C3_4  and  C4_5 
REMARK    3  A    between atoms: C4_5  and  N4_22 
REMARK    4  A    between atoms: C5_6  and  C6_7 
REMARK    5  A    between atoms: C6_7  and  C7_8 
REMARK    6  A    between atoms: C8_10  and  C9_11 
REMARK    7  A    between atoms: C9_11  and  C10_12 
REMARK    8  A    between atoms: N2_14  and  C11_15 
REMARK       I    between atoms: N5_25  and  C19_26 
ROOT
HETATM    1  C4  UNL     1      24.914   2.761  52.018  1.00  0.00     0.083 C 
HETATM    2  C5  UNL     1      23.812   2.816  52.751  1.00  0.00     0.020 C 
ENDROOT
BRANCH   2   3
HETATM    3  C6  UNL     1      22.746   3.782  52.336  1.00  0.00     0.110 C 
BRANCH   3   4
HETATM    4  C7  UNL     1      21.560   3.054  51.826  1.00  0.00     0.128 A 
HETATM    5  N1  UNL     1      21.663   2.241  50.872  1.00  0.00    -0.249 NA
HETATM    6  C8  UNL     1      20.637   1.450  50.254  1.00  0.00     0.213 A 
HETATM    7  N2  UNL     1      19.351   1.760  50.820  1.00  0.00    -0.343 N 
HETATM    8  C16 UNL     1      19.289   2.693  51.917  1.00  0.00     0.209 A 
HETATM    9  N3  UNL     1      20.298   3.314  52.408  1.00  0.00    -0.229 NA
BRANCH   6  10
HETATM   10  C9  UNL     1      20.736   1.662  48.770  1.00  0.00     0.080 C 
BRANCH  10  11
HETATM   11  C10 UNL     1      22.149   2.169  48.491  1.00  0.00     0.226 C 
HETATM   12  F1  UNL     1      22.616   1.429  47.426  1.00  0.00    -0.255 F 
ENDBRANCH  10  11
ENDBRANCH   6  10
BRANCH   7  13
HETATM   13  C11 UNL     1      18.058   1.106  50.220  1.00  0.00     0.129 A 
HETATM   14  C12 UNL     1      17.496   0.550  50.970  1.00  0.00    -0.042 A 
HETATM   15  C13 UNL     1      17.095   0.123  51.536  1.00  0.00    -0.059 A 
HETATM   16  C15 UNL     1      18.367  -0.425  51.653  1.00  0.00     0.069 A 
HETATM   17  C14 UNL     1      16.605  -0.434  52.262  1.00  0.00     0.038 A 
ENDBRANCH   7  13
ENDBRANCH   3   4
ENDBRANCH   2   3
BRANCH   1  18
HETATM   18  C3  UNL     1      24.979   3.642  50.886  1.00  0.00    -0.019 C 
HETATM   19  C2  UNL     1      25.025   4.383  49.935  1.00  0.00     0.060 C 
BRANCH  19  20
HETATM   20  O1  UNL     1      25.061   5.233  48.867  1.00  0.00    -0.308 OA
HETATM   21  C1  UNL     1      26.180   6.085  48.758  1.00  0.00     0.223 C 
ENDBRANCH  19  20
ENDBRANCH   1  18
BRANCH   1  22
HETATM   22  N4  UNL     1      25.976   1.872  52.340  1.00  0.00    -0.371 N 
HETATM   23  C17 UNL     1      25.484   0.582  52.770  1.00  0.00     0.143 C 
HETATM   24  C18 UNL     1      26.471  -0.536  52.568  1.00  0.00     0.145 C 
HETATM   25  N5  UNL     1      27.756  -0.144  53.054  1.00  0.00    -0.349 N 
HETATM   26  C19 UNL     1      28.575  -1.259  53.295  1.00  0.00     0.215 C 
HETATM   27  C21 UNL     1      28.117   1.245  53.256  1.00  0.00     0.145 C 
HETATM   28  C20 UNL     1      29.963  -1.059  53.809  1.00  0.00     0.117 C 
HETATM   29  O2  UNL     1      27.931  -2.304  53.009  1.00  0.00    -0.274 OA
HETATM   30  C22 UNL     1      27.402   2.143  52.275  1.00  0.00     0.143 C 
ENDBRANCH   1  22
TORSDOF 8
ENDMDL
MODEL 4
REMARK VINA RESULT:      -7.6      4.059      7.785
REMARK  8 active torsions:
REMARK  status: ('A' for Active; 'I' for Inactive)
REMARK    1  A    between atoms: O1_2  and  C2_3 
REMARK    2  A    between atoms: C3_4  and  C4_5 
REMARK    3  A    between atoms: C4_5  and  N4_22 
REMARK    4  A    between atoms: C5_6  and  C6_7 
REMARK    5  A    between atoms: C6_7  and  C7_8 
REMARK    6  A    between atoms: C8_10  and  C9_11 
REMARK    7  A    between atoms: C9_11  and  C10_12 
REMARK    8  A    between atoms: N2_14  and  C11_15 
REMARK       I    between atoms: N5_25  and  C19_26 
ROOT
HETATM    1  C4  UNL     1      21.271   2.206  50.952  1.00  0.00     0.083 C 
HETATM    2  C5  UNL     1      22.404   1.543  50.783  1.00  0.00     0.020 C 
ENDROOT
BRANCH   2   3
HETATM    3  C6  UNL     1      23.680   2.329  50.794  1.00  0.00     0.110 C 
BRANCH   3   4
HETATM    4  C7  UNL     1      24.643   1.736  51.751  1.00  0.00     0.128 A 
HETATM    5  N1  UNL     1      24.430   0.608  52.265  1.00  0.00    -0.249 NA
HETATM    6  C8  UNL     1      25.242  -0.120  53.198  1.00  0.00     0.213 A 
HETATM    7  N2  UNL     1      26.383   0.664  53.591  1.00  0.00    -0.343 N 
HETATM    8  C16 UNL     1      26.587   1.946  52.966  1.00  0.00     0.209 A 
HETATM    9  N3  UNL     1      25.794   2.475  52.107  1.00  0.00    -0.229 NA
BRANCH   6  10
HETATM   10  C9  UNL     1      24.355  -0.546  54.333  1.00  0.00     0.080 C 
BRANCH  10  11
HETATM   11  C10 UNL     1      22.916  -0.418  53.839  1.00  0.00     0.226 C 
HETATM   12  F1  UNL     1      22.651  -1.571  53.132  1.00  0.00    -0.255 F 
ENDBRANCH  10  11
ENDBRANCH   6  10
BRANCH   7  13
HETATM   13  C11 UNL     1      27.355   0.123  54.698  1.00  0.00     0.129 A 
HETATM   14  C12 UNL     1      28.335  -0.129  54.293  1.00  0.00    -0.042 A 
HETATM   15  C13 UNL     1      29.057  -0.331  53.975  1.00  0.00    -0.059 A 
HETATM   16  C15 UNL     1      28.201  -1.051  53.149  1.00  0.00     0.069 A 
HETATM   17  C14 UNL     1      29.965  -0.602  53.552  1.00  0.00     0.038 A 
ENDBRANCH   7  13
ENDBRANCH   3   4
ENDBRANCH   2   3
BRANCH   1  18
HETATM   18  C3  UNL     1      21.375   3.627  51.130  1.00  0.00    -0.019 C 
HETATM   19  C2  UNL     1      21.471   4.819  51.284  1.00  0.00     0.060 C 
BRANCH  19  20
HETATM   20  O1  UNL     1      21.599   6.168  51.452  1.00  0.00    -0.308 OA
HETATM   21  C1  UNL     1      22.237   6.890  50.422  1.00  0.00     0.223 C 
ENDBRANCH  19  20
ENDBRANCH   1  18
BRANCH   1  22
HETATM   22  N4  UNL     1      20.015   1.538  50.956  1.00  0.00    -0.371 N 
HETATM   23  C17 UNL     1      20.077   0.282  51.669  1.00  0.00     0.143 C 
HETATM   24  C18 UNL     1      18.746  -0.173  52.203  1.00  0.00     0.145 C 
HETATM   25  N5  UNL     1      17.750  -0.061  51.186  1.00  0.00    -0.349 N 
HETATM   26  C19 UNL     1      16.631  -0.859  51.474  1.00  0.00     0.215 C 
HETATM   27  C21 UNL     1      17.922   0.786  50.022  1.00  0.00     0.145 C 
HETATM   28  C20 UNL     1      15.475  -0.881  50.527  1.00  0.00     0.117 C 
HETATM   29  O2  UNL     1      16.829  -1.457  52.566  1.00  0.00    -0.274 OA
HETATM   30  C22 UNL     1      18.776   1.989  50.344  1.00  0.00     0.143 C 
ENDBRANCH   1  22
TORSDOF 8
ENDMDL
MODEL 5
REMARK VINA RESULT:      -7.5      1.590      1.827
REMARK  8 active torsions:
REMARK  status: ('A' for Active; 'I' for Inactive)
REMARK    1  A    between atoms: O1_2  and  C2_3 
REMARK    2  A    between atoms: C3_4  and  C4_5 
REMARK    3  A    between atoms: C4_5  and  N4_22 
REMARK    4  A    between atoms: C5_6  and  C6_7 
REMARK    5  A    between atoms: C6_7  and  C7_8 
REMARK    6  A    between atoms: C8_10  and  C9_11 
REMARK    7  A    between atoms: C9_11  and  C10_12 
REMARK    8  A    between atoms: N2_14  and  C11_15 
REMARK       I    between atoms: N5_25  and  C19_26 
ROOT
HETATM    1  C4  UNL     1      25.462   5.484  49.028  1.00  0.00     0.083 C 
HETATM    2  C5  UNL     1      26.055   4.480  49.655  1.00  0.00     0.020 C 
ENDROOT
BRANCH   2   3
HETATM    3  C6  UNL     1      25.254   3.237  49.894  1.00  0.00     0.110 C 
BRANCH   3   4
HETATM    4  C7  UNL     1      25.831   2.459  51.015  1.00  0.00     0.128 A 
HETATM    5  N1  UNL     1      25.171   1.544  51.572  1.00  0.00    -0.249 NA
HETATM    6  C8  UNL     1      25.561   0.691  52.658  1.00  0.00     0.213 A 
HETATM    7  N2  UNL     1      26.860   1.064  53.150  1.00  0.00    -0.343 N 
HETATM    8  C16 UNL     1      27.579   2.112  52.471  1.00  0.00     0.209 A 
HETATM    9  N3  UNL     1      27.127   2.782  51.475  1.00  0.00    -0.229 NA
BRANCH   6  10
HETATM   10  C9  UNL     1      24.465   0.737  53.685  1.00  0.00     0.080 C 
BRANCH  10  11
HETATM   11  C10 UNL     1      23.722  -0.594  53.596  1.00  0.00     0.226 C 
HETATM   12  F1  UNL     1      22.671  -0.503  54.484  1.00  0.00    -0.255 F 
ENDBRANCH  10  11
ENDBRANCH   6  10
BRANCH   7  13
HETATM   13  C11 UNL     1      27.448   0.348  54.416  1.00  0.00     0.129 A 
HETATM   14  C12 UNL     1      28.376  -0.178  54.194  1.00  0.00    -0.042 A 
HETATM   15  C13 UNL     1      29.060  -0.582  54.011  1.00  0.00    -0.059 A 
HETATM   16  C15 UNL     1      28.192  -1.094  53.053  1.00  0.00     0.069 A 
HETATM   17  C14 UNL     1      29.918  -1.108  53.759  1.00  0.00     0.038 A 
ENDBRANCH   7  13
ENDBRANCH   3   4
ENDBRANCH   2   3
BRANCH   1  18
HETATM   18  C3  UNL     1      24.097   5.282  48.634  1.00  0.00    -0.019 C 
HETATM   19  C2  UNL     1      22.951   5.103  48.303  1.00  0.00     0.060 C 
BRANCH  19  20
HETATM   20  O1  UNL     1      21.652   4.885  47.942  1.00  0.00    -0.308 OA
HETATM   21  C1  UNL     1      21.419   4.363  46.653  1.00  0.00     0.223 C 
ENDBRANCH  19  20
ENDBRANCH   1  18
BRANCH   1  22
HETATM   22  N4  UNL     1      26.150   6.700  48.760  1.00  0.00    -0.371 N 
HETATM   23  C17 UNL     1      25.303   7.853  48.972  1.00  0.00     0.143 C 
HETATM   24  C18 UNL     1      26.068   9.114  49.274  1.00  0.00     0.145 C 
HETATM   25  N5  UNL     1      27.140   9.266  48.342  1.00  0.00    -0.349 N 
HETATM   26  C19 UNL     1      27.593  10.595  48.295  1.00  0.00     0.215 C 
HETATM   27  C21 UNL     1      27.658   8.156  47.568  1.00  0.00     0.145 C 
HETATM   28  C20 UNL     1      28.713  10.962  47.377  1.00  0.00     0.117 C 
HETATM   29  O2  UNL     1      26.912  11.284  49.101  1.00  0.00    -0.274 OA
HETATM   30  C22 UNL     1      27.527   6.856  48.324  1.00  0.00     0.143 C 
ENDBRANCH   1  22
TORSDOF 8
ENDMDL
MODEL 6
REMARK VINA RESULT:      -7.5      3.577      5.474
REMARK  8 active torsions:
REMARK  status: ('A' for Active; 'I' for Inactive)
REMARK    1  A    between atoms: O1_2  and  C2_3 
REMARK    2  A    between atoms: C3_4  and  C4_5 
REMARK    3  A    between atoms: C4_5  and  N4_22 
REMARK    4  A    between atoms: C5_6  and  C6_7 
REMARK    5  A    between atoms: C6_7  and  C7_8 
REMARK    6  A    between atoms: C8_10  and  C9_11 
REMARK    7  A    between atoms: C9_11  and  C10_12 
REMARK    8  A    between atoms: N2_14  and  C11_15 
REMARK       I    between atoms: N5_25  and  C19_26 
ROOT
HETATM    1  C4  UNL     1      28.500   6.748  48.235  1.00  0.00     0.083 C 
HETATM    2  C5  UNL     1      27.376   6.102  48.503  1.00  0.00     0.020 C 
ENDROOT
BRANCH   2   3
HETATM    3  C6  UNL     1      27.454   4.619  48.695  1.00  0.00     0.110 C 
BRANCH   3   4
HETATM    4  C7  UNL     1      26.477   4.179  49.719  1.00  0.00     0.128 A 
HETATM    5  N1  UNL     1      25.392   4.795  49.883  1.00  0.00    -0.249 NA
HETATM    6  C8  UNL     1      24.334   4.517  50.812  1.00  0.00     0.213 A 
HETATM    7  N2  UNL     1      24.695   3.422  51.673  1.00  0.00    -0.343 N 
HETATM    8  C16 UNL     1      25.945   2.744  51.438  1.00  0.00     0.209 A 
HETATM    9  N3  UNL     1      26.798   3.074  50.539  1.00  0.00    -0.229 NA
BRANCH   6  10
HETATM   10  C9  UNL     1      24.014   5.798  51.528  1.00  0.00     0.080 C 
BRANCH  10  11
HETATM   11  C10 UNL     1      24.376   6.937  50.578  1.00  0.00     0.226 C 
HETATM   12  F1  UNL     1      23.739   8.058  51.065  1.00  0.00    -0.255 F 
ENDBRANCH  10  11
ENDBRANCH   6  10
BRANCH   7  13
HETATM   13  C11 UNL     1      23.743   3.012  52.851  1.00  0.00     0.129 A 
HETATM   14  C12 UNL     1      23.479   1.956  52.813  1.00  0.00    -0.042 A 
HETATM   15  C13 UNL     1      23.274   1.169  52.764  1.00  0.00    -0.059 A 
HETATM   16  C15 UNL     1      22.933   1.605  51.488  1.00  0.00     0.069 A 
HETATM   17  C14 UNL     1      23.006   0.170  52.676  1.00  0.00     0.038 A 
ENDBRANCH   7  13
ENDBRANCH   3   4
ENDBRANCH   2   3
BRANCH   1  18
HETATM   18  C3  UNL     1      29.696   5.957  48.155  1.00  0.00    -0.019 C 
HETATM   19  C2  UNL     1      30.704   5.300  48.084  1.00  0.00     0.060 C 
BRANCH  19  20
HETATM   20  O1  UNL     1      31.858   4.573  48.007  1.00  0.00    -0.308 OA
HETATM   21  C1  UNL     1      33.070   5.260  48.223  1.00  0.00     0.223 C 
ENDBRANCH  19  20
ENDBRANCH   1  18
BRANCH   1  22
HETATM   22  N4  UNL     1      28.517   8.157  48.038  1.00  0.00    -0.371 N 
HETATM   23  C17 UNL     1      27.727   8.847  49.033  1.00  0.00     0.143 C 
HETATM   24  C18 UNL     1      28.147  10.277  49.249  1.00  0.00     0.145 C 
HETATM   25  N5  UNL     1      28.307  10.931  47.989  1.00  0.00    -0.349 N 
HETATM   26  C19 UNL     1      28.261  12.328  48.128  1.00  0.00     0.215 C 
HETATM   27  C21 UNL     1      28.492  10.198  46.753  1.00  0.00     0.145 C 
HETATM   28  C20 UNL     1      28.410  13.195  46.921  1.00  0.00     0.117 C 
HETATM   29  O2  UNL     1      28.088  12.609  49.345  1.00  0.00    -0.274 OA
HETATM   30  C22 UNL     1      29.211   8.893  46.995  1.00  0.00     0.143 C 
ENDBRANCH   1  22
TORSDOF 8
ENDMDL
MODEL 7
REMARK VINA RESULT:      -7.4      3.282      4.870
REMARK  8 active torsions:
REMARK  status: ('A' for Active; 'I' for Inactive)
REMARK    1  A    between atoms: O1_2  and  C2_3 
REMARK    2  A    between atoms: C3_4  and  C4_5 
REMARK    3  A    between atoms: C4_5  and  N4_22 
REMARK    4  A    between atoms: C5_6  and  C6_7 
REMARK    5  A    between atoms: C6_7  and  C7_8 
REMARK    6  A    between atoms: C8_10  and  C9_11 
REMARK    7  A    between atoms: C9_11  and  C10_12 
REMARK    8  A    between atoms: N2_14  and  C11_15 
REMARK       I    between atoms: N5_25  and  C19_26 
ROOT
HETATM    1  C4  UNL     1      28.773   6.138  48.288  1.00  0.00     0.083 C 
HETATM    2  C5  UNL     1      28.113   5.028  48.580  1.00  0.00     0.020 C 
ENDROOT
BRANCH   2   3
HETATM    3  C6  UNL     1      26.616   5.079  48.558  1.00  0.00     0.110 C 
BRANCH   3   4
HETATM    4  C7  UNL     1      26.058   4.365  49.729  1.00  0.00     0.128 A 
HETATM    5  N1  UNL     1      24.900   4.619  50.149  1.00  0.00    -0.249 NA
HETATM    6  C8  UNL     1      24.197   4.033  51.254  1.00  0.00     0.213 A 
HETATM    7  N2  UNL     1      25.044   3.102  51.953  1.00  0.00    -0.343 N 
HETATM    8  C16 UNL     1      26.359   2.839  51.426  1.00  0.00     0.209 A 
HETATM    9  N3  UNL     1      26.862   3.411  50.394  1.00  0.00    -0.229 NA
BRANCH   6  10
HETATM   10  C9  UNL     1      23.669   5.155  52.101  1.00  0.00     0.080 C 
BRANCH  10  11
HETATM   11  C10 UNL     1      22.154   5.175  51.910  1.00  0.00     0.226 C 
HETATM   12  F1  UNL     1      21.669   4.083  52.596  1.00  0.00    -0.255 F 
ENDBRANCH  10  11
ENDBRANCH   6  10
BRANCH   7  13
HETATM   13  C11 UNL     1      24.533   2.423  53.271  1.00  0.00     0.129 A 
HETATM   14  C12 UNL     1      24.301   1.368  53.124  1.00  0.00    -0.042 A 
HETATM   15  C13 UNL     1      24.114   0.586  52.997  1.00  0.00    -0.059 A 
HETATM   16  C15 UNL     1      23.370   1.195  51.993  1.00  0.00     0.069 A 
HETATM   17  C14 UNL     1      23.862  -0.404  52.815  1.00  0.00     0.038 A 
ENDBRANCH   7  13
ENDBRANCH   3   4
ENDBRANCH   2   3
BRANCH   1  18
HETATM   18  C3  UNL     1      27.981   7.295  47.974  1.00  0.00    -0.019 C 
HETATM   19  C2  UNL     1      27.309   8.262  47.716  1.00  0.00     0.060 C 
BRANCH  19  20
HETATM   20  O1  UNL     1      26.540   9.357  47.442  1.00  0.00    -0.308 OA
HETATM   21  C1  UNL     1      25.871   9.964  48.525  1.00  0.00     0.223 C 
ENDBRANCH  19  20
ENDBRANCH   1  18
BRANCH   1  22
HETATM   22  N4  UNL     1      30.195   6.178  48.284  1.00  0.00    -0.371 N 
HETATM   23  C17 UNL     1      30.763   4.990  47.687  1.00  0.00     0.143 C 
HETATM   24  C18 UNL     1      32.147   5.198  47.134  1.00  0.00     0.145 C 
HETATM   25  N5  UNL     1      32.954   5.885  48.091  1.00  0.00    -0.349 N 
HETATM   26  C19 UNL     1      34.323   5.716  47.822  1.00  0.00     0.215 C 
HETATM   27  C21 UNL     1      32.383   6.647  49.182  1.00  0.00     0.145 C 
HETATM   28  C20 UNL     1      35.335   6.359  48.713  1.00  0.00     0.117 C 
HETATM   29  O2  UNL     1      34.449   4.994  46.797  1.00  0.00    -0.274 OA
HETATM   30  C22 UNL     1      31.048   7.237  48.796  1.00  0.00     0.143 C 
ENDBRANCH   1  22
TORSDOF 8
ENDMDL
MODEL 8
REMARK VINA RESULT:      -7.4      4.185      8.902
REMARK  8 active torsions:
REMARK  status: ('A' for Active; 'I' for Inactive)
REMARK    1  A    between atoms: O1_2  and  C2_3 
REMARK    2  A    between atoms: C3_4  and  C4_5 
REMARK    3  A    between atoms: C4_5  and  N4_22 
REMARK    4  A    between atoms: C5_6  and  C6_7 
REMARK    5  A    between atoms: C6_7  and  C7_8 
REMARK    6  A    between atoms: C8_10  and  C9_11 
REMARK    7  A    between atoms: C9_11  and  C10_12 
REMARK    8  A    between atoms: N2_14  and  C11_15 
REMARK       I    between atoms: N5_25  and  C19_26 
ROOT
HETATM    1  C4  UNL     1      24.182   1.249  52.068  1.00  0.00     0.083 C 
HETATM    2  C5  UNL     1      23.996   2.188  51.153  1.00  0.00     0.020 C 
ENDROOT
BRANCH   2   3
HETATM    3  C6  UNL     1      22.596   2.667  50.921  1.00  0.00     0.110 C 
BRANCH   3   4
HETATM    4  C7  UNL     1      22.597   4.101  50.549  1.00  0.00     0.128 A 
HETATM    5  N1  UNL     1      23.140   4.491  49.483  1.00  0.00    -0.249 NA
HETATM    6  C8  UNL     1      23.235   5.825  48.961  1.00  0.00     0.213 A 
HETATM    7  N2  UNL     1      22.675   6.771  49.889  1.00  0.00    -0.343 N 
HETATM    8  C16 UNL     1      22.056   6.272  51.091  1.00  0.00     0.209 A 
HETATM    9  N3  UNL     1      22.005   5.036  51.429  1.00  0.00    -0.229 NA
BRANCH   6  10
HETATM   10  C9  UNL     1      24.675   6.070  48.608  1.00  0.00     0.080 C 
BRANCH  10  11
HETATM   11  C10 UNL     1      25.507   5.599  49.799  1.00  0.00     0.226 C 
HETATM   12  F1  UNL     1      25.712   6.712  50.585  1.00  0.00    -0.255 F 
ENDBRANCH  10  11
ENDBRANCH   6  10
BRANCH   7  13
HETATM   13  C11 UNL     1      22.773   8.307  49.589  1.00  0.00     0.129 A 
HETATM   14  C12 UNL     1      21.794   8.752  49.414  1.00  0.00    -0.042 A 
HETATM   15  C13 UNL     1      21.058   9.069  49.267  1.00  0.00    -0.059 A 
HETATM   16  C15 UNL     1      21.067   8.010  48.367  1.00  0.00     0.069 A 
HETATM   17  C14 UNL     1      20.116   9.455  49.063  1.00  0.00     0.038 A 
ENDBRANCH   7  13
ENDBRANCH   3   4
ENDBRANCH   2   3
BRANCH   1  18
HETATM   18  C3  UNL     1      23.013   0.778  52.756  1.00  0.00    -0.019 C 
HETATM   19  C2  UNL     1      22.036   0.382  53.341  1.00  0.00     0.060 C 
BRANCH  19  20
HETATM   20  O1  UNL     1      20.933  -0.052  54.020  1.00  0.00    -0.308 OA
HETATM   21  C1  UNL     1      20.819  -1.440  54.245  1.00  0.00     0.223 C 
ENDBRANCH  19  20
ENDBRANCH   1  18
BRANCH   1  22
HETATM   22  N4  UNL     1      25.478   0.738  52.353  1.00  0.00    -0.371 N 
HETATM   23  C17 UNL     1      25.416  -0.562  52.982  1.00  0.00     0.143 C 
HETATM   24  C18 UNL     1      26.660  -1.386  52.785  1.00  0.00     0.145 C 
HETATM   25  N5  UNL     1      27.816  -0.594  53.060  1.00  0.00    -0.349 N 
HETATM   26  C19 UNL     1      28.939  -1.398  53.320  1.00  0.00     0.215 C 
HETATM   27  C21 UNL     1      27.781   0.855  53.059  1.00  0.00     0.145 C 
HETATM   28  C20 UNL     1      30.251  -0.756  53.632  1.00  0.00     0.117 C 
HETATM   29  O2  UNL     1      28.598  -2.609  53.234  1.00  0.00    -0.274 OA
HETATM   30  C22 UNL     1      26.756   1.375  52.081  1.00  0.00     0.143 C 
ENDBRANCH   1  22
TORSDOF 8
ENDMDL
MODEL 9
REMARK VINA RESULT:      -7.4      2.855      3.465
REMARK  8 active torsions:
REMARK  status: ('A' for Active; 'I' for Inactive)
REMARK    1  A    between atoms: O1_2  and  C2_3 
REMARK    2  A    between atoms: C3_4  and  C4_5 
REMARK    3  A    between atoms: C4_5  and  N4_22 
REMARK    4  A    between atoms: C5_6  and  C6_7 
REMARK    5  A    between atoms: C6_7  and  C7_8 
REMARK    6  A    between atoms: C8_10  and  C9_11 
REMARK    7  A    between atoms: C9_11  and  C10_12 
REMARK    8  A    between atoms: N2_14  and  C11_15 
REMARK       I    between atoms: N5_25  and  C19_26 
ROOT
HETATM    1  C4  UNL     1      22.878   3.839  50.297  1.00  0.00     0.083 C 
HETATM    2  C5  UNL     1      23.745   2.875  50.569  1.00  0.00     0.020 C 
ENDROOT
BRANCH   2   3
HETATM    3  C6  UNL     1      23.319   1.804  51.526  1.00  0.00     0.110 C 
BRANCH   3   4
HETATM    4  C7  UNL     1      24.470   1.354  52.343  1.00  0.00     0.128 A 
HETATM    5  N1  UNL     1      24.470   0.221  52.889  1.00  0.00    -0.249 NA
HETATM    6  C8  UNL     1      25.486  -0.382  53.704  1.00  0.00     0.213 A 
HETATM    7  N2  UNL     1      26.566   0.541  53.928  1.00  0.00    -0.343 N 
HETATM    8  C16 UNL     1      26.523   1.824  53.272  1.00  0.00     0.209 A 
HETATM    9  N3  UNL     1      25.560   2.234  52.529  1.00  0.00    -0.229 NA
BRANCH   6  10
HETATM   10  C9  UNL     1      24.823  -0.885  54.954  1.00  0.00     0.080 C 
BRANCH  10  11
HETATM   11  C10 UNL     1      23.334  -1.017  54.641  1.00  0.00     0.226 C 
HETATM   12  F1  UNL     1      22.731  -1.411  55.816  1.00  0.00    -0.255 F 
ENDBRANCH  10  11
ENDBRANCH   6  10
BRANCH   7  13
HETATM   13  C11 UNL     1      27.740   0.148  54.891  1.00  0.00     0.129 A 
HETATM   14  C12 UNL     1      28.661  -0.064  54.347  1.00  0.00    -0.042 A 
HETATM   15  C13 UNL     1      29.337  -0.237  53.928  1.00  0.00    -0.059 A 
HETATM   16  C15 UNL     1      28.421  -1.070  53.295  1.00  0.00     0.069 A 
HETATM   17  C14 UNL     1      30.186  -0.474  53.380  1.00  0.00     0.038 A 
ENDBRANCH   7  13
ENDBRANCH   3   4
ENDBRANCH   2   3
BRANCH   1  18
HETATM   18  C3  UNL     1      21.603   3.763  50.951  1.00  0.00    -0.019 C 
HETATM   19  C2  UNL     1      20.535   3.697  51.509  1.00  0.00     0.060 C 
BRANCH  19  20
HETATM   20  O1  UNL     1      19.335   3.632  52.156  1.00  0.00    -0.308 OA
HETATM   21  C1  UNL     1      18.231   3.147  51.425  1.00  0.00     0.223 C 
ENDBRANCH  19  20
ENDBRANCH   1  18
BRANCH   1  22
HETATM   22  N4  UNL     1      23.200   4.894  49.399  1.00  0.00    -0.371 N 
HETATM   23  C17 UNL     1      22.533   4.739  48.127  1.00  0.00     0.143 C 
HETATM   24  C18 UNL     1      22.353   6.033  47.380  1.00  0.00     0.145 C 
HETATM   25  N5  UNL     1      23.578   6.767  47.377  1.00  0.00    -0.349 N 
HETATM   26  C19 UNL     1      23.595   7.731  46.355  1.00  0.00     0.215 C 
HETATM   27  C21 UNL     1      24.637   6.510  48.331  1.00  0.00     0.145 C 
HETATM   28  C20 UNL     1      24.795   8.605  46.185  1.00  0.00     0.117 C 
HETATM   29  O2  UNL     1      22.507   7.671  45.723  1.00  0.00    -0.274 OA
HETATM   30  C22 UNL     1      24.080   6.024  49.647  1.00  0.00     0.143 C 
ENDBRANCH   1  22
TORSDOF 8
ENDMDL
