MODEL 1
REMARK VINA RESULT:      -8.7      0.000      0.000
REMARK  2 active torsions:
REMARK  status: ('A' for Active; 'I' for Inactive)
REMARK    1  A    between atoms: C2_2  and  C3_3 
REMARK    2  A    between atoms: C13_14  and  O1_15 
ROOT
HETATM    1  C3  UNL     1      25.822   3.673  49.947  1.00  0.00    -0.002 A 
HETATM    2  C4  UNL     1      26.693   3.020  50.763  1.00  0.00     0.026 A 
HETATM    3  C5  UNL     1      26.199   2.139  51.707  1.00  0.00    -0.022 A 
HETATM    4  C6  UNL     1      27.199   1.542  52.473  1.00  0.00     0.014 A 
HETATM    5  C7  UNL     1      26.841   0.641  53.452  1.00  0.00     0.026 A 
HETATM    6  C8  UNL     1      25.513   0.344  53.661  1.00  0.00     0.071 A 
HETATM    7  C9  UNL     1      25.246  -0.608  54.702  1.00  0.00     0.102 C 
HETATM    8  N1  UNL     1      25.040  -1.371  55.563  1.00  0.00    -0.191 NA
HETATM    9  C10 UNL     1      24.535   0.941  52.898  1.00  0.00     0.061 A 
HETATM   10  C11 UNL     1      24.840   1.865  51.888  1.00  0.00     0.013 A 
HETATM   11  C12 UNL     1      23.974   2.557  51.028  1.00  0.00     0.007 A 
HETATM   12  C13 UNL     1      24.475   3.434  50.089  1.00  0.00     0.087 A 
HETATM   13  C15 UNL     1      22.490   2.622  50.811  1.00  0.00     0.117 C 
HETATM   14 BR1  UNL     1      21.670   3.703  52.184  1.00  0.00    -0.082 Br
HETATM   15  C16 UNL     1      21.914   1.258  50.724  1.00  0.00    -0.008 C 
HETATM   16  C17 UNL     1      21.691   0.279  51.596  1.00  0.00    -0.005 C 
HETATM   17  C18 UNL     1      21.971   0.252  53.028  1.00  0.00     0.100 C 
HETATM   18  C19 UNL     1      21.429  -1.077  53.566  1.00  0.00     0.036 C 
HETATM   19  N2  UNL     1      23.325   0.364  53.439  1.00  0.00    -0.381 N 
HETATM   20  H17 UNL     1      23.457  -0.091  54.367  1.00  0.00     0.160 HD
ENDROOT
BRANCH  12  21
HETATM   21  O1  UNL     1      23.647   4.150  49.208  1.00  0.00    -0.354 OA
HETATM   22  C14 UNL     1      23.435   5.525  49.502  1.00  0.00     0.210 C 
ENDBRANCH  12  21
BRANCH   1  23
HETATM   23  C2  UNL     1      26.260   4.605  48.940  1.00  0.00     0.004 C 
HETATM   24  C1  UNL     1      27.558   4.700  48.764  1.00  0.00     0.012 C 
ENDBRANCH   1  23
TORSDOF 2
ENDMDL
MODEL 2
REMARK VINA RESULT:      -8.5      2.389      4.607
REMARK  2 active torsions:
REMARK  status: ('A' for Active; 'I' for Inactive)
REMARK    1  A    between atoms: C2_2  and  C3_3 
REMARK    2  A    between atoms: C13_14  and  O1_15 
ROOT
HETATM    1  C3  UNL     1      25.613   0.459  53.865  1.00  0.00    -0.002 A 
HETATM    2  C4  UNL     1      24.770  -0.444  54.436  1.00  0.00     0.026 A 
HETATM    3  C5  UNL     1      23.436  -0.438  54.078  1.00  0.00    -0.022 A 
HETATM    4  C6  UNL     1      22.688  -1.413  54.738  1.00  0.00     0.014 A 
HETATM    5  C7  UNL     1      21.340  -1.514  54.471  1.00  0.00     0.026 A 
HETATM    6  C8  UNL     1      20.752  -0.660  53.566  1.00  0.00     0.071 A 
HETATM    7  C9  UNL     1      19.344  -0.849  53.358  1.00  0.00     0.102 C 
HETATM    8  N1  UNL     1      18.195  -1.002  53.209  1.00  0.00    -0.191 NA
HETATM    9  C10 UNL     1      21.500   0.299  52.922  1.00  0.00     0.061 A 
HETATM   10  C11 UNL     1      22.875   0.448  53.154  1.00  0.00     0.013 A 
HETATM   11  C12 UNL     1      23.777   1.364  52.588  1.00  0.00     0.007 A 
HETATM   12  C13 UNL     1      25.107   1.351  52.950  1.00  0.00     0.087 A 
HETATM   13  C15 UNL     1      23.697   2.478  51.586  1.00  0.00     0.117 C 
HETATM   14 BR1  UNL     1      22.925   4.047  52.404  1.00  0.00    -0.082 Br
HETATM   15  C16 UNL     1      22.969   2.039  50.370  1.00  0.00    -0.008 C 
HETATM   16  C17 UNL     1      21.698   1.766  50.088  1.00  0.00    -0.005 C 
HETATM   17  C18 UNL     1      20.537   1.822  50.969  1.00  0.00     0.100 C 
HETATM   18  C19 UNL     1      19.307   1.503  50.111  1.00  0.00     0.036 C 
HETATM   19  N2  UNL     1      20.515   0.955  52.092  1.00  0.00    -0.381 N 
HETATM   20  H17 UNL     1      19.532   0.755  52.373  1.00  0.00     0.160 HD
ENDROOT
BRANCH  12  21
HETATM   21  O1  UNL     1      26.045   2.248  52.411  1.00  0.00    -0.354 OA
HETATM   22  C14 UNL     1      26.698   1.849  51.213  1.00  0.00     0.210 C 
ENDBRANCH  12  21
BRANCH   1  23
HETATM   23  C2  UNL     1      27.017   0.513  54.187  1.00  0.00     0.004 C 
HETATM   24  C1  UNL     1      27.738  -0.515  53.807  1.00  0.00     0.012 C 
ENDBRANCH   1  23
TORSDOF 2
ENDMDL
MODEL 3
REMARK VINA RESULT:      -8.3      1.617      2.068
REMARK  2 active torsions:
REMARK  status: ('A' for Active; 'I' for Inactive)
REMARK    1  A    between atoms: C2_2  and  C3_3 
REMARK    2  A    between atoms: C13_14  and  O1_15 
ROOT
HETATM    1  C3  UNL     1      24.680   3.143  50.268  1.00  0.00    -0.002 A 
HETATM    2  C4  UNL     1      25.241   2.293  51.170  1.00  0.00     0.026 A 
HETATM    3  C5  UNL     1      24.420   1.484  51.932  1.00  0.00    -0.022 A 
HETATM    4  C6  UNL     1      25.124   0.665  52.814  1.00  0.00     0.014 A 
HETATM    5  C7  UNL     1      24.422  -0.191  53.634  1.00  0.00     0.026 A 
HETATM    6  C8  UNL     1      23.047  -0.229  53.574  1.00  0.00     0.071 A 
HETATM    7  C9  UNL     1      22.412  -1.157  54.467  1.00  0.00     0.102 C 
HETATM    8  N1  UNL     1      21.905  -1.904  55.209  1.00  0.00    -0.191 NA
HETATM    9  C10 UNL     1      22.363   0.584  52.699  1.00  0.00     0.061 A 
HETATM   10  C11 UNL     1      23.024   1.476  51.842  1.00  0.00     0.013 A 
HETATM   11  C12 UNL     1      22.485   2.366  50.899  1.00  0.00     0.007 A 
HETATM   12  C13 UNL     1      23.311   3.169  50.143  1.00  0.00     0.087 A 
HETATM   13  C15 UNL     1      21.109   2.733  50.425  1.00  0.00     0.117 C 
HETATM   14 BR1  UNL     1      20.254   3.889  51.712  1.00  0.00    -0.082 Br
HETATM   15  C16 UNL     1      20.317   1.515  50.121  1.00  0.00    -0.008 C 
HETATM   16  C17 UNL     1      19.752   0.560  50.854  1.00  0.00    -0.005 C 
HETATM   17  C18 UNL     1      19.741   0.411  52.305  1.00  0.00     0.100 C 
HETATM   18  C19 UNL     1      18.868  -0.808  52.624  1.00  0.00     0.036 C 
HETATM   19  N2  UNL     1      20.986   0.233  52.962  1.00  0.00    -0.381 N 
HETATM   20  H17 UNL     1      20.850  -0.282  53.858  1.00  0.00     0.160 HD
ENDROOT
BRANCH  12  21
HETATM   21  O1  UNL     1      22.817   4.075  49.190  1.00  0.00    -0.354 OA
HETATM   22  C14 UNL     1      22.600   3.569  47.878  1.00  0.00     0.210 C 
ENDBRANCH  12  21
BRANCH   1  23
HETATM   23  C2  UNL     1      25.471   4.016  49.437  1.00  0.00     0.004 C 
HETATM   24  C1  UNL     1      26.764   3.793  49.429  1.00  0.00     0.012 C 
ENDBRANCH   1  23
TORSDOF 2
ENDMDL
MODEL 4
REMARK VINA RESULT:      -8.2      2.637      5.927
REMARK  2 active torsions:
REMARK  status: ('A' for Active; 'I' for Inactive)
REMARK    1  A    between atoms: C2_2  and  C3_3 
REMARK    2  A    between atoms: C13_14  and  O1_15 
ROOT
HETATM    1  C3  UNL     1      18.542  -0.321  52.499  1.00  0.00    -0.002 A 
HETATM    2  C4  UNL     1      19.251  -1.024  53.423  1.00  0.00     0.026 A 
HETATM    3  C5  UNL     1      20.615  -0.826  53.517  1.00  0.00    -0.022 A 
HETATM    4  C6  UNL     1      21.215  -1.608  54.503  1.00  0.00     0.014 A 
HETATM    5  C7  UNL     1      22.575  -1.506  54.700  1.00  0.00     0.026 A 
HETATM    6  C8  UNL     1      23.319  -0.641  53.929  1.00  0.00     0.071 A 
HETATM    7  C9  UNL     1      24.726  -0.608  54.215  1.00  0.00     0.102 C 
HETATM    8  N1  UNL     1      25.871  -0.601  54.446  1.00  0.00    -0.191 NA
HETATM    9  C10 UNL     1      22.715   0.125  52.959  1.00  0.00     0.061 A 
HETATM   10  C11 UNL     1      21.336   0.063  52.714  1.00  0.00     0.013 A 
HETATM   11  C12 UNL     1      20.569   0.769  51.773  1.00  0.00     0.007 A 
HETATM   12  C13 UNL     1      19.208   0.565  51.686  1.00  0.00     0.087 A 
HETATM   13  C15 UNL     1      20.836   1.801  50.717  1.00  0.00     0.117 C 
HETATM   14 BR1  UNL     1      21.613   0.964  49.160  1.00  0.00    -0.082 Br
HETATM   15  C16 UNL     1      21.668   2.903  51.260  1.00  0.00    -0.008 C 
HETATM   16  C17 UNL     1      22.941   3.023  51.625  1.00  0.00    -0.005 C 
HETATM   17  C18 UNL     1      23.995   2.014  51.597  1.00  0.00     0.100 C 
HETATM   18  C19 UNL     1      25.291   2.708  52.034  1.00  0.00     0.036 C 
HETATM   19  N2  UNL     1      23.830   0.861  52.407  1.00  0.00    -0.381 N 
HETATM   20  H17 UNL     1      24.759   0.459  52.654  1.00  0.00     0.160 HD
ENDROOT
BRANCH  12  21
HETATM   21  O1  UNL     1      18.400   1.247  50.761  1.00  0.00    -0.354 OA
HETATM   22  C14 UNL     1      17.784   2.447  51.211  1.00  0.00     0.210 C 
ENDBRANCH  12  21
BRANCH   1  23
HETATM   23  C2  UNL     1      17.117  -0.473  52.342  1.00  0.00     0.004 C 
HETATM   24  C1  UNL     1      16.622  -1.648  52.656  1.00  0.00     0.012 C 
ENDBRANCH   1  23
TORSDOF 2
ENDMDL
MODEL 5
REMARK VINA RESULT:      -8.0      2.429      5.326
REMARK  2 active torsions:
REMARK  status: ('A' for Active; 'I' for Inactive)
REMARK    1  A    between atoms: C2_2  and  C3_3 
REMARK    2  A    between atoms: C13_14  and  O1_15 
ROOT
HETATM    1  C3  UNL     1      20.306   0.350  51.849  1.00  0.00    -0.002 A 
HETATM    2  C4  UNL     1      21.346  -0.034  52.639  1.00  0.00     0.026 A 
HETATM    3  C5  UNL     1      22.593   0.522  52.425  1.00  0.00    -0.022 A 
HETATM    4  C6  UNL     1      23.564   0.041  53.303  1.00  0.00     0.014 A 
HETATM    5  C7  UNL     1      24.853   0.515  53.196  1.00  0.00     0.026 A 
HETATM    6  C8  UNL     1      25.166   1.449  52.234  1.00  0.00     0.071 A 
HETATM    7  C9  UNL     1      26.535   1.879  52.208  1.00  0.00     0.102 C 
HETATM    8  N1  UNL     1      27.656   2.210  52.187  1.00  0.00    -0.191 NA
HETATM    9  C10 UNL     1      24.199   1.915  51.373  1.00  0.00     0.061 A 
HETATM   10  C11 UNL     1      22.871   1.469  51.435  1.00  0.00     0.013 A 
HETATM   11  C12 UNL     1      21.773   1.838  50.641  1.00  0.00     0.007 A 
HETATM   12  C13 UNL     1      20.532   1.279  50.861  1.00  0.00     0.087 A 
HETATM   13  C15 UNL     1      21.536   2.775  49.493  1.00  0.00     0.117 C 
HETATM   14 BR1  UNL     1      22.203   1.996  47.858  1.00  0.00    -0.082 Br
HETATM   15  C16 UNL     1      22.116   4.111  49.779  1.00  0.00    -0.008 C 
HETATM   16  C17 UNL     1      23.351   4.598  49.854  1.00  0.00    -0.005 C 
HETATM   17  C18 UNL     1      24.619   3.902  49.658  1.00  0.00     0.100 C 
HETATM   18  C19 UNL     1      25.729   4.954  49.765  1.00  0.00     0.036 C 
HETATM   19  N2  UNL     1      24.938   2.847  50.552  1.00  0.00    -0.381 N 
HETATM   20  H17 UNL     1      25.972   2.731  50.616  1.00  0.00     0.160 HD
ENDROOT
BRANCH  12  21
HETATM   21  O1  UNL     1      19.405   1.616  50.093  1.00  0.00    -0.354 OA
HETATM   22  C14 UNL     1      18.574   2.655  50.597  1.00  0.00     0.210 C 
ENDBRANCH  12  21
BRANCH   1  23
HETATM   23  C2  UNL     1      18.978  -0.185  52.012  1.00  0.00     0.004 C 
HETATM   24  C1  UNL     1      18.759  -0.870  53.109  1.00  0.00     0.012 C 
ENDBRANCH   1  23
TORSDOF 2
ENDMDL
MODEL 6
REMARK VINA RESULT:      -7.8      2.839      5.316
REMARK  2 active torsions:
REMARK  status: ('A' for Active; 'I' for Inactive)
REMARK    1  A    between atoms: C2_2  and  C3_3 
REMARK    2  A    between atoms: C13_14  and  O1_15 
ROOT
HETATM    1  C3  UNL     1      25.427   0.402  52.385  1.00  0.00    -0.002 A 
HETATM    2  C4  UNL     1      26.242   1.286  51.749  1.00  0.00     0.026 A 
HETATM    3  C5  UNL     1      25.678   2.338  51.052  1.00  0.00    -0.022 A 
HETATM    4  C6  UNL     1      26.625   3.165  50.449  1.00  0.00     0.014 A 
HETATM    5  C7  UNL     1      26.194   4.253  49.722  1.00  0.00     0.026 A 
HETATM    6  C8  UNL     1      24.847   4.510  49.600  1.00  0.00     0.071 A 
HETATM    7  C9  UNL     1      24.503   5.668  48.825  1.00  0.00     0.102 C 
HETATM    8  N1  UNL     1      24.235   6.604  48.178  1.00  0.00    -0.191 NA
HETATM    9  C10 UNL     1      23.922   3.686  50.200  1.00  0.00     0.061 A 
HETATM   10  C11 UNL     1      24.302   2.564  50.951  1.00  0.00     0.013 A 
HETATM   11  C12 UNL     1      23.496   1.631  51.621  1.00  0.00     0.007 A 
HETATM   12  C13 UNL     1      24.066   0.584  52.314  1.00  0.00     0.087 A 
HETATM   13  C15 UNL     1      22.023   1.423  51.824  1.00  0.00     0.117 C 
HETATM   14 BR1  UNL     1      21.240   0.661  50.233  1.00  0.00    -0.082 Br
HETATM   15  C16 UNL     1      21.369   2.687  52.246  1.00  0.00    -0.008 C 
HETATM   16  C17 UNL     1      21.071   3.834  51.641  1.00  0.00    -0.005 C 
HETATM   17  C18 UNL     1      21.320   4.225  50.258  1.00  0.00     0.100 C 
HETATM   18  C19 UNL     1      20.691   5.610  50.064  1.00  0.00     0.036 C 
HETATM   19  N2  UNL     1      22.669   4.301  49.824  1.00  0.00    -0.381 N 
HETATM   20  H17 UNL     1      22.756   4.976  49.034  1.00  0.00     0.160 HD
ENDROOT
BRANCH  12  21
HETATM   21  O1  UNL     1      23.301  -0.375  52.999  1.00  0.00    -0.354 OA
HETATM   22  C14 UNL     1      23.061  -0.136  54.380  1.00  0.00     0.210 C 
ENDBRANCH  12  21
BRANCH   1  23
HETATM   23  C2  UNL     1      25.941  -0.719  53.132  1.00  0.00     0.004 C 
HETATM   24  C1  UNL     1      26.697  -1.560  52.466  1.00  0.00     0.012 C 
ENDBRANCH   1  23
TORSDOF 2
ENDMDL
MODEL 7
REMARK VINA RESULT:      -7.3      5.839      9.381
REMARK  2 active torsions:
REMARK  status: ('A' for Active; 'I' for Inactive)
REMARK    1  A    between atoms: C2_2  and  C3_3 
REMARK    2  A    between atoms: C13_14  and  O1_15 
ROOT
HETATM    1  C3  UNL     1      26.797   5.295  48.897  1.00  0.00    -0.002 A 
HETATM    2  C4  UNL     1      28.054   4.911  48.549  1.00  0.00     0.026 A 
HETATM    3  C5  UNL     1      28.961   5.870  48.141  1.00  0.00    -0.022 A 
HETATM    4  C6  UNL     1      30.209   5.339  47.814  1.00  0.00     0.014 A 
HETATM    5  C7  UNL     1      31.206   6.190  47.392  1.00  0.00     0.026 A 
HETATM    6  C8  UNL     1      30.963   7.542  47.298  1.00  0.00     0.071 A 
HETATM    7  C9  UNL     1      32.068   8.342  46.850  1.00  0.00     0.102 C 
HETATM    8  N1  UNL     1      32.970   8.981  46.469  1.00  0.00    -0.191 NA
HETATM    9  C10 UNL     1      29.728   8.054  47.623  1.00  0.00     0.061 A 
HETATM   10  C11 UNL     1      28.675   7.236  48.058  1.00  0.00     0.013 A 
HETATM   11  C12 UNL     1      27.368   7.592  48.426  1.00  0.00     0.007 A 
HETATM   12  C13 UNL     1      26.469   6.629  48.832  1.00  0.00     0.087 A 
HETATM   13  C15 UNL     1      26.580   8.866  48.516  1.00  0.00     0.117 C 
HETATM   14 BR1  UNL     1      26.024   9.423  46.754  1.00  0.00    -0.082 Br
HETATM   15  C16 UNL     1      27.351   9.909  49.239  1.00  0.00    -0.008 C 
HETATM   16  C17 UNL     1      28.418  10.650  48.954  1.00  0.00    -0.005 C 
HETATM   17  C18 UNL     1      29.220  10.660  47.735  1.00  0.00     0.100 C 
HETATM   18  C19 UNL     1      30.268  11.768  47.899  1.00  0.00     0.036 C 
HETATM   19  N2  UNL     1      29.905   9.468  47.384  1.00  0.00    -0.381 N 
HETATM   20  H17 UNL     1      30.744   9.692  46.807  1.00  0.00     0.160 HD
ENDROOT
BRANCH  12  21
HETATM   21  O1  UNL     1      25.151   6.937  49.208  1.00  0.00    -0.354 OA
HETATM   22  C14 UNL     1      24.918   7.177  50.590  1.00  0.00     0.210 C 
ENDBRANCH  12  21
BRANCH   1  23
HETATM   23  C2  UNL     1      25.796   4.354  49.333  1.00  0.00     0.004 C 
HETATM   24  C1  UNL     1      26.235   3.176  49.711  1.00  0.00     0.012 C 
ENDBRANCH   1  23
TORSDOF 2
ENDMDL
MODEL 8
REMARK VINA RESULT:      -7.2      4.495      6.751
REMARK  2 active torsions:
REMARK  status: ('A' for Active; 'I' for Inactive)
REMARK    1  A    between atoms: C2_2  and  C3_3 
REMARK    2  A    between atoms: C13_14  and  O1_15 
ROOT
HETATM    1  C3  UNL     1      28.926   6.224  48.007  1.00  0.00    -0.002 A 
HETATM    2  C4  UNL     1      28.435   5.095  48.584  1.00  0.00     0.026 A 
HETATM    3  C5  UNL     1      27.076   4.993  48.813  1.00  0.00    -0.022 A 
HETATM    4  C6  UNL     1      26.711   3.786  49.408  1.00  0.00     0.014 A 
HETATM    5  C7  UNL     1      25.382   3.557  49.691  1.00  0.00     0.026 A 
HETATM    6  C8  UNL     1      24.439   4.513  49.386  1.00  0.00     0.071 A 
HETATM    7  C9  UNL     1      23.083   4.176  49.719  1.00  0.00     0.102 C 
HETATM    8  N1  UNL     1      21.986   3.897  50.009  1.00  0.00    -0.191 NA
HETATM    9  C10 UNL     1      24.812   5.700  48.800  1.00  0.00     0.061 A 
HETATM   10  C11 UNL     1      26.149   5.988  48.489  1.00  0.00     0.013 A 
HETATM   11  C12 UNL     1      26.695   7.137  47.896  1.00  0.00     0.007 A 
HETATM   12  C13 UNL     1      28.052   7.231  47.671  1.00  0.00     0.087 A 
HETATM   13  C15 UNL     1      26.163   8.441  47.376  1.00  0.00     0.117 C 
HETATM   14 BR1  UNL     1      25.772   9.628  48.848  1.00  0.00    -0.082 Br
HETATM   15  C16 UNL     1      24.997   8.214  46.487  1.00  0.00    -0.008 C 
HETATM   16  C17 UNL     1      23.736   7.835  46.676  1.00  0.00    -0.005 C 
HETATM   17  C18 UNL     1      23.063   7.501  47.927  1.00  0.00     0.100 C 
HETATM   18  C19 UNL     1      21.594   7.226  47.585  1.00  0.00     0.036 C 
HETATM   19  N2  UNL     1      23.549   6.389  48.663  1.00  0.00    -0.381 N 
HETATM   20  H17 UNL     1      22.787   5.983  49.246  1.00  0.00     0.160 HD
ENDROOT
BRANCH  12  21
HETATM   21  O1  UNL     1      28.644   8.361  47.082  1.00  0.00    -0.354 OA
HETATM   22  C14 UNL     1      28.859   8.312  45.677  1.00  0.00     0.210 C 
ENDBRANCH  12  21
BRANCH   1  23
HETATM   23  C2  UNL     1      30.331   6.403  47.736  1.00  0.00     0.004 C 
HETATM   24  C1  UNL     1      31.038   5.307  47.598  1.00  0.00     0.012 C 
ENDBRANCH   1  23
TORSDOF 2
ENDMDL
MODEL 9
REMARK VINA RESULT:      -7.1      4.157      7.260
REMARK  2 active torsions:
REMARK  status: ('A' for Active; 'I' for Inactive)
REMARK    1  A    between atoms: C2_2  and  C3_3 
REMARK    2  A    between atoms: C13_14  and  O1_15 
ROOT
HETATM    1  C3  UNL     1      25.567   3.402  50.369  1.00  0.00    -0.002 A 
HETATM    2  C4  UNL     1      26.754   3.763  49.811  1.00  0.00     0.026 A 
HETATM    3  C5  UNL     1      26.830   4.945  49.099  1.00  0.00    -0.022 A 
HETATM    4  C6  UNL     1      28.101   5.192  48.582  1.00  0.00     0.014 A 
HETATM    5  C7  UNL     1      28.312   6.340  47.850  1.00  0.00     0.026 A 
HETATM    6  C8  UNL     1      27.276   7.221  47.637  1.00  0.00     0.071 A 
HETATM    7  C9  UNL     1      27.600   8.386  46.864  1.00  0.00     0.102 C 
HETATM    8  N1  UNL     1      27.872   9.323  46.219  1.00  0.00    -0.191 NA
HETATM    9  C10 UNL     1      26.025   6.965  48.151  1.00  0.00     0.061 A 
HETATM   10  C11 UNL     1      25.752   5.814  48.904  1.00  0.00     0.013 A 
HETATM   11  C12 UNL     1      24.546   5.405  49.495  1.00  0.00     0.007 A 
HETATM   12  C13 UNL     1      24.479   4.225  50.205  1.00  0.00     0.087 A 
HETATM   13  C15 UNL     1      23.150   5.949  49.587  1.00  0.00     0.117 C 
HETATM   14 BR1  UNL     1      22.211   5.641  47.929  1.00  0.00    -0.082 Br
HETATM   15  C16 UNL     1      23.169   7.378  49.988  1.00  0.00    -0.008 C 
HETATM   16  C17 UNL     1      23.515   8.513  49.387  1.00  0.00    -0.005 C 
HETATM   17  C18 UNL     1      24.024   8.710  48.034  1.00  0.00     0.100 C 
HETATM   18  C19 UNL     1      24.168  10.222  47.825  1.00  0.00     0.036 C 
HETATM   19  N2  UNL     1      25.265   8.109  47.700  1.00  0.00    -0.381 N 
HETATM   20  H17 UNL     1      25.727   8.641  46.933  1.00  0.00     0.160 HD
ENDROOT
BRANCH  12  21
HETATM   21  O1  UNL     1      23.295   3.775  50.812  1.00  0.00    -0.354 OA
HETATM   22  C14 UNL     1      23.105   4.119  52.179  1.00  0.00     0.210 C 
ENDBRANCH  12  21
BRANCH   1  23
HETATM   23  C2  UNL     1      25.411   2.185  51.127  1.00  0.00     0.004 C 
HETATM   24  C1  UNL     1      26.515   1.638  51.577  1.00  0.00     0.012 C 
ENDBRANCH   1  23
TORSDOF 2
ENDMDL
