MODEL 1
REMARK VINA RESULT:      -7.9      0.000      0.000
REMARK  1 active torsions:
REMARK  status: ('A' for Active; 'I' for Inactive)
REMARK    1  A    between atoms: C19_22  and  N4_23 
ROOT
HETATM    1  C1  UNL     1      24.202   8.556  49.897  1.00  0.00     0.073 C 
HETATM    2  C2  UNL     1      23.853   7.119  50.019  1.00  0.00     0.061 C 
HETATM    3  N1  UNL     1      23.135   6.736  51.058  1.00  0.00    -0.155 NA
HETATM    4  N2  UNL     1      22.056   5.813  51.220  1.00  0.00    -0.159 NA
HETATM    5  C3  UNL     1      21.927   4.704  50.514  1.00  0.00     0.041 C 
HETATM    6  C4  UNL     1      21.250   4.640  49.160  1.00  0.00     0.096 C 
HETATM    7  C5  UNL     1      22.232   4.997  48.068  1.00  0.00    -0.042 C 
HETATM    8  C6  UNL     1      21.832   4.480  46.924  1.00  0.00    -0.029 A 
HETATM    9  C7  UNL     1      20.862   3.699  46.166  1.00  0.00     0.013 A 
HETATM   10  C8  UNL     1      22.002   4.250  45.502  1.00  0.00     0.013 A 
HETATM   11  C9  UNL     1      23.505   5.763  47.950  1.00  0.00     0.019 C 
HETATM   12  C10 UNL     1      24.300   6.130  48.990  1.00  0.00    -0.004 C 
HETATM   13  C11 UNL     1      25.690   5.647  49.330  1.00  0.00     0.311 C 
HETATM   14  N3  UNL     1      25.653   4.955  50.609  1.00  0.00     0.098 N 
HETATM   15  C12 UNL     1      24.915   3.713  50.523  1.00  0.00     0.271 C 
HETATM   16  C13 UNL     1      25.900   2.625  50.407  1.00  0.00     0.011 C 
HETATM   17  C14 UNL     1      26.745   1.834  51.099  1.00  0.00    -0.002 C 
HETATM   18  C15 UNL     1      27.004   1.812  52.556  1.00  0.00    -0.004 C 
HETATM   19  C16 UNL     1      26.224   2.098  53.613  1.00  0.00    -0.027 C 
HETATM   20  C17 UNL     1      24.797   2.546  53.750  1.00  0.00     0.029 C 
HETATM   21  C18 UNL     1      24.059   2.286  52.433  1.00  0.00     0.037 C 
HETATM   22  C19 UNL     1      23.888   3.551  51.614  1.00  0.00     0.063 C 
HETATM   23  C20 UNL     1      22.474   3.481  51.074  1.00  0.00     0.089 C 
HETATM   24  H11 UNL     1      26.656   4.799  50.886  1.00  0.00     0.317 HD
ENDROOT
BRANCH  22  25
HETATM   25  N4  UNL     1      24.080   4.631  52.530  1.00  0.00    -0.419 N 
HETATM   26  H21 UNL     1      24.989   4.759  52.948  1.00  0.00     0.150 HD
HETATM   27  H22 UNL     1      23.294   5.219  52.762  1.00  0.00     0.150 HD
ENDBRANCH  22  25
TORSDOF 1
ENDMDL
MODEL 2
REMARK VINA RESULT:      -7.6      2.475      4.911
REMARK  1 active torsions:
REMARK  status: ('A' for Active; 'I' for Inactive)
REMARK    1  A    between atoms: C19_22  and  N4_23 
ROOT
HETATM    1  C1  UNL     1      19.415   2.872  47.701  1.00  0.00     0.073 C 
HETATM    2  C2  UNL     1      20.375   3.178  48.791  1.00  0.00     0.061 C 
HETATM    3  N1  UNL     1      20.390   4.400  49.287  1.00  0.00    -0.155 NA
HETATM    4  N2  UNL     1      20.515   4.922  50.612  1.00  0.00    -0.159 NA
HETATM    5  C3  UNL     1      21.238   4.351  51.559  1.00  0.00     0.041 C 
HETATM    6  C4  UNL     1      20.723   3.255  52.469  1.00  0.00     0.096 C 
HETATM    7  C5  UNL     1      20.877   1.907  51.803  1.00  0.00    -0.042 C 
HETATM    8  C6  UNL     1      20.913   0.960  52.719  1.00  0.00    -0.029 A 
HETATM    9  C7  UNL     1      20.874   0.561  54.120  1.00  0.00     0.013 A 
HETATM   10  C8  UNL     1      21.019  -0.434  53.105  1.00  0.00     0.013 A 
HETATM   11  C9  UNL     1      20.996   1.382  50.413  1.00  0.00     0.019 C 
HETATM   12  C10 UNL     1      21.300   2.126  49.317  1.00  0.00    -0.004 C 
HETATM   13  C11 UNL     1      22.544   2.081  48.462  1.00  0.00     0.311 C 
HETATM   14  N3  UNL     1      23.236   3.357  48.563  1.00  0.00     0.098 N 
HETATM   15  C12 UNL     1      23.786   3.563  49.886  1.00  0.00     0.271 C 
HETATM   16  C13 UNL     1      25.219   3.235  49.821  1.00  0.00     0.011 C 
HETATM   17  C14 UNL     1      26.435   3.703  49.469  1.00  0.00    -0.002 C 
HETATM   18  C15 UNL     1      26.787   5.023  48.899  1.00  0.00    -0.004 C 
HETATM   19  C16 UNL     1      26.233   6.240  49.039  1.00  0.00    -0.027 C 
HETATM   20  C17 UNL     1      25.053   6.753  49.816  1.00  0.00     0.029 C 
HETATM   21  C18 UNL     1      24.664   5.722  50.878  1.00  0.00     0.037 C 
HETATM   22  C19 UNL     1      23.449   4.910  50.471  1.00  0.00     0.063 C 
HETATM   23  C20 UNL     1      22.608   4.804  51.727  1.00  0.00     0.089 C 
HETATM   24  H11 UNL     1      23.984   3.343  47.823  1.00  0.00     0.317 HD
ENDROOT
BRANCH  22  25
HETATM   25  N4  UNL     1      22.812   5.665  49.438  1.00  0.00    -0.419 N 
HETATM   26  H21 UNL     1      21.948   6.142  49.645  1.00  0.00     0.150 HD
HETATM   27  H22 UNL     1      23.223   5.675  48.517  1.00  0.00     0.150 HD
ENDBRANCH  22  25
TORSDOF 1
ENDMDL
MODEL 3
REMARK VINA RESULT:      -7.6      2.500      3.648
REMARK  1 active torsions:
REMARK  status: ('A' for Active; 'I' for Inactive)
REMARK    1  A    between atoms: C19_22  and  N4_23 
ROOT
HETATM    1  C1  UNL     1      28.574   8.850  49.340  1.00  0.00     0.073 C 
HETATM    2  C2  UNL     1      27.203   8.289  49.261  1.00  0.00     0.061 C 
HETATM    3  N1  UNL     1      26.311   8.688  50.149  1.00  0.00    -0.155 NA
HETATM    4  N2  UNL     1      24.924   9.020  50.068  1.00  0.00    -0.159 NA
HETATM    5  C3  UNL     1      24.078   8.439  49.235  1.00  0.00     0.041 C 
HETATM    6  C4  UNL     1      23.859   8.887  47.805  1.00  0.00     0.096 C 
HETATM    7  C5  UNL     1      24.891   8.258  46.897  1.00  0.00    -0.042 C 
HETATM    8  C6  UNL     1      24.433   8.225  45.661  1.00  0.00    -0.029 A 
HETATM    9  C7  UNL     1      23.374   8.513  44.702  1.00  0.00     0.013 A 
HETATM   10  C8  UNL     1      24.581   7.890  44.257  1.00  0.00     0.013 A 
HETATM   11  C9  UNL     1      26.257   7.679  47.031  1.00  0.00     0.019 C 
HETATM   12  C10 UNL     1      26.838   7.300  48.199  1.00  0.00    -0.004 C 
HETATM   13  C11 UNL     1      27.198   5.909  48.666  1.00  0.00     0.311 C 
HETATM   14  N3  UNL     1      26.413   5.587  49.848  1.00  0.00     0.098 N 
HETATM   15  C12 UNL     1      25.007   5.445  49.533  1.00  0.00     0.271 C 
HETATM   16  C13 UNL     1      24.724   4.004  49.432  1.00  0.00     0.011 C 
HETATM   17  C14 UNL     1      24.465   2.887  50.141  1.00  0.00    -0.002 C 
HETATM   18  C15 UNL     1      24.357   2.729  51.609  1.00  0.00    -0.004 C 
HETATM   19  C16 UNL     1      23.962   3.573  52.578  1.00  0.00    -0.027 C 
HETATM   20  C17 UNL     1      23.475   4.994  52.572  1.00  0.00     0.029 C 
HETATM   21  C18 UNL     1      23.058   5.377  51.150  1.00  0.00     0.037 C 
HETATM   22  C19 UNL     1      24.106   6.225  50.455  1.00  0.00     0.063 C 
HETATM   23  C20 UNL     1      23.323   7.300  49.728  1.00  0.00     0.089 C 
HETATM   24  H11 UNL     1      26.821   4.698  50.236  1.00  0.00     0.317 HD
ENDROOT
BRANCH  22  25
HETATM   25  N4  UNL     1      24.930   6.748  51.498  1.00  0.00    -0.419 N 
HETATM   26  H21 UNL     1      25.229   7.710  51.447  1.00  0.00     0.150 HD
HETATM   27  H22 UNL     1      25.222   6.135  52.244  1.00  0.00     0.150 HD
ENDBRANCH  22  25
TORSDOF 1
ENDMDL
MODEL 4
REMARK VINA RESULT:      -7.4      1.936      5.687
REMARK  1 active torsions:
REMARK  status: ('A' for Active; 'I' for Inactive)
REMARK    1  A    between atoms: C19_22  and  N4_23 
ROOT
HETATM    1  C1  UNL     1      20.728   1.637  49.994  1.00  0.00     0.073 C 
HETATM    2  C2  UNL     1      21.715   2.655  50.432  1.00  0.00     0.061 C 
HETATM    3  N1  UNL     1      21.289   3.660  51.174  1.00  0.00    -0.155 NA
HETATM    4  N2  UNL     1      21.827   4.342  52.309  1.00  0.00    -0.159 NA
HETATM    5  C3  UNL     1      23.121   4.528  52.506  1.00  0.00     0.041 C 
HETATM    6  C4  UNL     1      24.025   3.520  53.184  1.00  0.00     0.096 C 
HETATM    7  C5  UNL     1      24.518   2.503  52.180  1.00  0.00    -0.042 C 
HETATM    8  C6  UNL     1      25.640   1.961  52.611  1.00  0.00    -0.029 A 
HETATM    9  C7  UNL     1      26.680   1.859  53.627  1.00  0.00     0.013 A 
HETATM   10  C8  UNL     1      26.753   1.045  52.455  1.00  0.00     0.013 A 
HETATM   11  C9  UNL     1      24.077   1.965  50.862  1.00  0.00     0.019 C 
HETATM   12  C10 UNL     1      23.156   2.544  50.047  1.00  0.00    -0.004 C 
HETATM   13  C11 UNL     1      23.361   3.174  48.690  1.00  0.00     0.311 C 
HETATM   14  N3  UNL     1      23.042   4.591  48.771  1.00  0.00     0.098 N 
HETATM   15  C12 UNL     1      24.000   5.309  49.585  1.00  0.00     0.271 C 
HETATM   16  C13 UNL     1      24.942   5.973  48.670  1.00  0.00     0.011 C 
HETATM   17  C14 UNL     1      25.123   7.049  47.876  1.00  0.00    -0.002 C 
HETATM   18  C15 UNL     1      24.196   8.174  47.620  1.00  0.00    -0.004 C 
HETATM   19  C16 UNL     1      23.252   8.753  48.383  1.00  0.00    -0.027 C 
HETATM   20  C17 UNL     1      22.758   8.503  49.779  1.00  0.00     0.029 C 
HETATM   21  C18 UNL     1      23.783   7.649  50.530  1.00  0.00     0.037 C 
HETATM   22  C19 UNL     1      23.360   6.195  50.621  1.00  0.00     0.063 C 
HETATM   23  C20 UNL     1      23.701   5.775  52.037  1.00  0.00     0.089 C 
HETATM   24  H11 UNL     1      23.025   4.944  47.780  1.00  0.00     0.317 HD
ENDROOT
BRANCH  22  25
HETATM   25  N4  UNL     1      21.954   6.188  50.364  1.00  0.00    -0.419 N 
HETATM   26  H21 UNL     1      21.331   5.832  51.072  1.00  0.00     0.150 HD
HETATM   27  H22 UNL     1      21.620   6.508  49.468  1.00  0.00     0.150 HD
ENDBRANCH  22  25
TORSDOF 1
ENDMDL
MODEL 5
REMARK VINA RESULT:      -7.3      2.050      6.207
REMARK  1 active torsions:
REMARK  status: ('A' for Active; 'I' for Inactive)
REMARK    1  A    between atoms: C19_22  and  N4_23 
ROOT
HETATM    1  C1  UNL     1      20.147   1.001  53.161  1.00  0.00     0.073 C 
HETATM    2  C2  UNL     1      21.102   1.797  52.351  1.00  0.00     0.061 C 
HETATM    3  N1  UNL     1      21.076   3.111  52.466  1.00  0.00    -0.155 NA
HETATM    4  N2  UNL     1      22.093   4.113  52.523  1.00  0.00    -0.159 NA
HETATM    5  C3  UNL     1      23.244   4.028  51.879  1.00  0.00     0.041 C 
HETATM    6  C4  UNL     1      24.467   3.323  52.428  1.00  0.00     0.096 C 
HETATM    7  C5  UNL     1      24.401   1.844  52.119  1.00  0.00    -0.042 C 
HETATM    8  C6  UNL     1      25.615   1.333  52.131  1.00  0.00    -0.029 A 
HETATM    9  C7  UNL     1      27.052   1.505  52.305  1.00  0.00     0.013 A 
HETATM   10  C8  UNL     1      26.527   0.214  51.987  1.00  0.00     0.013 A 
HETATM   11  C9  UNL     1      23.345   0.838  51.812  1.00  0.00     0.019 C 
HETATM   12  C10 UNL     1      22.073   1.127  51.431  1.00  0.00    -0.004 C 
HETATM   13  C11 UNL     1      21.409   0.880  50.097  1.00  0.00     0.311 C 
HETATM   14  N3  UNL     1      21.055   2.158  49.498  1.00  0.00     0.098 N 
HETATM   15  C12 UNL     1      22.229   2.912  49.115  1.00  0.00     0.271 C 
HETATM   16  C13 UNL     1      22.415   2.729  47.667  1.00  0.00     0.011 C 
HETATM   17  C14 UNL     1      22.007   3.142  46.450  1.00  0.00    -0.002 C 
HETATM   18  C15 UNL     1      20.994   4.168  46.114  1.00  0.00    -0.004 C 
HETATM   19  C16 UNL     1      20.597   5.283  46.752  1.00  0.00    -0.027 C 
HETATM   20  C17 UNL     1      21.010   5.936  48.041  1.00  0.00     0.029 C 
HETATM   21  C18 UNL     1      22.358   5.362  48.486  1.00  0.00     0.037 C 
HETATM   22  C19 UNL     1      22.207   4.340  49.596  1.00  0.00     0.063 C 
HETATM   23  C20 UNL     1      23.330   4.644  50.567  1.00  0.00     0.089 C 
HETATM   24  H11 UNL     1      20.444   1.933  48.671  1.00  0.00     0.317 HD
ENDROOT
BRANCH  22  25
HETATM   25  N4  UNL     1      20.911   4.569  50.155  1.00  0.00    -0.419 N 
HETATM   26  H21 UNL     1      20.280   5.196  49.680  1.00  0.00     0.150 HD
HETATM   27  H22 UNL     1      20.672   4.127  51.029  1.00  0.00     0.150 HD
ENDBRANCH  22  25
TORSDOF 1
ENDMDL
MODEL 6
REMARK VINA RESULT:      -7.3      9.876     11.153
REMARK  1 active torsions:
REMARK  status: ('A' for Active; 'I' for Inactive)
REMARK    1  A    between atoms: C19_22  and  N4_23 
ROOT
HETATM    1  C1  UNL     1      35.951  10.001  44.054  1.00  0.00     0.073 C 
HETATM    2  C2  UNL     1      35.018   9.341  45.000  1.00  0.00     0.061 C 
HETATM    3  N1  UNL     1      35.370   9.256  46.269  1.00  0.00    -0.155 NA
HETATM    4  N2  UNL     1      34.659   9.414  47.499  1.00  0.00    -0.159 NA
HETATM    5  C3  UNL     1      33.388   9.088  47.659  1.00  0.00     0.041 C 
HETATM    6  C4  UNL     1      32.233  10.012  47.335  1.00  0.00     0.096 C 
HETATM    7  C5  UNL     1      31.878   9.911  45.869  1.00  0.00    -0.042 C 
HETATM    8  C6  UNL     1      30.629  10.291  45.687  1.00  0.00    -0.029 A 
HETATM    9  C7  UNL     1      29.370  10.782  46.233  1.00  0.00     0.013 A 
HETATM   10  C8  UNL     1      29.485  10.534  44.830  1.00  0.00     0.013 A 
HETATM   11  C9  UNL     1      32.557   9.505  44.606  1.00  0.00     0.019 C 
HETATM   12  C10 UNL     1      33.709   8.789  44.529  1.00  0.00    -0.004 C 
HETATM   13  C11 UNL     1      33.915   7.384  44.015  1.00  0.00     0.311 C 
HETATM   14  N3  UNL     1      34.373   6.541  45.109  1.00  0.00     0.098 N 
HETATM   15  C12 UNL     1      33.340   6.349  46.104  1.00  0.00     0.271 C 
HETATM   16  C13 UNL     1      32.733   5.031  45.860  1.00  0.00     0.011 C 
HETATM   17  C14 UNL     1      32.879   3.705  46.058  1.00  0.00    -0.002 C 
HETATM   18  C15 UNL     1      33.968   2.990  46.760  1.00  0.00    -0.004 C 
HETATM   19  C16 UNL     1      34.763   3.346  47.785  1.00  0.00    -0.027 C 
HETATM   20  C17 UNL     1      34.872   4.589  48.622  1.00  0.00     0.029 C 
HETATM   21  C18 UNL     1      33.601   5.425  48.448  1.00  0.00     0.037 C 
HETATM   22  C19 UNL     1      33.813   6.600  47.513  1.00  0.00     0.063 C 
HETATM   23  C20 UNL     1      33.093   7.761  48.170  1.00  0.00     0.089 C 
HETATM   24  H11 UNL     1      34.670   5.631  44.671  1.00  0.00     0.317 HD
ENDROOT
BRANCH  22  25
HETATM   25  N4  UNL     1      35.228   6.790  47.449  1.00  0.00    -0.419 N 
HETATM   26  H21 UNL     1      35.644   7.538  47.983  1.00  0.00     0.150 HD
HETATM   27  H22 UNL     1      35.773   6.194  46.846  1.00  0.00     0.150 HD
ENDBRANCH  22  25
TORSDOF 1
ENDMDL
MODEL 7
REMARK VINA RESULT:      -7.2      7.618      9.485
REMARK  1 active torsions:
REMARK  status: ('A' for Active; 'I' for Inactive)
REMARK    1  A    between atoms: C19_22  and  N4_23 
ROOT
HETATM    1  C1  UNL     1      33.167  11.011  47.152  1.00  0.00     0.073 C 
HETATM    2  C2  UNL     1      32.635   9.634  47.303  1.00  0.00     0.061 C 
HETATM    3  N1  UNL     1      32.894   8.982  48.421  1.00  0.00    -0.155 NA
HETATM    4  N2  UNL     1      32.119   8.123  49.260  1.00  0.00    -0.159 NA
HETATM    5  C3  UNL     1      31.181   7.309  48.809  1.00  0.00     0.041 C 
HETATM    6  C4  UNL     1      29.741   7.723  48.583  1.00  0.00     0.096 C 
HETATM    7  C5  UNL     1      29.587   8.352  47.216  1.00  0.00    -0.042 C 
HETATM    8  C6  UNL     1      28.334   8.254  46.821  1.00  0.00    -0.029 A 
HETATM    9  C7  UNL     1      26.965   7.817  47.070  1.00  0.00     0.013 A 
HETATM   10  C8  UNL     1      27.285   8.482  45.846  1.00  0.00     0.013 A 
HETATM   11  C9  UNL     1      30.462   9.037  46.224  1.00  0.00     0.019 C 
HETATM   12  C10 UNL     1      31.820   9.002  46.218  1.00  0.00    -0.004 C 
HETATM   13  C11 UNL     1      32.743   8.354  45.214  1.00  0.00     0.311 C 
HETATM   14  N3  UNL     1      33.490   7.291  45.871  1.00  0.00     0.098 N 
HETATM   15  C12 UNL     1      32.630   6.189  46.247  1.00  0.00     0.271 C 
HETATM   16  C13 UNL     1      32.792   5.139  45.229  1.00  0.00     0.011 C 
HETATM   17  C14 UNL     1      33.576   4.119  44.823  1.00  0.00    -0.002 C 
HETATM   18  C15 UNL     1      34.826   3.615  45.435  1.00  0.00    -0.004 C 
HETATM   19  C16 UNL     1      35.260   3.592  46.707  1.00  0.00    -0.027 C 
HETATM   20  C17 UNL     1      34.667   4.058  48.007  1.00  0.00     0.029 C 
HETATM   21  C18 UNL     1      33.164   4.279  47.823  1.00  0.00     0.037 C 
HETATM   22  C19 UNL     1      32.814   5.748  47.676  1.00  0.00     0.063 C 
HETATM   23  C20 UNL     1      31.563   5.940  48.510  1.00  0.00     0.089 C 
HETATM   24  H11 UNL     1      34.235   6.995  45.191  1.00  0.00     0.317 HD
ENDROOT
BRANCH  22  25
HETATM   25  N4  UNL     1      33.939   6.463  48.191  1.00  0.00    -0.419 N 
HETATM   26  H21 UNL     1      34.722   6.645  47.581  1.00  0.00     0.150 HD
HETATM   27  H22 UNL     1      33.939   6.741  49.160  1.00  0.00     0.150 HD
ENDBRANCH  22  25
TORSDOF 1
ENDMDL
MODEL 8
REMARK VINA RESULT:      -7.2      7.714     10.339
REMARK  1 active torsions:
REMARK  status: ('A' for Active; 'I' for Inactive)
REMARK    1  A    between atoms: C19_22  and  N4_23 
ROOT
HETATM    1  C1  UNL     1      35.221   5.475  49.158  1.00  0.00     0.073 C 
HETATM    2  C2  UNL     1      34.248   6.198  48.303  1.00  0.00     0.061 C 
HETATM    3  N1  UNL     1      34.238   7.517  48.344  1.00  0.00    -0.155 NA
HETATM    4  N2  UNL     1      34.099   8.531  47.347  1.00  0.00    -0.159 NA
HETATM    5  C3  UNL     1      33.357   8.396  46.262  1.00  0.00     0.041 C 
HETATM    6  C4  UNL     1      33.850   7.761  44.977  1.00  0.00     0.096 C 
HETATM    7  C5  UNL     1      33.692   6.259  45.043  1.00  0.00    -0.042 C 
HETATM    8  C6  UNL     1      33.635   5.765  43.822  1.00  0.00    -0.029 A 
HETATM    9  C7  UNL     1      33.651   5.968  42.379  1.00  0.00     0.013 A 
HETATM   10  C8  UNL     1      33.511   4.647  42.906  1.00  0.00     0.013 A 
HETATM   11  C9  UNL     1      33.588   5.216  46.102  1.00  0.00     0.019 C 
HETATM   12  C10 UNL     1      33.306   5.452  47.411  1.00  0.00    -0.004 C 
HETATM   13  C11 UNL     1      32.074   5.068  48.194  1.00  0.00     0.311 C 
HETATM   14  N3  UNL     1      31.393   6.278  48.631  1.00  0.00     0.098 N 
HETATM   15  C12 UNL     1      30.826   7.003  47.514  1.00  0.00     0.271 C 
HETATM   16  C13 UNL     1      29.391   6.681  47.464  1.00  0.00     0.011 C 
HETATM   17  C14 UNL     1      28.185   6.970  47.995  1.00  0.00    -0.002 C 
HETATM   18  C15 UNL     1      27.853   7.946  49.057  1.00  0.00    -0.004 C 
HETATM   19  C16 UNL     1      28.416   9.114  49.413  1.00  0.00    -0.027 C 
HETATM   20  C17 UNL     1      29.589   9.894  48.892  1.00  0.00     0.029 C 
HETATM   21  C18 UNL     1      29.954   9.382  47.496  1.00  0.00     0.037 C 
HETATM   22  C19 UNL     1      31.167   8.471  47.519  1.00  0.00     0.063 C 
HETATM   23  C20 UNL     1      31.990   8.881  46.315  1.00  0.00     0.089 C 
HETATM   24  H11 UNL     1      30.654   5.967  49.313  1.00  0.00     0.317 HD
ENDROOT
BRANCH  22  25
HETATM   25  N4  UNL     1      31.825   8.740  48.759  1.00  0.00    -0.419 N 
HETATM   26  H21 UNL     1      31.274   9.048  49.547  1.00  0.00     0.150 HD
HETATM   27  H22 UNL     1      32.828   8.649  48.809  1.00  0.00     0.150 HD
ENDBRANCH  22  25
TORSDOF 1
ENDMDL
MODEL 9
REMARK VINA RESULT:      -7.0      3.662      6.824
REMARK  1 active torsions:
REMARK  status: ('A' for Active; 'I' for Inactive)
REMARK    1  A    between atoms: C19_22  and  N4_23 
ROOT
HETATM    1  C1  UNL     1      16.393   1.899  51.518  1.00  0.00     0.073 C 
HETATM    2  C2  UNL     1      17.869   2.051  51.487  1.00  0.00     0.061 C 
HETATM    3  N1  UNL     1      18.380   3.244  51.725  1.00  0.00    -0.155 NA
HETATM    4  N2  UNL     1      19.516   3.697  52.464  1.00  0.00    -0.159 NA
HETATM    5  C3  UNL     1      20.641   3.011  52.574  1.00  0.00     0.041 C 
HETATM    6  C4  UNL     1      20.881   1.947  53.625  1.00  0.00     0.096 C 
HETATM    7  C5  UNL     1      20.338   0.617  53.157  1.00  0.00    -0.042 C 
HETATM    8  C6  UNL     1      20.955  -0.362  53.788  1.00  0.00    -0.029 A 
HETATM    9  C7  UNL     1      21.947  -0.806  54.758  1.00  0.00     0.013 A 
HETATM   10  C8  UNL     1      21.170  -1.773  54.047  1.00  0.00     0.013 A 
HETATM   11  C9  UNL     1      19.310   0.135  52.191  1.00  0.00     0.019 C 
HETATM   12  C10 UNL     1      18.755   0.880  51.199  1.00  0.00    -0.004 C 
HETATM   13  C11 UNL     1      18.909   0.725  49.705  1.00  0.00     0.311 C 
HETATM   14  N3  UNL     1      19.565   1.909  49.170  1.00  0.00     0.098 N 
HETATM   15  C12 UNL     1      20.942   2.000  49.607  1.00  0.00     0.271 C 
HETATM   16  C13 UNL     1      21.786   1.512  48.504  1.00  0.00     0.011 C 
HETATM   17  C14 UNL     1      22.355   1.850  47.329  1.00  0.00    -0.002 C 
HETATM   18  C15 UNL     1      22.288   3.142  46.609  1.00  0.00    -0.004 C 
HETATM   19  C16 UNL     1      22.162   4.408  47.042  1.00  0.00    -0.027 C 
HETATM   20  C17 UNL     1      22.040   5.023  48.407  1.00  0.00     0.029 C 
HETATM   21  C18 UNL     1      22.484   4.004  49.460  1.00  0.00     0.037 C 
HETATM   22  C19 UNL     1      21.306   3.353  50.160  1.00  0.00     0.063 C 
HETATM   23  C20 UNL     1      21.700   3.297  51.622  1.00  0.00     0.089 C 
HETATM   24  H11 UNL     1      19.489   1.837  48.123  1.00  0.00     0.317 HD
ENDROOT
BRANCH  22  25
HETATM   25  N4  UNL     1      20.192   4.215  49.918  1.00  0.00    -0.419 N 
HETATM   26  H21 UNL     1      19.835   4.775  50.677  1.00  0.00     0.150 HD
HETATM   27  H22 UNL     1      19.767   4.218  49.003  1.00  0.00     0.150 HD
ENDBRANCH  22  25
TORSDOF 1
ENDMDL
