MODEL 1
REMARK VINA RESULT:      -8.3      0.000      0.000
REMARK  9 active torsions:
REMARK  status: ('A' for Active; 'I' for Inactive)
REMARK    1  A    between atoms: N1_2  and  C2_3 
REMARK    2  A    between atoms: C2_3  and  C3_4 
REMARK    3  A    between atoms: C3_4  and  C4_5 
REMARK    4  A    between atoms: C4_5  and  C5_6 
REMARK    5  A    between atoms: C8_11  and  N4_12 
REMARK    6  A    between atoms: N4_12  and  C9_13 
REMARK    7  A    between atoms: C12_16  and  O1_17 
REMARK    8  A    between atoms: O1_17  and  C13_18 
REMARK    9  A    between atoms: C13_18  and  C14_19 
ROOT
HETATM    1  C9  UNL     1      24.039  -0.651  54.400  1.00  0.00     0.033 A 
HETATM    2  C10 UNL     1      23.231  -1.324  55.337  1.00  0.00     0.032 A 
HETATM    3  C11 UNL     1      21.920  -1.535  55.011  1.00  0.00     0.039 A 
HETATM    4  C12 UNL     1      21.428  -1.111  53.837  1.00  0.00     0.069 A 
HETATM    5  C20 UNL     1      22.123  -0.443  52.838  1.00  0.00     0.039 A 
HETATM    6  C21 UNL     1      23.472  -0.231  53.183  1.00  0.00     0.032 A 
ENDROOT
BRANCH   1   7
HETATM    7  N4  UNL     1      25.334  -0.171  54.286  1.00  0.00    -0.341 N 
HETATM    8  H13 UNL     1      24.958   0.720  53.805  1.00  0.00     0.167 HD
BRANCH   7   9
HETATM    9  C8  UNL     1      26.578   0.417  54.109  1.00  0.00     0.137 A 
HETATM   10  C5  UNL     1      26.977   1.560  53.448  1.00  0.00     0.005 A 
HETATM   11  C6  UNL     1      28.287   1.941  53.397  1.00  0.00     0.129 A 
HETATM   12  N2  UNL     1      29.157   1.147  54.022  1.00  0.00    -0.253 NA
HETATM   13  C7  UNL     1      28.862   0.028  54.683  1.00  0.00     0.234 A 
HETATM   14  N3  UNL     1      27.560  -0.321  54.714  1.00  0.00    -0.224 NA
BRANCH  10  15
HETATM   15  C4  UNL     1      25.850   2.401  52.840  1.00  0.00     0.045 C 
BRANCH  15  16
HETATM   16  C3  UNL     1      25.782   2.037  51.390  1.00  0.00     0.024 C 
BRANCH  16  17
HETATM   17  C2  UNL     1      26.453   2.961  50.427  1.00  0.00     0.113 C 
BRANCH  17  18
HETATM   18  N1  UNL     1      26.083   4.317  50.481  1.00  0.00    -0.425 N 
HETATM   19  C1  UNL     1      26.281   5.035  49.273  1.00  0.00     0.139 C 
HETATM   20  H4  UNL     1      25.219   4.530  51.006  1.00  0.00     0.152 HD
ENDBRANCH  17  18
ENDBRANCH  16  17
ENDBRANCH  15  16
ENDBRANCH  10  15
ENDBRANCH   7   9
ENDBRANCH   1   7
BRANCH   4  21
HETATM   21  O1  UNL     1      20.100  -1.450  53.775  1.00  0.00    -0.347 OA
BRANCH  21  22
HETATM   22  C13 UNL     1      19.037  -0.709  53.272  1.00  0.00     0.214 C 
BRANCH  22  23
HETATM   23  C14 UNL     1      17.828  -1.538  53.075  1.00  0.00    -0.031 A 
HETATM   24  C15 UNL     1      16.683  -1.245  52.376  1.00  0.00     0.009 A 
HETATM   25  C16 UNL     1      15.637  -2.111  52.207  1.00  0.00     0.004 A 
HETATM   26  C17 UNL     1      15.759  -3.347  52.782  1.00  0.00     0.042 A 
HETATM   27  C18 UNL     1      16.865  -3.694  53.486  1.00  0.00     0.117 A 
HETATM   28  F1  UNL     1      16.947  -4.948  54.045  1.00  0.00    -0.206 F 
HETATM   29  C19 UNL     1      17.899  -2.793  53.633  1.00  0.00     0.051 A 
ENDBRANCH  22  23
ENDBRANCH  21  22
ENDBRANCH   4  21
TORSDOF 9
ENDMDL
MODEL 2
REMARK VINA RESULT:      -8.0      5.002      9.947
REMARK  9 active torsions:
REMARK  status: ('A' for Active; 'I' for Inactive)
REMARK    1  A    between atoms: N1_2  and  C2_3 
REMARK    2  A    between atoms: C2_3  and  C3_4 
REMARK    3  A    between atoms: C3_4  and  C4_5 
REMARK    4  A    between atoms: C4_5  and  C5_6 
REMARK    5  A    between atoms: C8_11  and  N4_12 
REMARK    6  A    between atoms: N4_12  and  C9_13 
REMARK    7  A    between atoms: C12_16  and  O1_17 
REMARK    8  A    between atoms: O1_17  and  C13_18 
REMARK    9  A    between atoms: C13_18  and  C14_19 
ROOT
HETATM    1  C9  UNL     1      24.159   1.915  51.323  1.00  0.00     0.033 A 
HETATM    2  C10 UNL     1      23.701   2.739  50.278  1.00  0.00     0.032 A 
HETATM    3  C11 UNL     1      24.631   3.457  49.579  1.00  0.00     0.039 A 
HETATM    4  C12 UNL     1      25.934   3.373  49.886  1.00  0.00     0.069 A 
HETATM    5  C20 UNL     1      26.503   2.597  50.886  1.00  0.00     0.039 A 
HETATM    6  C21 UNL     1      25.537   1.862  51.600  1.00  0.00     0.032 A 
ENDROOT
BRANCH   1   7
HETATM    7  N4  UNL     1      23.644   1.085  52.306  1.00  0.00    -0.341 N 
HETATM    8  H13 UNL     1      24.484   1.323  52.942  1.00  0.00     0.167 HD
BRANCH   7   9
HETATM    9  C8  UNL     1      23.237   0.285  53.365  1.00  0.00     0.137 A 
HETATM   10  C5  UNL     1      23.906  -0.644  54.134  1.00  0.00     0.005 A 
HETATM   11  C6  UNL     1      23.282  -1.333  55.134  1.00  0.00     0.129 A 
HETATM   12  N2  UNL     1      21.991  -1.056  55.325  1.00  0.00    -0.253 NA
HETATM   13  C7  UNL     1      21.268  -0.177  54.632  1.00  0.00     0.234 A 
HETATM   14  N3  UNL     1      21.914   0.486  53.650  1.00  0.00    -0.224 NA
BRANCH  10  15
HETATM   15  C4  UNL     1      25.401  -0.798  53.837  1.00  0.00     0.045 C 
BRANCH  15  16
HETATM   16  C3  UNL     1      26.124   0.016  54.864  1.00  0.00     0.024 C 
BRANCH  16  17
HETATM   17  C2  UNL     1      27.504   0.470  54.518  1.00  0.00     0.113 C 
BRANCH  17  18
HETATM   18  N1  UNL     1      27.701   1.855  54.362  1.00  0.00    -0.425 N 
HETATM   19  C1  UNL     1      29.009   2.227  53.958  1.00  0.00     0.139 C 
HETATM   20  H4  UNL     1      26.921   2.375  53.930  1.00  0.00     0.152 HD
ENDBRANCH  17  18
ENDBRANCH  16  17
ENDBRANCH  15  16
ENDBRANCH  10  15
ENDBRANCH   7   9
ENDBRANCH   1   7
BRANCH   4  21
HETATM   21  O1  UNL     1      26.635   4.191  49.036  1.00  0.00    -0.347 OA
BRANCH  21  22
HETATM   22  C13 UNL     1      26.529   5.567  48.871  1.00  0.00     0.214 C 
BRANCH  22  23
HETATM   23  C14 UNL     1      27.735   6.143  48.236  1.00  0.00    -0.031 A 
HETATM   24  C15 UNL     1      27.882   7.347  47.593  1.00  0.00     0.009 A 
HETATM   25  C16 UNL     1      29.064   7.814  47.085  1.00  0.00     0.004 A 
HETATM   26  C17 UNL     1      30.162   7.010  47.237  1.00  0.00     0.042 A 
HETATM   27  C18 UNL     1      30.079   5.809  47.861  1.00  0.00     0.117 A 
HETATM   28  F1  UNL     1      31.208   5.035  47.995  1.00  0.00    -0.206 F 
HETATM   29  C19 UNL     1      28.868   5.374  48.361  1.00  0.00     0.051 A 
ENDBRANCH  22  23
ENDBRANCH  21  22
ENDBRANCH   4  21
TORSDOF 9
ENDMDL
MODEL 3
REMARK VINA RESULT:      -7.7      4.956      9.728
REMARK  9 active torsions:
REMARK  status: ('A' for Active; 'I' for Inactive)
REMARK    1  A    between atoms: N1_2  and  C2_3 
REMARK    2  A    between atoms: C2_3  and  C3_4 
REMARK    3  A    between atoms: C3_4  and  C4_5 
REMARK    4  A    between atoms: C4_5  and  C5_6 
REMARK    5  A    between atoms: C8_11  and  N4_12 
REMARK    6  A    between atoms: N4_12  and  C9_13 
REMARK    7  A    between atoms: C12_16  and  O1_17 
REMARK    8  A    between atoms: O1_17  and  C13_18 
REMARK    9  A    between atoms: C13_18  and  C14_19 
ROOT
HETATM    1  C9  UNL     1      23.310   1.817  51.064  1.00  0.00     0.033 A 
HETATM    2  C10 UNL     1      22.704   2.201  49.852  1.00  0.00     0.032 A 
HETATM    3  C11 UNL     1      23.244   3.262  49.179  1.00  0.00     0.039 A 
HETATM    4  C12 UNL     1      24.314   3.909  49.664  1.00  0.00     0.069 A 
HETATM    5  C20 UNL     1      24.995   3.622  50.839  1.00  0.00     0.039 A 
HETATM    6  C21 UNL     1      24.432   2.528  51.524  1.00  0.00     0.032 A 
ENDROOT
BRANCH   1   7
HETATM    7  N4  UNL     1      23.119   0.902  52.086  1.00  0.00    -0.341 N 
HETATM    8  H13 UNL     1      22.164   1.355  52.309  1.00  0.00     0.167 HD
BRANCH   7   9
HETATM    9  C8  UNL     1      22.809   0.048  53.136  1.00  0.00     0.137 A 
HETATM   10  C5  UNL     1      23.587  -0.541  54.111  1.00  0.00     0.005 A 
HETATM   11  C6  UNL     1      23.052  -1.373  55.052  1.00  0.00     0.129 A 
HETATM   12  N2  UNL     1      21.737  -1.583  54.975  1.00  0.00    -0.253 NA
HETATM   13  C7  UNL     1      20.911  -1.057  54.070  1.00  0.00     0.234 A 
HETATM   14  N3  UNL     1      21.471  -0.241  53.155  1.00  0.00    -0.224 NA
BRANCH  10  15
HETATM   15  C4  UNL     1      25.067  -0.146  54.107  1.00  0.00     0.045 C 
BRANCH  15  16
HETATM   16  C3  UNL     1      25.705  -0.897  52.981  1.00  0.00     0.024 C 
BRANCH  16  17
HETATM   17  C2  UNL     1      27.167  -1.176  53.097  1.00  0.00     0.113 C 
BRANCH  17  18
HETATM   18  N1  UNL     1      27.860  -0.532  54.139  1.00  0.00    -0.425 N 
HETATM   19  C1  UNL     1      29.272  -0.523  53.997  1.00  0.00     0.139 C 
HETATM   20  H4  UNL     1      27.429   0.334  54.500  1.00  0.00     0.152 HD
ENDBRANCH  17  18
ENDBRANCH  16  17
ENDBRANCH  15  16
ENDBRANCH  10  15
ENDBRANCH   7   9
ENDBRANCH   1   7
BRANCH   4  21
HETATM   21  O1  UNL     1      24.640   4.922  48.797  1.00  0.00    -0.347 OA
BRANCH  21  22
HETATM   22  C13 UNL     1      25.227   6.150  49.077  1.00  0.00     0.214 C 
BRANCH  22  23
HETATM   23  C14 UNL     1      26.667   6.165  48.740  1.00  0.00    -0.031 A 
HETATM   24  C15 UNL     1      27.535   5.110  48.605  1.00  0.00     0.009 A 
HETATM   25  C16 UNL     1      28.846   5.229  48.232  1.00  0.00     0.004 A 
HETATM   26  C17 UNL     1      29.304   6.495  47.981  1.00  0.00     0.042 A 
HETATM   27  C18 UNL     1      28.495   7.576  48.098  1.00  0.00     0.117 A 
HETATM   28  F1  UNL     1      28.996   8.830  47.833  1.00  0.00    -0.206 F 
HETATM   29  C19 UNL     1      27.178   7.414  48.476  1.00  0.00     0.051 A 
ENDBRANCH  22  23
ENDBRANCH  21  22
ENDBRANCH   4  21
TORSDOF 9
ENDMDL
MODEL 4
REMARK VINA RESULT:      -7.6      1.919      2.312
REMARK  9 active torsions:
REMARK  status: ('A' for Active; 'I' for Inactive)
REMARK    1  A    between atoms: N1_2  and  C2_3 
REMARK    2  A    between atoms: C2_3  and  C3_4 
REMARK    3  A    between atoms: C3_4  and  C4_5 
REMARK    4  A    between atoms: C4_5  and  C5_6 
REMARK    5  A    between atoms: C8_11  and  N4_12 
REMARK    6  A    between atoms: N4_12  and  C9_13 
REMARK    7  A    between atoms: C12_16  and  O1_17 
REMARK    8  A    between atoms: O1_17  and  C13_18 
REMARK    9  A    between atoms: C13_18  and  C14_19 
ROOT
HETATM    1  C9  UNL     1      23.691  -0.448  53.964  1.00  0.00     0.033 A 
HETATM    2  C10 UNL     1      22.802  -1.157  54.794  1.00  0.00     0.032 A 
HETATM    3  C11 UNL     1      21.462  -1.008  54.565  1.00  0.00     0.039 A 
HETATM    4  C12 UNL     1      21.019  -0.210  53.582  1.00  0.00     0.069 A 
HETATM    5  C20 UNL     1      21.795   0.533  52.703  1.00  0.00     0.039 A 
HETATM    6  C21 UNL     1      23.172   0.372  52.946  1.00  0.00     0.032 A 
ENDROOT
BRANCH   1   7
HETATM    7  N4  UNL     1      25.053  -0.230  53.833  1.00  0.00    -0.341 N 
HETATM    8  H13 UNL     1      24.978   0.618  54.499  1.00  0.00     0.167 HD
BRANCH   7   9
HETATM    9  C8  UNL     1      26.401   0.097  53.783  1.00  0.00     0.137 A 
HETATM   10  C5  UNL     1      27.194   0.611  52.779  1.00  0.00     0.005 A 
HETATM   11  C6  UNL     1      28.527   0.842  52.962  1.00  0.00     0.129 A 
HETATM   12  N2  UNL     1      29.018   0.543  54.165  1.00  0.00    -0.253 NA
HETATM   13  C7  UNL     1      28.328   0.045  55.191  1.00  0.00     0.234 A 
HETATM   14  N3  UNL     1      27.015  -0.173  54.977  1.00  0.00    -0.224 NA
BRANCH  10  15
HETATM   15  C4  UNL     1      26.468   0.967  51.478  1.00  0.00     0.045 C 
BRANCH  15  16
HETATM   16  C3  UNL     1      26.420   2.462  51.412  1.00  0.00     0.024 C 
BRANCH  16  17
HETATM   17  C2  UNL     1      25.069   3.097  51.425  1.00  0.00     0.113 C 
BRANCH  17  18
HETATM   18  N1  UNL     1      24.622   3.625  52.650  1.00  0.00    -0.425 N 
HETATM   19  C1  UNL     1      23.447   4.415  52.563  1.00  0.00     0.139 C 
HETATM   20  H4  UNL     1      24.693   2.995  53.466  1.00  0.00     0.152 HD
ENDBRANCH  17  18
ENDBRANCH  16  17
ENDBRANCH  15  16
ENDBRANCH  10  15
ENDBRANCH   7   9
ENDBRANCH   1   7
BRANCH   4  21
HETATM   21  O1  UNL     1      19.647  -0.244  53.580  1.00  0.00    -0.347 OA
BRANCH  21  22
HETATM   22  C13 UNL     1      18.805  -1.350  53.562  1.00  0.00     0.214 C 
BRANCH  22  23
HETATM   23  C14 UNL     1      17.735  -1.215  52.551  1.00  0.00    -0.031 A 
HETATM   24  C15 UNL     1      16.475  -1.761  52.547  1.00  0.00     0.009 A 
HETATM   25  C16 UNL     1      15.533  -1.527  51.582  1.00  0.00     0.004 A 
HETATM   26  C17 UNL     1      15.892  -0.691  50.559  1.00  0.00     0.042 A 
HETATM   27  C18 UNL     1      17.122  -0.123  50.507  1.00  0.00     0.117 A 
HETATM   28  F1  UNL     1      17.439   0.714  49.462  1.00  0.00    -0.206 F 
HETATM   29  C19 UNL     1      18.044  -0.383  51.500  1.00  0.00     0.051 A 
ENDBRANCH  22  23
ENDBRANCH  21  22
ENDBRANCH   4  21
TORSDOF 9
ENDMDL
MODEL 5
REMARK VINA RESULT:      -7.5      4.989      9.815
REMARK  9 active torsions:
REMARK  status: ('A' for Active; 'I' for Inactive)
REMARK    1  A    between atoms: N1_2  and  C2_3 
REMARK    2  A    between atoms: C2_3  and  C3_4 
REMARK    3  A    between atoms: C3_4  and  C4_5 
REMARK    4  A    between atoms: C4_5  and  C5_6 
REMARK    5  A    between atoms: C8_11  and  N4_12 
REMARK    6  A    between atoms: N4_12  and  C9_13 
REMARK    7  A    between atoms: C12_16  and  O1_17 
REMARK    8  A    between atoms: O1_17  and  C13_18 
REMARK    9  A    between atoms: C13_18  and  C14_19 
ROOT
HETATM    1  C9  UNL     1      24.745   1.372  52.070  1.00  0.00     0.033 A 
HETATM    2  C10 UNL     1      26.138   1.379  51.867  1.00  0.00     0.032 A 
HETATM    3  C11 UNL     1      26.657   2.347  51.052  1.00  0.00     0.039 A 
HETATM    4  C12 UNL     1      25.859   3.254  50.470  1.00  0.00     0.069 A 
HETATM    5  C20 UNL     1      24.480   3.349  50.597  1.00  0.00     0.039 A 
HETATM    6  C21 UNL     1      23.955   2.349  51.438  1.00  0.00     0.032 A 
ENDROOT
BRANCH   1   7
HETATM    7  N4  UNL     1      23.785   0.612  52.718  1.00  0.00    -0.341 N 
HETATM    8  H13 UNL     1      24.554   0.175  53.338  1.00  0.00     0.167 HD
BRANCH   7   9
HETATM    9  C8  UNL     1      22.925  -0.203  53.441  1.00  0.00     0.137 A 
HETATM   10  C5  UNL     1      21.580  -0.478  53.310  1.00  0.00     0.005 A 
HETATM   11  C6  UNL     1      20.931  -1.321  54.166  1.00  0.00     0.129 A 
HETATM   12  N2  UNL     1      21.671  -1.864  55.133  1.00  0.00    -0.253 NA
HETATM   13  C7  UNL     1      22.972  -1.656  55.335  1.00  0.00     0.234 A 
HETATM   14  N3  UNL     1      23.583  -0.818  54.472  1.00  0.00    -0.224 NA
BRANCH  10  15
HETATM   15  C4  UNL     1      20.885   0.169  52.107  1.00  0.00     0.045 C 
BRANCH  15  16
HETATM   16  C3  UNL     1      20.249   1.427  52.609  1.00  0.00     0.024 C 
BRANCH  16  17
HETATM   17  C2  UNL     1      20.061   2.531  51.621  1.00  0.00     0.113 C 
BRANCH  17  18
HETATM   18  N1  UNL     1      20.490   3.814  52.007  1.00  0.00    -0.425 N 
HETATM   19  C1  UNL     1      20.896   4.652  50.937  1.00  0.00     0.139 C 
HETATM   20  H4  UNL     1      19.947   4.263  52.762  1.00  0.00     0.152 HD
ENDBRANCH  17  18
ENDBRANCH  16  17
ENDBRANCH  15  16
ENDBRANCH  10  15
ENDBRANCH   7   9
ENDBRANCH   1   7
BRANCH   4  21
HETATM   21  O1  UNL     1      26.635   4.095  49.713  1.00  0.00    -0.347 OA
BRANCH  21  22
HETATM   22  C13 UNL     1      26.264   5.259  49.050  1.00  0.00     0.214 C 
BRANCH  22  23
HETATM   23  C14 UNL     1      27.419   5.923  48.408  1.00  0.00    -0.031 A 
HETATM   24  C15 UNL     1      27.498   7.178  47.857  1.00  0.00     0.009 A 
HETATM   25  C16 UNL     1      28.640   7.723  47.334  1.00  0.00     0.004 A 
HETATM   26  C17 UNL     1      29.768   6.947  47.372  1.00  0.00     0.042 A 
HETATM   27  C18 UNL     1      29.751   5.700  47.902  1.00  0.00     0.117 A 
HETATM   28  F1  UNL     1      30.909   4.956  47.922  1.00  0.00    -0.206 F 
HETATM   29  C19 UNL     1      28.580   5.186  48.421  1.00  0.00     0.051 A 
ENDBRANCH  22  23
ENDBRANCH  21  22
ENDBRANCH   4  21
TORSDOF 9
ENDMDL
MODEL 6
REMARK VINA RESULT:      -7.5      4.368      7.382
REMARK  9 active torsions:
REMARK  status: ('A' for Active; 'I' for Inactive)
REMARK    1  A    between atoms: N1_2  and  C2_3 
REMARK    2  A    between atoms: C2_3  and  C3_4 
REMARK    3  A    between atoms: C3_4  and  C4_5 
REMARK    4  A    between atoms: C4_5  and  C5_6 
REMARK    5  A    between atoms: C8_11  and  N4_12 
REMARK    6  A    between atoms: N4_12  and  C9_13 
REMARK    7  A    between atoms: C12_16  and  O1_17 
REMARK    8  A    between atoms: O1_17  and  C13_18 
REMARK    9  A    between atoms: C13_18  and  C14_19 
ROOT
HETATM    1  C9  UNL     1      26.805   4.430  49.283  1.00  0.00     0.033 A 
HETATM    2  C10 UNL     1      26.600   3.149  49.830  1.00  0.00     0.032 A 
HETATM    3  C11 UNL     1      25.366   2.869  50.350  1.00  0.00     0.039 A 
HETATM    4  C12 UNL     1      24.391   3.790  50.336  1.00  0.00     0.069 A 
HETATM    5  C20 UNL     1      24.473   5.078  49.824  1.00  0.00     0.039 A 
HETATM    6  C21 UNL     1      25.746   5.356  49.291  1.00  0.00     0.032 A 
ENDROOT
BRANCH   1   7
HETATM    7  N4  UNL     1      27.827   5.178  48.720  1.00  0.00    -0.341 N 
HETATM    8  H13 UNL     1      28.149   4.311  48.162  1.00  0.00     0.167 HD
BRANCH   7   9
HETATM    9  C8  UNL     1      28.888   5.813  48.091  1.00  0.00     0.137 A 
HETATM   10  C5  UNL     1      28.972   6.990  47.377  1.00  0.00     0.005 A 
HETATM   11  C6  UNL     1      30.147   7.416  46.828  1.00  0.00     0.129 A 
HETATM   12  N2  UNL     1      31.208   6.631  47.023  1.00  0.00    -0.253 NA
HETATM   13  C7  UNL     1      31.219   5.482  47.698  1.00  0.00     0.234 A 
HETATM   14  N3  UNL     1      30.042   5.089  48.226  1.00  0.00    -0.224 NA
BRANCH  10  15
HETATM   15  C4  UNL     1      27.682   7.812  47.301  1.00  0.00     0.045 C 
BRANCH  15  16
HETATM   16  C3  UNL     1      27.983   9.135  47.933  1.00  0.00     0.024 C 
BRANCH  16  17
HETATM   17  C2  UNL     1      28.016   9.181  49.425  1.00  0.00     0.113 C 
BRANCH  17  18
HETATM   18  N1  UNL     1      29.269   9.397  50.030  1.00  0.00    -0.425 N 
HETATM   19  C1  UNL     1      30.167  10.188  49.268  1.00  0.00     0.139 C 
HETATM   20  H4  UNL     1      29.255   9.570  51.048  1.00  0.00     0.152 HD
ENDBRANCH  17  18
ENDBRANCH  16  17
ENDBRANCH  15  16
ENDBRANCH  10  15
ENDBRANCH   7   9
ENDBRANCH   1   7
BRANCH   4  21
HETATM   21  O1  UNL     1      23.273   3.248  50.918  1.00  0.00    -0.347 OA
BRANCH  21  22
HETATM   22  C13 UNL     1      22.981   3.102  52.269  1.00  0.00     0.214 C 
BRANCH  22  23
HETATM   23  C14 UNL     1      22.887   1.680  52.665  1.00  0.00    -0.031 A 
HETATM   24  C15 UNL     1      23.893   0.808  52.999  1.00  0.00     0.009 A 
HETATM   25  C16 UNL     1      23.694  -0.483  53.408  1.00  0.00     0.004 A 
HETATM   26  C17 UNL     1      22.397  -0.915  53.481  1.00  0.00     0.042 A 
HETATM   27  C18 UNL     1      21.361  -0.100  53.161  1.00  0.00     0.117 A 
HETATM   28  F1  UNL     1      20.073  -0.574  53.251  1.00  0.00    -0.206 F 
HETATM   29  C19 UNL     1      21.603   1.196  52.754  1.00  0.00     0.051 A 
ENDBRANCH  22  23
ENDBRANCH  21  22
ENDBRANCH   4  21
TORSDOF 9
ENDMDL
MODEL 7
REMARK VINA RESULT:      -7.4      5.952     11.205
REMARK  9 active torsions:
REMARK  status: ('A' for Active; 'I' for Inactive)
REMARK    1  A    between atoms: N1_2  and  C2_3 
REMARK    2  A    between atoms: C2_3  and  C3_4 
REMARK    3  A    between atoms: C3_4  and  C4_5 
REMARK    4  A    between atoms: C4_5  and  C5_6 
REMARK    5  A    between atoms: C8_11  and  N4_12 
REMARK    6  A    between atoms: N4_12  and  C9_13 
REMARK    7  A    between atoms: C12_16  and  O1_17 
REMARK    8  A    between atoms: O1_17  and  C13_18 
REMARK    9  A    between atoms: C13_18  and  C14_19 
ROOT
HETATM    1  C9  UNL     1      25.203   3.817  50.486  1.00  0.00     0.033 A 
HETATM    2  C10 UNL     1      24.740   5.135  50.305  1.00  0.00     0.032 A 
HETATM    3  C11 UNL     1      25.469   5.959  49.493  1.00  0.00     0.039 A 
HETATM    4  C12 UNL     1      26.585   5.520  48.894  1.00  0.00     0.069 A 
HETATM    5  C20 UNL     1      27.136   4.249  48.993  1.00  0.00     0.039 A 
HETATM    6  C21 UNL     1      26.379   3.408  49.831  1.00  0.00     0.032 A 
ENDROOT
BRANCH   1   7
HETATM    7  N4  UNL     1      24.876   2.682  51.210  1.00  0.00    -0.341 N 
HETATM    8  H13 UNL     1      25.564   2.983  51.986  1.00  0.00     0.167 HD
BRANCH   7   9
HETATM    9  C8  UNL     1      24.639   1.586  52.028  1.00  0.00     0.137 A 
HETATM   10  C5  UNL     1      25.467   0.597  52.515  1.00  0.00     0.005 A 
HETATM   11  C6  UNL     1      24.996  -0.408  53.310  1.00  0.00     0.129 A 
HETATM   12  N2  UNL     1      23.692  -0.378  53.588  1.00  0.00    -0.253 NA
HETATM   13  C7  UNL     1      22.820   0.536  53.162  1.00  0.00     0.234 A 
HETATM   14  N3  UNL     1      23.317   1.514  52.379  1.00  0.00    -0.224 NA
BRANCH  10  15
HETATM   15  C4  UNL     1      26.950   0.742  52.163  1.00  0.00     0.045 C 
BRANCH  15  16
HETATM   16  C3  UNL     1      27.598   1.430  53.324  1.00  0.00     0.024 C 
BRANCH  16  17
HETATM   17  C2  UNL     1      28.810   0.781  53.906  1.00  0.00     0.113 C 
BRANCH  17  18
HETATM   18  N1  UNL     1      28.701  -0.578  54.254  1.00  0.00    -0.425 N 
HETATM   19  C1  UNL     1      29.581  -1.443  53.553  1.00  0.00     0.139 C 
HETATM   20  H4  UNL     1      28.565  -0.777  55.258  1.00  0.00     0.152 HD
ENDBRANCH  17  18
ENDBRANCH  16  17
ENDBRANCH  15  16
ENDBRANCH  10  15
ENDBRANCH   7   9
ENDBRANCH   1   7
BRANCH   4  21
HETATM   21  O1  UNL     1      27.111   6.545  48.148  1.00  0.00    -0.347 OA
BRANCH  21  22
HETATM   22  C13 UNL     1      27.419   7.841  48.547  1.00  0.00     0.214 C 
BRANCH  22  23
HETATM   23  C14 UNL     1      28.875   8.037  48.716  1.00  0.00    -0.031 A 
HETATM   24  C15 UNL     1      29.905   7.186  48.400  1.00  0.00     0.009 A 
HETATM   25  C16 UNL     1      31.232   7.488  48.546  1.00  0.00     0.004 A 
HETATM   26  C17 UNL     1      31.531   8.728  49.043  1.00  0.00     0.042 A 
HETATM   27  C18 UNL     1      30.558   9.612  49.375  1.00  0.00     0.117 A 
HETATM   28  F1  UNL     1      30.904  10.848  49.869  1.00  0.00    -0.206 F 
HETATM   29  C19 UNL     1      29.231   9.269  49.213  1.00  0.00     0.051 A 
ENDBRANCH  22  23
ENDBRANCH  21  22
ENDBRANCH   4  21
TORSDOF 9
ENDMDL
MODEL 8
REMARK VINA RESULT:      -7.4      4.634      9.714
REMARK  9 active torsions:
REMARK  status: ('A' for Active; 'I' for Inactive)
REMARK    1  A    between atoms: N1_2  and  C2_3 
REMARK    2  A    between atoms: C2_3  and  C3_4 
REMARK    3  A    between atoms: C3_4  and  C4_5 
REMARK    4  A    between atoms: C4_5  and  C5_6 
REMARK    5  A    between atoms: C8_11  and  N4_12 
REMARK    6  A    between atoms: N4_12  and  C9_13 
REMARK    7  A    between atoms: C12_16  and  O1_17 
REMARK    8  A    between atoms: O1_17  and  C13_18 
REMARK    9  A    between atoms: C13_18  and  C14_19 
ROOT
HETATM    1  C9  UNL     1      21.798   1.510  51.769  1.00  0.00     0.033 A 
HETATM    2  C10 UNL     1      23.104   1.995  51.566  1.00  0.00     0.032 A 
HETATM    3  C11 UNL     1      24.128   1.346  52.197  1.00  0.00     0.039 A 
HETATM    4  C12 UNL     1      23.888   0.285  52.981  1.00  0.00     0.069 A 
HETATM    5  C20 UNL     1      22.651  -0.284  53.253  1.00  0.00     0.039 A 
HETATM    6  C21 UNL     1      21.603   0.391  52.599  1.00  0.00     0.032 A 
ENDROOT
BRANCH   1   7
HETATM    7  N4  UNL     1      20.495   1.831  51.423  1.00  0.00    -0.341 N 
HETATM    8  H13 UNL     1      20.782   2.868  51.320  1.00  0.00     0.167 HD
BRANCH   7   9
HETATM    9  C8  UNL     1      19.232   2.283  51.067  1.00  0.00     0.137 A 
HETATM   10  C5  UNL     1      18.077   1.619  50.709  1.00  0.00     0.005 A 
HETATM   11  C6  UNL     1      16.934   2.290  50.382  1.00  0.00     0.129 A 
HETATM   12  N2  UNL     1      16.997   3.621  50.428  1.00  0.00    -0.253 NA
HETATM   13  C7  UNL     1      18.066   4.344  50.761  1.00  0.00     0.234 A 
HETATM   14  N3  UNL     1      19.179   3.651  51.079  1.00  0.00    -0.224 NA
BRANCH  10  15
HETATM   15  C4  UNL     1      18.145   0.090  50.772  1.00  0.00     0.045 C 
BRANCH  15  16
HETATM   16  C3  UNL     1      17.464  -0.314  52.043  1.00  0.00     0.024 C 
BRANCH  16  17
HETATM   17  C2  UNL     1      18.277  -1.084  53.031  1.00  0.00     0.113 C 
BRANCH  17  18
HETATM   18  N1  UNL     1      17.574  -1.878  53.956  1.00  0.00    -0.425 N 
HETATM   19  C1  UNL     1      17.540  -3.262  53.645  1.00  0.00     0.139 C 
HETATM   20  H4  UNL     1      17.703  -1.634  54.950  1.00  0.00     0.152 HD
ENDBRANCH  17  18
ENDBRANCH  16  17
ENDBRANCH  15  16
ENDBRANCH  10  15
ENDBRANCH   7   9
ENDBRANCH   1   7
BRANCH   4  21
HETATM   21  O1  UNL     1      25.084  -0.164  53.484  1.00  0.00    -0.347 OA
BRANCH  21  22
HETATM   22  C13 UNL     1      26.025  -0.990  52.880  1.00  0.00     0.214 C 
BRANCH  22  23
HETATM   23  C14 UNL     1      27.409  -0.572  53.192  1.00  0.00    -0.031 A 
HETATM   24  C15 UNL     1      28.547  -1.337  53.265  1.00  0.00     0.009 A 
HETATM   25  C16 UNL     1      29.799  -0.840  53.509  1.00  0.00     0.004 A 
HETATM   26  C17 UNL     1      29.902   0.514  53.689  1.00  0.00     0.042 A 
HETATM   27  C18 UNL     1      28.814   1.320  53.630  1.00  0.00     0.117 A 
HETATM   28  F1  UNL     1      28.963   2.675  53.815  1.00  0.00    -0.206 F 
HETATM   29  C19 UNL     1      27.568   0.780  53.382  1.00  0.00     0.051 A 
ENDBRANCH  22  23
ENDBRANCH  21  22
ENDBRANCH   4  21
TORSDOF 9
ENDMDL
MODEL 9
REMARK VINA RESULT:      -7.4      4.521      9.219
REMARK  9 active torsions:
REMARK  status: ('A' for Active; 'I' for Inactive)
REMARK    1  A    between atoms: N1_2  and  C2_3 
REMARK    2  A    between atoms: C2_3  and  C3_4 
REMARK    3  A    between atoms: C3_4  and  C4_5 
REMARK    4  A    between atoms: C4_5  and  C5_6 
REMARK    5  A    between atoms: C8_11  and  N4_12 
REMARK    6  A    between atoms: N4_12  and  C9_13 
REMARK    7  A    between atoms: C12_16  and  O1_17 
REMARK    8  A    between atoms: O1_17  and  C13_18 
REMARK    9  A    between atoms: C13_18  and  C14_19 
ROOT
HETATM    1  C9  UNL     1      20.686  -0.812  53.582  1.00  0.00     0.033 A 
HETATM    2  C10 UNL     1      21.539  -1.247  54.614  1.00  0.00     0.032 A 
HETATM    3  C11 UNL     1      22.860  -0.901  54.536  1.00  0.00     0.039 A 
HETATM    4  C12 UNL     1      23.319  -0.173  53.507  1.00  0.00     0.069 A 
HETATM    5  C20 UNL     1      22.578   0.313  52.439  1.00  0.00     0.039 A 
HETATM    6  C21 UNL     1      21.220  -0.048  52.529  1.00  0.00     0.032 A 
ENDROOT
BRANCH   1   7
HETATM    7  N4  UNL     1      19.363  -0.939  53.193  1.00  0.00    -0.341 N 
HETATM    8  H13 UNL     1      19.333  -1.927  53.629  1.00  0.00     0.167 HD
BRANCH   7   9
HETATM    9  C8  UNL     1      18.039  -1.192  52.858  1.00  0.00     0.137 A 
HETATM   10  C5  UNL     1      17.095  -0.445  52.185  1.00  0.00     0.005 A 
HETATM   11  C6  UNL     1      15.826  -0.906  51.981  1.00  0.00     0.129 A 
HETATM   12  N2  UNL     1      15.553  -2.117  52.467  1.00  0.00    -0.253 NA
HETATM   13  C7  UNL     1      16.400  -2.906  53.127  1.00  0.00     0.234 A 
HETATM   14  N3  UNL     1      17.645  -2.421  53.313  1.00  0.00    -0.224 NA
BRANCH  10  15
HETATM   15  C4  UNL     1      17.584   0.895  51.628  1.00  0.00     0.045 C 
BRANCH  15  16
HETATM   16  C3  UNL     1      18.210   0.601  50.300  1.00  0.00     0.024 C 
BRANCH  16  17
HETATM   17  C2  UNL     1      19.054   1.675  49.697  1.00  0.00     0.113 C 
BRANCH  17  18
HETATM   18  N1  UNL     1      20.215   1.268  49.014  1.00  0.00    -0.425 N 
HETATM   19  C1  UNL     1      20.847   2.288  48.256  1.00  0.00     0.139 C 
HETATM   20  H4  UNL     1      20.838   0.624  49.528  1.00  0.00     0.152 HD
ENDBRANCH  17  18
ENDBRANCH  16  17
ENDBRANCH  15  16
ENDBRANCH  10  15
ENDBRANCH   7   9
ENDBRANCH   1   7
BRANCH   4  21
HETATM   21  O1  UNL     1      24.666   0.023  53.680  1.00  0.00    -0.347 OA
BRANCH  21  22
HETATM   22  C13 UNL     1      25.722  -0.505  52.947  1.00  0.00     0.214 C 
BRANCH  22  23
HETATM   23  C14 UNL     1      26.996   0.190  53.230  1.00  0.00    -0.031 A 
HETATM   24  C15 UNL     1      27.234   1.535  53.367  1.00  0.00     0.009 A 
HETATM   25  C16 UNL     1      28.450   2.077  53.688  1.00  0.00     0.004 A 
HETATM   26  C17 UNL     1      29.485   1.202  53.879  1.00  0.00     0.042 A 
HETATM   27  C18 UNL     1      29.311  -0.137  53.757  1.00  0.00     0.117 A 
HETATM   28  F1  UNL     1      30.378  -0.981  53.961  1.00  0.00    -0.206 F 
HETATM   29  C19 UNL     1      28.069  -0.645  53.433  1.00  0.00     0.051 A 
ENDBRANCH  22  23
ENDBRANCH  21  22
ENDBRANCH   4  21
TORSDOF 9
ENDMDL
