MODEL 1
REMARK VINA RESULT:      -7.8      0.000      0.000
REMARK  7 active torsions:
REMARK  status: ('A' for Active; 'I' for Inactive)
REMARK    1  A    between atoms: C6_8  and  N3_9 
REMARK    2  A    between atoms: N3_9  and  C7_10 
REMARK    3  A    between atoms: C15_20  and  O1_21 
REMARK    4  A    between atoms: O1_21  and  C16_22 
REMARK    5  A    between atoms: C16_22  and  C17_23 
REMARK    6  A    between atoms: C17_23  and  N4_24 
REMARK    7  A    between atoms: N4_24  and  C18_25 
ROOT
HETATM    1  C1  UNL     1      20.774   2.268  49.585  1.00  0.00     0.051 C 
HETATM    2  C2  UNL     1      22.112   2.375  50.282  1.00  0.00    -0.026 A 
HETATM    3  C3  UNL     1      23.167   2.781  49.453  1.00  0.00     0.042 A 
HETATM    4  C4  UNL     1      24.381   2.890  50.060  1.00  0.00     0.072 A 
HETATM    5  N1  UNL     1      25.391   3.278  49.230  1.00  0.00    -0.241 NA
HETATM    6  C5  UNL     1      26.621   3.399  49.764  1.00  0.00     0.236 A 
HETATM    7  N2  UNL     1      26.870   3.151  51.078  1.00  0.00    -0.224 NA
HETATM    8  C6  UNL     1      25.891   2.770  51.919  1.00  0.00     0.142 A 
HETATM    9  C13 UNL     1      24.613   2.636  51.391  1.00  0.00     0.041 A 
HETATM   10  C14 UNL     1      23.548   2.244  52.160  1.00  0.00     0.055 A 
HETATM   11  C15 UNL     1      22.277   2.099  51.650  1.00  0.00     0.075 A 
ENDROOT
BRANCH   8  12
HETATM   12  N3  UNL     1      26.165   2.532  53.323  1.00  0.00    -0.340 N 
HETATM   13  H6  UNL     1      25.737   2.967  54.135  1.00  0.00     0.167 HD
BRANCH  12  14
HETATM   14  C7  UNL     1      27.203   1.526  53.382  1.00  0.00     0.035 A 
HETATM   15  C8  UNL     1      28.518   1.686  53.742  1.00  0.00     0.032 A 
HETATM   16  C9  UNL     1      29.358   0.580  53.715  1.00  0.00     0.046 A 
HETATM   17  C10 UNL     1      28.915  -0.659  53.342  1.00  0.00     0.138 A 
HETATM   18  F1  UNL     1      29.736  -1.753  53.310  1.00  0.00    -0.204 F 
HETATM   19  C11 UNL     1      27.605  -0.879  52.970  1.00  0.00     0.074 A 
HETATM   20 CL1  UNL     1      26.981  -2.450  52.485  1.00  0.00    -0.081 Cl
HETATM   21  C12 UNL     1      26.788   0.249  53.008  1.00  0.00     0.056 A 
ENDBRANCH  12  14
ENDBRANCH   8  12
BRANCH  11  22
HETATM   22  O1  UNL     1      21.180   1.749  52.202  1.00  0.00    -0.349 OA
BRANCH  22  23
HETATM   23  C16 UNL     1      20.056   1.395  52.768  1.00  0.00     0.205 C 
BRANCH  23  24
HETATM   24  C17 UNL     1      20.062   0.094  53.585  1.00  0.00     0.296 C 
BRANCH  24  25
HETATM   25  N4  UNL     1      21.208  -0.030  54.436  1.00  0.00     0.089 N 
HETATM   26  H15 UNL     1      21.846   0.765  54.174  1.00  0.00     0.316 HD
BRANCH  25  27
HETATM   27  C18 UNL     1      21.963  -1.236  54.291  1.00  0.00     0.212 C 
HETATM   28  C19 UNL     1      22.983  -1.272  55.432  1.00  0.00     0.042 C 
HETATM   29  C20 UNL     1      22.758  -1.295  53.010  1.00  0.00     0.042 C 
ENDBRANCH  25  27
ENDBRANCH  24  25
ENDBRANCH  23  24
ENDBRANCH  22  23
ENDBRANCH  11  22
TORSDOF 7
ENDMDL
MODEL 2
REMARK VINA RESULT:      -7.7      2.248      4.797
REMARK  7 active torsions:
REMARK  status: ('A' for Active; 'I' for Inactive)
REMARK    1  A    between atoms: C6_8  and  N3_9 
REMARK    2  A    between atoms: N3_9  and  C7_10 
REMARK    3  A    between atoms: C15_20  and  O1_21 
REMARK    4  A    between atoms: O1_21  and  C16_22 
REMARK    5  A    between atoms: C16_22  and  C17_23 
REMARK    6  A    between atoms: C17_23  and  N4_24 
REMARK    7  A    between atoms: N4_24  and  C18_25 
ROOT
HETATM    1  C1  UNL     1      18.437  -0.702  52.806  1.00  0.00     0.051 C 
HETATM    2  C2  UNL     1      19.930  -0.511  52.946  1.00  0.00    -0.026 A 
HETATM    3  C3  UNL     1      20.492  -1.128  54.073  1.00  0.00     0.042 A 
HETATM    4  C4  UNL     1      21.837  -0.974  54.216  1.00  0.00     0.072 A 
HETATM    5  N1  UNL     1      22.357  -1.576  55.324  1.00  0.00    -0.241 NA
HETATM    6  C5  UNL     1      23.682  -1.457  55.531  1.00  0.00     0.236 A 
HETATM    7  N2  UNL     1      24.491  -0.769  54.682  1.00  0.00    -0.224 NA
HETATM    8  C6  UNL     1      24.005  -0.168  53.580  1.00  0.00     0.142 A 
HETATM    9  C13 UNL     1      22.639  -0.275  53.345  1.00  0.00     0.041 A 
HETATM   10  C14 UNL     1      22.043   0.308  52.258  1.00  0.00     0.055 A 
HETATM   11  C15 UNL     1      20.690   0.218  52.016  1.00  0.00     0.075 A 
ENDROOT
BRANCH   8  12
HETATM   12  N3  UNL     1      24.882   0.542  52.669  1.00  0.00    -0.340 N 
HETATM   13  H6  UNL     1      24.645   1.262  51.994  1.00  0.00     0.167 HD
BRANCH  12  14
HETATM   14  C7  UNL     1      26.217   0.026  52.888  1.00  0.00     0.035 A 
HETATM   15  C8  UNL     1      26.690  -1.236  52.629  1.00  0.00     0.032 A 
HETATM   16  C9  UNL     1      28.014  -1.528  52.931  1.00  0.00     0.046 A 
HETATM   17  C10 UNL     1      28.857  -0.599  53.476  1.00  0.00     0.138 A 
HETATM   18  F1  UNL     1      30.161  -0.880  53.779  1.00  0.00    -0.204 F 
HETATM   19  C11 UNL     1      28.436   0.684  53.757  1.00  0.00     0.074 A 
HETATM   20 CL1  UNL     1      29.476   1.919  54.454  1.00  0.00    -0.081 Cl
HETATM   21  C12 UNL     1      27.104   0.946  53.443  1.00  0.00     0.056 A 
ENDBRANCH  12  14
ENDBRANCH   8  12
BRANCH  11  22
HETATM   22  O1  UNL     1      19.968   0.687  51.072  1.00  0.00    -0.349 OA
BRANCH  22  23
HETATM   23  C16 UNL     1      19.230   1.171  50.108  1.00  0.00     0.205 C 
BRANCH  23  24
HETATM   24  C17 UNL     1      19.928   2.066  49.072  1.00  0.00     0.296 C 
BRANCH  24  25
HETATM   25  N4  UNL     1      20.942   2.902  49.645  1.00  0.00     0.089 N 
HETATM   26  H15 UNL     1      20.687   3.887  49.373  1.00  0.00     0.316 HD
BRANCH  25  27
HETATM   27  C18 UNL     1      22.274   2.672  49.179  1.00  0.00     0.212 C 
HETATM   28  C19 UNL     1      22.883   4.038  48.855  1.00  0.00     0.042 C 
HETATM   29  C20 UNL     1      22.332   1.869  47.903  1.00  0.00     0.042 C 
ENDBRANCH  25  27
ENDBRANCH  24  25
ENDBRANCH  23  24
ENDBRANCH  22  23
ENDBRANCH  11  22
TORSDOF 7
ENDMDL
MODEL 3
REMARK VINA RESULT:      -7.7      4.100      6.381
REMARK  7 active torsions:
REMARK  status: ('A' for Active; 'I' for Inactive)
REMARK    1  A    between atoms: C6_8  and  N3_9 
REMARK    2  A    between atoms: N3_9  and  C7_10 
REMARK    3  A    between atoms: C15_20  and  O1_21 
REMARK    4  A    between atoms: O1_21  and  C16_22 
REMARK    5  A    between atoms: C16_22  and  C17_23 
REMARK    6  A    between atoms: C17_23  and  N4_24 
REMARK    7  A    between atoms: N4_24  and  C18_25 
ROOT
HETATM    1  C1  UNL     1      22.345  -0.919  53.042  1.00  0.00     0.051 C 
HETATM    2  C2  UNL     1      22.535   0.562  52.800  1.00  0.00    -0.026 A 
HETATM    3  C3  UNL     1      21.420   1.209  52.250  1.00  0.00     0.042 A 
HETATM    4  C4  UNL     1      21.566   2.544  52.029  1.00  0.00     0.072 A 
HETATM    5  N1  UNL     1      20.470   3.147  51.485  1.00  0.00    -0.241 NA
HETATM    6  C5  UNL     1      20.548   4.468  51.235  1.00  0.00     0.236 A 
HETATM    7  N2  UNL     1      21.667   5.193  51.506  1.00  0.00    -0.224 NA
HETATM    8  C6  UNL     1      22.760   4.623  52.044  1.00  0.00     0.142 A 
HETATM    9  C13 UNL     1      22.705   3.261  52.311  1.00  0.00     0.041 A 
HETATM   10  C14 UNL     1      23.767   2.583  52.850  1.00  0.00     0.055 A 
HETATM   11  C15 UNL     1      23.730   1.232  53.112  1.00  0.00     0.075 A 
ENDROOT
BRANCH   8  12
HETATM   12  N3  UNL     1      23.938   5.413  52.351  1.00  0.00    -0.340 N 
HETATM   13  H6  UNL     1      24.264   5.740  53.255  1.00  0.00     0.167 HD
BRANCH  12  14
HETATM   14  C7  UNL     1      24.603   5.676  51.092  1.00  0.00     0.035 A 
HETATM   15  C8  UNL     1      25.094   4.767  50.187  1.00  0.00     0.032 A 
HETATM   16  C9  UNL     1      25.716   5.237  49.039  1.00  0.00     0.046 A 
HETATM   17  C10 UNL     1      25.855   6.573  48.783  1.00  0.00     0.138 A 
HETATM   18  F1  UNL     1      26.469   7.045  47.655  1.00  0.00    -0.204 F 
HETATM   19  C11 UNL     1      25.382   7.531  49.655  1.00  0.00     0.074 A 
HETATM   20 CL1  UNL     1      25.529   9.262  49.376  1.00  0.00    -0.081 Cl
HETATM   21  C12 UNL     1      24.762   7.028  50.798  1.00  0.00     0.056 A 
ENDBRANCH  12  14
ENDBRANCH   8  12
BRANCH  11  22
HETATM   22  O1  UNL     1      24.606   0.443  53.604  1.00  0.00    -0.349 OA
BRANCH  22  23
HETATM   23  C16 UNL     1      25.504  -0.362  54.108  1.00  0.00     0.205 C 
BRANCH  23  24
HETATM   24  C17 UNL     1      26.675   0.282  54.868  1.00  0.00     0.296 C 
BRANCH  24  25
HETATM   25  N4  UNL     1      27.888  -0.476  54.776  1.00  0.00     0.089 N 
HETATM   26  H15 UNL     1      28.085  -0.820  55.751  1.00  0.00     0.316 HD
BRANCH  25  27
HETATM   27  C18 UNL     1      29.044   0.251  54.348  1.00  0.00     0.212 C 
HETATM   28  C19 UNL     1      28.555   1.391  53.452  1.00  0.00     0.042 C 
HETATM   29  C20 UNL     1      29.993  -0.570  53.511  1.00  0.00     0.042 C 
ENDBRANCH  25  27
ENDBRANCH  24  25
ENDBRANCH  23  24
ENDBRANCH  22  23
ENDBRANCH  11  22
TORSDOF 7
ENDMDL
MODEL 4
REMARK VINA RESULT:      -7.4      4.911      8.494
REMARK  7 active torsions:
REMARK  status: ('A' for Active; 'I' for Inactive)
REMARK    1  A    between atoms: C6_8  and  N3_9 
REMARK    2  A    between atoms: N3_9  and  C7_10 
REMARK    3  A    between atoms: C15_20  and  O1_21 
REMARK    4  A    between atoms: O1_21  and  C16_22 
REMARK    5  A    between atoms: C16_22  and  C17_23 
REMARK    6  A    between atoms: C17_23  and  N4_24 
REMARK    7  A    between atoms: N4_24  and  C18_25 
ROOT
HETATM    1  C1  UNL     1      30.050   7.691  47.776  1.00  0.00     0.051 C 
HETATM    2  C2  UNL     1      28.881   6.841  48.218  1.00  0.00    -0.026 A 
HETATM    3  C3  UNL     1      27.753   7.569  48.623  1.00  0.00     0.042 A 
HETATM    4  C4  UNL     1      26.685   6.824  49.020  1.00  0.00     0.072 A 
HETATM    5  N1  UNL     1      25.605   7.556  49.416  1.00  0.00    -0.241 NA
HETATM    6  C5  UNL     1      24.515   6.882  49.828  1.00  0.00     0.236 A 
HETATM    7  N2  UNL     1      24.469   5.523  49.856  1.00  0.00    -0.224 NA
HETATM    8  C6  UNL     1      25.520   4.776  49.468  1.00  0.00     0.142 A 
HETATM    9  C13 UNL     1      26.657   5.449  49.040  1.00  0.00     0.041 A 
HETATM   10  C14 UNL     1      27.784   4.783  48.633  1.00  0.00     0.055 A 
HETATM   11  C15 UNL     1      28.922   5.436  48.214  1.00  0.00     0.075 A 
ENDROOT
BRANCH   8  12
HETATM   12  N3  UNL     1      25.450   3.328  49.479  1.00  0.00    -0.340 N 
HETATM   13  H6  UNL     1      25.404   2.689  48.691  1.00  0.00     0.167 HD
BRANCH  12  14
HETATM   14  C7  UNL     1      25.450   2.920  50.868  1.00  0.00     0.035 A 
HETATM   15  C8  UNL     1      24.399   2.922  51.751  1.00  0.00     0.032 A 
HETATM   16  C9  UNL     1      24.622   2.500  53.056  1.00  0.00     0.046 A 
HETATM   17  C10 UNL     1      25.853   2.085  53.484  1.00  0.00     0.138 A 
HETATM   18  F1  UNL     1      26.081   1.671  54.768  1.00  0.00    -0.204 F 
HETATM   19  C11 UNL     1      26.944   2.062  52.641  1.00  0.00     0.074 A 
HETATM   20 CL1  UNL     1      28.547   1.534  53.137  1.00  0.00    -0.081 Cl
HETATM   21  C12 UNL     1      26.688   2.490  51.340  1.00  0.00     0.056 A 
ENDBRANCH  12  14
ENDBRANCH   8  12
BRANCH  11  22
HETATM   22  O1  UNL     1      30.048   4.992  47.806  1.00  0.00    -0.349 OA
BRANCH  22  23
HETATM   23  C16 UNL     1      31.201   4.536  47.391  1.00  0.00     0.205 C 
BRANCH  23  24
HETATM   24  C17 UNL     1      32.408   4.732  48.321  1.00  0.00     0.296 C 
BRANCH  24  25
HETATM   25  N4  UNL     1      33.324   3.630  48.291  1.00  0.00     0.089 N 
HETATM   26  H15 UNL     1      33.395   3.289  49.284  1.00  0.00     0.316 HD
BRANCH  25  27
HETATM   27  C18 UNL     1      34.653   3.938  47.860  1.00  0.00     0.212 C 
HETATM   28  C19 UNL     1      34.739   5.459  47.711  1.00  0.00     0.042 C 
HETATM   29  C20 UNL     1      34.996   3.359  46.510  1.00  0.00     0.042 C 
ENDBRANCH  25  27
ENDBRANCH  24  25
ENDBRANCH  23  24
ENDBRANCH  22  23
ENDBRANCH  11  22
TORSDOF 7
ENDMDL
MODEL 5
REMARK VINA RESULT:      -7.4      3.268      6.778
REMARK  7 active torsions:
REMARK  status: ('A' for Active; 'I' for Inactive)
REMARK    1  A    between atoms: C6_8  and  N3_9 
REMARK    2  A    between atoms: N3_9  and  C7_10 
REMARK    3  A    between atoms: C15_20  and  O1_21 
REMARK    4  A    between atoms: O1_21  and  C16_22 
REMARK    5  A    between atoms: C16_22  and  C17_23 
REMARK    6  A    between atoms: C17_23  and  N4_24 
REMARK    7  A    between atoms: N4_24  and  C18_25 
ROOT
HETATM    1  C1  UNL     1      23.092  -1.522  55.621  1.00  0.00     0.051 C 
HETATM    2  C2  UNL     1      22.577  -0.878  54.354  1.00  0.00    -0.026 A 
HETATM    3  C3  UNL     1      21.180  -0.879  54.229  1.00  0.00     0.042 A 
HETATM    4  C4  UNL     1      20.694  -0.299  53.098  1.00  0.00     0.072 A 
HETATM    5  N1  UNL     1      19.333  -0.321  52.996  1.00  0.00    -0.241 NA
HETATM    6  C5  UNL     1      18.784   0.231  51.897  1.00  0.00     0.236 A 
HETATM    7  N2  UNL     1      19.536   0.795  50.915  1.00  0.00    -0.224 NA
HETATM    8  C6  UNL     1      20.879   0.833  50.991  1.00  0.00     0.142 A 
HETATM    9  C13 UNL     1      21.470   0.268  52.115  1.00  0.00     0.041 A 
HETATM   10  C14 UNL     1      22.830   0.246  52.286  1.00  0.00     0.055 A 
HETATM   11  C15 UNL     1      23.431  -0.317  53.389  1.00  0.00     0.075 A 
ENDROOT
BRANCH   8  12
HETATM   12  N3  UNL     1      21.668   1.459  49.948  1.00  0.00    -0.340 N 
HETATM   13  H6  UNL     1      21.915   1.093  49.034  1.00  0.00     0.167 HD
BRANCH  12  14
HETATM   14  C7  UNL     1      22.071   2.755  50.450  1.00  0.00     0.035 A 
HETATM   15  C8  UNL     1      21.334   3.641  51.198  1.00  0.00     0.032 A 
HETATM   16  C9  UNL     1      21.913   4.848  51.566  1.00  0.00     0.046 A 
HETATM   17  C10 UNL     1      23.190   5.180  51.209  1.00  0.00     0.138 A 
HETATM   18  F1  UNL     1      23.767   6.368  51.565  1.00  0.00    -0.204 F 
HETATM   19  C11 UNL     1      23.977   4.330  50.460  1.00  0.00     0.074 A 
HETATM   20 CL1  UNL     1      25.627   4.703  49.975  1.00  0.00    -0.081 Cl
HETATM   21  C12 UNL     1      23.369   3.127  50.106  1.00  0.00     0.056 A 
ENDBRANCH  12  14
ENDBRANCH   8  12
BRANCH  11  22
HETATM   22  O1  UNL     1      24.660  -0.430  53.716  1.00  0.00    -0.349 OA
BRANCH  22  23
HETATM   23  C16 UNL     1      25.920  -0.546  54.047  1.00  0.00     0.205 C 
BRANCH  23  24
HETATM   24  C17 UNL     1      26.676   0.746  54.392  1.00  0.00     0.296 C 
BRANCH  24  25
HETATM   25  N4  UNL     1      27.918   0.507  55.067  1.00  0.00     0.089 N 
HETATM   26  H15 UNL     1      27.822   0.961  56.012  1.00  0.00     0.316 HD
BRANCH  25  27
HETATM   27  C18 UNL     1      29.079   1.070  54.449  1.00  0.00     0.212 C 
HETATM   28  C19 UNL     1      28.612   2.260  53.608  1.00  0.00     0.042 C 
HETATM   29  C20 UNL     1      29.771   0.124  53.499  1.00  0.00     0.042 C 
ENDBRANCH  25  27
ENDBRANCH  24  25
ENDBRANCH  23  24
ENDBRANCH  22  23
ENDBRANCH  11  22
TORSDOF 7
ENDMDL
MODEL 6
REMARK VINA RESULT:      -7.4      4.008      6.401
REMARK  7 active torsions:
REMARK  status: ('A' for Active; 'I' for Inactive)
REMARK    1  A    between atoms: C6_8  and  N3_9 
REMARK    2  A    between atoms: N3_9  and  C7_10 
REMARK    3  A    between atoms: C15_20  and  O1_21 
REMARK    4  A    between atoms: O1_21  and  C16_22 
REMARK    5  A    between atoms: C16_22  and  C17_23 
REMARK    6  A    between atoms: C17_23  and  N4_24 
REMARK    7  A    between atoms: N4_24  and  C18_25 
ROOT
HETATM    1  C1  UNL     1      22.043  -0.963  53.899  1.00  0.00     0.051 C 
HETATM    2  C2  UNL     1      22.500   0.016  52.840  1.00  0.00    -0.026 A 
HETATM    3  C3  UNL     1      21.494   0.424  51.953  1.00  0.00     0.042 A 
HETATM    4  C4  UNL     1      21.881   1.309  50.994  1.00  0.00     0.072 A 
HETATM    5  N1  UNL     1      20.886   1.682  50.139  1.00  0.00    -0.241 NA
HETATM    6  C5  UNL     1      21.202   2.553  49.161  1.00  0.00     0.236 A 
HETATM    7  N2  UNL     1      22.457   3.053  49.013  1.00  0.00    -0.224 NA
HETATM    8  C6  UNL     1      23.456   2.704  49.844  1.00  0.00     0.142 A 
HETATM    9  C13 UNL     1      23.156   1.806  50.860  1.00  0.00     0.041 A 
HETATM   10  C14 UNL     1      24.103   1.378  51.754  1.00  0.00     0.055 A 
HETATM   11  C15 UNL     1      23.823   0.482  52.761  1.00  0.00     0.075 A 
ENDROOT
BRANCH   8  12
HETATM   12  N3  UNL     1      24.785   3.264  49.689  1.00  0.00    -0.340 N 
HETATM   13  H6  UNL     1      25.648   2.790  49.440  1.00  0.00     0.167 HD
BRANCH  12  14
HETATM   14  C7  UNL     1      24.676   4.681  49.967  1.00  0.00     0.035 A 
HETATM   15  C8  UNL     1      24.148   5.288  51.079  1.00  0.00     0.032 A 
HETATM   16  C9  UNL     1      24.128   6.675  51.137  1.00  0.00     0.046 A 
HETATM   17  C10 UNL     1      24.616   7.452  50.123  1.00  0.00     0.138 A 
HETATM   18  F1  UNL     1      24.598   8.818  50.171  1.00  0.00    -0.204 F 
HETATM   19  C11 UNL     1      25.159   6.897  48.983  1.00  0.00     0.074 A 
HETATM   20 CL1  UNL     1      25.805   7.846  47.650  1.00  0.00    -0.081 Cl
HETATM   21  C12 UNL     1      25.165   5.504  48.955  1.00  0.00     0.056 A 
ENDBRANCH  12  14
ENDBRANCH   8  12
BRANCH  11  22
HETATM   22  O1  UNL     1      24.563  -0.023  53.672  1.00  0.00    -0.349 OA
BRANCH  22  23
HETATM   23  C16 UNL     1      25.322  -0.541  54.602  1.00  0.00     0.205 C 
BRANCH  23  24
HETATM   24  C17 UNL     1      26.594   0.233  54.980  1.00  0.00     0.296 C 
BRANCH  24  25
HETATM   25  N4  UNL     1      27.796  -0.511  54.743  1.00  0.00     0.089 N 
HETATM   26  H15 UNL     1      28.042  -0.958  55.663  1.00  0.00     0.316 HD
BRANCH  25  27
HETATM   27  C18 UNL     1      28.932   0.256  54.334  1.00  0.00     0.212 C 
HETATM   28  C19 UNL     1      28.429   1.330  53.367  1.00  0.00     0.042 C 
HETATM   29  C20 UNL     1      29.959  -0.549  53.578  1.00  0.00     0.042 C 
ENDBRANCH  25  27
ENDBRANCH  24  25
ENDBRANCH  23  24
ENDBRANCH  22  23
ENDBRANCH  11  22
TORSDOF 7
ENDMDL
MODEL 7
REMARK VINA RESULT:      -7.3      3.493      5.603
REMARK  7 active torsions:
REMARK  status: ('A' for Active; 'I' for Inactive)
REMARK    1  A    between atoms: C6_8  and  N3_9 
REMARK    2  A    between atoms: N3_9  and  C7_10 
REMARK    3  A    between atoms: C15_20  and  O1_21 
REMARK    4  A    between atoms: O1_21  and  C16_22 
REMARK    5  A    between atoms: C16_22  and  C17_23 
REMARK    6  A    between atoms: C17_23  and  N4_24 
REMARK    7  A    between atoms: N4_24  and  C18_25 
ROOT
HETATM    1  C1  UNL     1      24.283  -1.433  55.802  1.00  0.00     0.051 C 
HETATM    2  C2  UNL     1      24.730  -0.504  54.696  1.00  0.00    -0.026 A 
HETATM    3  C3  UNL     1      26.028   0.004  54.854  1.00  0.00     0.042 A 
HETATM    4  C4  UNL     1      26.454   0.839  53.867  1.00  0.00     0.072 A 
HETATM    5  N1  UNL     1      27.715   1.326  54.049  1.00  0.00    -0.241 NA
HETATM    6  C5  UNL     1      28.198   2.164  53.112  1.00  0.00     0.236 A 
HETATM    7  N2  UNL     1      27.475   2.524  52.018  1.00  0.00    -0.224 NA
HETATM    8  C6  UNL     1      26.230   2.056  51.813  1.00  0.00     0.142 A 
HETATM    9  C13 UNL     1      25.708   1.191  52.766  1.00  0.00     0.041 A 
HETATM   10  C14 UNL     1      24.447   0.666  52.657  1.00  0.00     0.055 A 
HETATM   11  C15 UNL     1      23.913  -0.186  53.598  1.00  0.00     0.075 A 
ENDROOT
BRANCH   8  12
HETATM   12  N3  UNL     1      25.479   2.429  50.630  1.00  0.00    -0.340 N 
HETATM   13  H6  UNL     1      25.318   1.889  49.785  1.00  0.00     0.167 HD
BRANCH  12  14
HETATM   14  C7  UNL     1      24.973   3.766  50.859  1.00  0.00     0.035 A 
HETATM   15  C8  UNL     1      23.971   4.157  51.712  1.00  0.00     0.032 A 
HETATM   16  C9  UNL     1      23.629   5.502  51.769  1.00  0.00     0.046 A 
HETATM   17  C10 UNL     1      24.260   6.445  51.004  1.00  0.00     0.138 A 
HETATM   18  F1  UNL     1      23.928   7.771  51.052  1.00  0.00    -0.204 F 
HETATM   19  C11 UNL     1      25.273   6.109  50.131  1.00  0.00     0.074 A 
HETATM   20 CL1  UNL     1      26.120   7.279  49.127  1.00  0.00    -0.081 Cl
HETATM   21  C12 UNL     1      25.593   4.753  50.097  1.00  0.00     0.056 A 
ENDBRANCH  12  14
ENDBRANCH   8  12
BRANCH  11  22
HETATM   22  O1  UNL     1      22.777  -0.766  53.665  1.00  0.00    -0.349 OA
BRANCH  22  23
HETATM   23  C16 UNL     1      21.615  -1.360  53.737  1.00  0.00     0.205 C 
BRANCH  23  24
HETATM   24  C17 UNL     1      20.366  -0.465  53.694  1.00  0.00     0.296 C 
BRANCH  24  25
HETATM   25  N4  UNL     1      19.856  -0.275  52.368  1.00  0.00     0.089 N 
HETATM   26  H15 UNL     1      20.318  -1.012  51.775  1.00  0.00     0.316 HD
BRANCH  25  27
HETATM   27  C18 UNL     1      20.150   0.989  51.766  1.00  0.00     0.212 C 
HETATM   28  C19 UNL     1      21.240   0.749  50.719  1.00  0.00     0.042 C 
HETATM   29  C20 UNL     1      20.708   2.001  52.735  1.00  0.00     0.042 C 
ENDBRANCH  25  27
ENDBRANCH  24  25
ENDBRANCH  23  24
ENDBRANCH  22  23
ENDBRANCH  11  22
TORSDOF 7
ENDMDL
MODEL 8
REMARK VINA RESULT:      -7.3      2.659      5.006
REMARK  7 active torsions:
REMARK  status: ('A' for Active; 'I' for Inactive)
REMARK    1  A    between atoms: C6_8  and  N3_9 
REMARK    2  A    between atoms: N3_9  and  C7_10 
REMARK    3  A    between atoms: C15_20  and  O1_21 
REMARK    4  A    between atoms: O1_21  and  C16_22 
REMARK    5  A    between atoms: C16_22  and  C17_23 
REMARK    6  A    between atoms: C17_23  and  N4_24 
REMARK    7  A    between atoms: N4_24  and  C18_25 
ROOT
HETATM    1  C1  UNL     1      18.709  -0.664  53.086  1.00  0.00     0.051 C 
HETATM    2  C2  UNL     1      20.211  -0.505  53.157  1.00  0.00    -0.026 A 
HETATM    3  C3  UNL     1      20.804  -1.076  54.292  1.00  0.00     0.042 A 
HETATM    4  C4  UNL     1      22.157  -0.949  54.373  1.00  0.00     0.072 A 
HETATM    5  N1  UNL     1      22.707  -1.506  55.491  1.00  0.00    -0.241 NA
HETATM    6  C5  UNL     1      24.042  -1.411  55.638  1.00  0.00     0.236 A 
HETATM    7  N2  UNL     1      24.831  -0.790  54.722  1.00  0.00    -0.224 NA
HETATM    8  C6  UNL     1      24.315  -0.235  53.610  1.00  0.00     0.142 A 
HETATM    9  C13 UNL     1      22.939  -0.318  53.435  1.00  0.00     0.041 A 
HETATM   10  C14 UNL     1      22.312   0.222  52.343  1.00  0.00     0.055 A 
HETATM   11  C15 UNL     1      20.950   0.155  52.159  1.00  0.00     0.075 A 
ENDROOT
BRANCH   8  12
HETATM   12  N3  UNL     1      25.171   0.404  52.628  1.00  0.00    -0.340 N 
HETATM   13  H6  UNL     1      24.913   1.043  51.883  1.00  0.00     0.167 HD
BRANCH  12  14
HETATM   14  C7  UNL     1      26.520  -0.046  52.895  1.00  0.00     0.035 A 
HETATM   15  C8  UNL     1      27.061  -1.287  52.663  1.00  0.00     0.032 A 
HETATM   16  C9  UNL     1      28.386  -1.514  53.011  1.00  0.00     0.046 A 
HETATM   17  C10 UNL     1      29.166  -0.542  53.574  1.00  0.00     0.138 A 
HETATM   18  F1  UNL     1      30.471  -0.758  53.922  1.00  0.00    -0.204 F 
HETATM   19  C11 UNL     1      28.677   0.722  53.829  1.00  0.00     0.074 A 
HETATM   20 CL1  UNL     1      29.635   2.011  54.548  1.00  0.00    -0.081 Cl
HETATM   21  C12 UNL     1      27.345   0.919  53.469  1.00  0.00     0.056 A 
ENDBRANCH  12  14
ENDBRANCH   8  12
BRANCH  11  22
HETATM   22  O1  UNL     1      20.201   0.593  51.222  1.00  0.00    -0.349 OA
BRANCH  22  23
HETATM   23  C16 UNL     1      19.432   1.043  50.265  1.00  0.00     0.205 C 
BRANCH  23  24
HETATM   24  C17 UNL     1      18.563   2.269  50.582  1.00  0.00     0.296 C 
BRANCH  24  25
HETATM   25  N4  UNL     1      17.216   1.926  50.936  1.00  0.00     0.089 N 
HETATM   26  H15 UNL     1      16.716   1.752  50.026  1.00  0.00     0.316 HD
BRANCH  25  27
HETATM   27  C18 UNL     1      16.480   2.936  51.630  1.00  0.00     0.212 C 
HETATM   28  C19 UNL     1      15.216   2.275  52.184  1.00  0.00     0.042 C 
HETATM   29  C20 UNL     1      16.015   4.060  50.737  1.00  0.00     0.042 C 
ENDBRANCH  25  27
ENDBRANCH  24  25
ENDBRANCH  23  24
ENDBRANCH  22  23
ENDBRANCH  11  22
TORSDOF 7
ENDMDL
MODEL 9
REMARK VINA RESULT:      -7.2      2.503      5.705
REMARK  7 active torsions:
REMARK  status: ('A' for Active; 'I' for Inactive)
REMARK    1  A    between atoms: C6_8  and  N3_9 
REMARK    2  A    between atoms: N3_9  and  C7_10 
REMARK    3  A    between atoms: C15_20  and  O1_21 
REMARK    4  A    between atoms: O1_21  and  C16_22 
REMARK    5  A    between atoms: C16_22  and  C17_23 
REMARK    6  A    between atoms: C17_23  and  N4_24 
REMARK    7  A    between atoms: N4_24  and  C18_25 
ROOT
HETATM    1  C1  UNL     1      22.544   3.550  47.820  1.00  0.00     0.051 C 
HETATM    2  C2  UNL     1      22.850   2.936  49.168  1.00  0.00    -0.026 A 
HETATM    3  C3  UNL     1      22.010   1.873  49.528  1.00  0.00     0.042 A 
HETATM    4  C4  UNL     1      22.271   1.302  50.735  1.00  0.00     0.072 A 
HETATM    5  N1  UNL     1      21.434   0.277  51.065  1.00  0.00    -0.241 NA
HETATM    6  C5  UNL     1      21.632  -0.330  52.250  1.00  0.00     0.236 A 
HETATM    7  N2  UNL     1      22.623   0.047  53.102  1.00  0.00    -0.224 NA
HETATM    8  C6  UNL     1      23.464   1.053  52.801  1.00  0.00     0.142 A 
HETATM    9  C13 UNL     1      23.279   1.697  51.584  1.00  0.00     0.041 A 
HETATM   10  C14 UNL     1      24.075   2.739  51.185  1.00  0.00     0.055 A 
HETATM   11  C15 UNL     1      23.899   3.392  49.986  1.00  0.00     0.075 A 
ENDROOT
BRANCH   8  12
HETATM   12  N3  UNL     1      24.532   1.429  53.707  1.00  0.00    -0.340 N 
HETATM   13  H6  UNL     1      24.546   2.177  54.395  1.00  0.00     0.167 HD
BRANCH  12  14
HETATM   14  C7  UNL     1      25.631   0.523  53.457  1.00  0.00     0.035 A 
HETATM   15  C8  UNL     1      25.579  -0.752  52.949  1.00  0.00     0.032 A 
HETATM   16  C9  UNL     1      26.764  -1.461  52.801  1.00  0.00     0.046 A 
HETATM   17  C10 UNL     1      27.976  -0.930  53.145  1.00  0.00     0.138 A 
HETATM   18  F1  UNL     1      29.147  -1.623  53.005  1.00  0.00    -0.204 F 
HETATM   19  C11 UNL     1      28.089   0.345  53.659  1.00  0.00     0.074 A 
HETATM   20 CL1  UNL     1      29.621   1.079  54.115  1.00  0.00    -0.081 Cl
HETATM   21  C12 UNL     1      26.884   1.031  53.795  1.00  0.00     0.056 A 
ENDBRANCH  12  14
ENDBRANCH   8  12
BRANCH  11  22
HETATM   22  O1  UNL     1      24.530   4.367  49.454  1.00  0.00    -0.349 OA
BRANCH  22  23
HETATM   23  C16 UNL     1      25.178   5.365  48.913  1.00  0.00     0.205 C 
BRANCH  23  24
HETATM   24  C17 UNL     1      25.763   6.419  49.866  1.00  0.00     0.296 C 
BRANCH  24  25
HETATM   25  N4  UNL     1      27.056   6.887  49.460  1.00  0.00     0.089 N 
HETATM   26  H15 UNL     1      26.987   7.937  49.439  1.00  0.00     0.316 HD
BRANCH  25  27
HETATM   27  C18 UNL     1      27.487   6.472  48.161  1.00  0.00     0.212 C 
HETATM   28  C19 UNL     1      28.720   5.586  48.354  1.00  0.00     0.042 C 
HETATM   29  C20 UNL     1      27.922   7.616  47.279  1.00  0.00     0.042 C 
ENDBRANCH  25  27
ENDBRANCH  24  25
ENDBRANCH  23  24
ENDBRANCH  22  23
ENDBRANCH  11  22
TORSDOF 7
ENDMDL
