MODEL 1
REMARK VINA RESULT:      -7.0      0.000      0.000
REMARK  6 active torsions:
REMARK  status: ('A' for Active; 'I' for Inactive)
REMARK    1  A    between atoms: C2_2  and  O1_3 
REMARK    2  A    between atoms: O1_3  and  C3_4 
REMARK    3  A    between atoms: C7_8  and  N2_11 
REMARK    4  A    between atoms: N2_11  and  C9_12 
REMARK    5  A    between atoms: C17_23  and  C18_24 
REMARK    6  A    between atoms: C18_24  and  N4_25 
ROOT
HETATM    1  C3  UNL     1      23.178   5.985  50.800  1.00  0.00     0.094 C 
HETATM    2  C4  UNL     1      22.821   5.186  51.868  1.00  0.00     0.051 C 
HETATM    3  C5  UNL     1      23.610   4.568  52.970  1.00  0.00     0.057 C 
HETATM    4  C6  UNL     1      23.919   3.682  52.054  1.00  0.00     0.064 C 
HETATM    5  C7  UNL     1      24.380   2.595  51.179  1.00  0.00     0.283 C 
HETATM    6  C8  UNL     1      25.858   2.480  51.278  1.00  0.00     0.108 C 
HETATM    7  N1  UNL     1      27.035   2.408  51.355  1.00  0.00    -0.194 NA
HETATM    8  C14 UNL     1      24.178   2.879  49.713  1.00  0.00     0.147 C 
HETATM    9  N3  UNL     1      23.722   3.426  48.612  1.00  0.00    -0.261 NA
HETATM   10  C15 UNL     1      22.756   4.470  48.971  1.00  0.00     0.067 C 
HETATM   11  C16 UNL     1      23.143   5.726  49.320  1.00  0.00     0.071 C 
HETATM   12  C17 UNL     1      21.440   3.827  48.914  1.00  0.00     0.004 C 
HETATM   13  C21 UNL     1      20.400   3.939  49.771  1.00  0.00     0.085 C 
HETATM   14  C22 UNL     1      20.342   4.320  51.221  1.00  0.00     0.246 C 
HETATM   15  O2  UNL     1      19.235   4.246  51.756  1.00  0.00    -0.268 OA
HETATM   16  N5  UNL     1      21.440   4.764  52.065  1.00  0.00    -0.324 N 
HETATM   17  H25 UNL     1      21.233   4.794  53.083  1.00  0.00     0.169 HD
ENDROOT
BRANCH   5  18
HETATM   18  N2  UNL     1      23.831   1.327  51.514  1.00  0.00     0.124 N 
HETATM   19  H8  UNL     1      24.618   0.692  51.754  1.00  0.00     0.320 HD
BRANCH  18  20
HETATM   20  C9  UNL     1      22.797   1.206  52.441  1.00  0.00     0.271 A 
HETATM   21  C10 UNL     1      21.476   0.992  51.825  1.00  0.00     0.024 A 
HETATM   22  P1  UNL     1      20.325  -0.081  52.421  1.00  0.00    -0.058 P 
HETATM   23  C11 UNL     1      20.932  -0.958  53.955  1.00  0.00     0.094 A 
HETATM   24  C12 UNL     1      22.353  -0.616  54.230  1.00  0.00     0.015 A 
HETATM   25 CL1  UNL     1      23.106  -1.504  55.549  1.00  0.00    -0.089 Cl
HETATM   26  C13 UNL     1      23.069   0.283  53.574  1.00  0.00     0.032 A 
ENDBRANCH  18  20
ENDBRANCH   5  18
BRANCH   1  27
HETATM   27  O1  UNL     1      23.619   7.180  51.303  1.00  0.00    -0.349 OA
BRANCH  27  28
HETATM   28  C2  UNL     1      24.210   8.124  50.420  1.00  0.00     0.171 C 
HETATM   29  C1  UNL     1      25.710   7.859  50.377  1.00  0.00     0.034 C 
ENDBRANCH  27  28
ENDBRANCH   1  27
BRANCH  12  30
HETATM   30  C18 UNL     1      21.323   2.938  47.754  1.00  0.00     0.312 C 
BRANCH  30  31
HETATM   31  N4  UNL     1      20.842   3.717  46.634  1.00  0.00     0.084 N 
HETATM   32  C19 UNL     1      19.497   3.380  46.219  1.00  0.00     0.309 C 
HETATM   33  C20 UNL     1      21.765   3.683  45.515  1.00  0.00     0.309 C 
ENDBRANCH  30  31
ENDBRANCH  12  30
TORSDOF 6
ENDMDL
MODEL 2
REMARK VINA RESULT:      -6.9      1.016      1.069
REMARK  6 active torsions:
REMARK  status: ('A' for Active; 'I' for Inactive)
REMARK    1  A    between atoms: C2_2  and  O1_3 
REMARK    2  A    between atoms: O1_3  and  C3_4 
REMARK    3  A    between atoms: C7_8  and  N2_11 
REMARK    4  A    between atoms: N2_11  and  C9_12 
REMARK    5  A    between atoms: C17_23  and  C18_24 
REMARK    6  A    between atoms: C18_24  and  N4_25 
ROOT
HETATM    1  C3  UNL     1      22.355   6.278  50.388  1.00  0.00     0.094 C 
HETATM    2  C4  UNL     1      22.342   5.426  51.475  1.00  0.00     0.051 C 
HETATM    3  C5  UNL     1      23.415   4.955  52.396  1.00  0.00     0.057 C 
HETATM    4  C6  UNL     1      23.701   4.141  51.409  1.00  0.00     0.064 C 
HETATM    5  C7  UNL     1      24.177   3.154  50.430  1.00  0.00     0.283 C 
HETATM    6  C8  UNL     1      25.644   3.302  50.258  1.00  0.00     0.108 C 
HETATM    7  N1  UNL     1      26.811   3.440  50.121  1.00  0.00    -0.194 NA
HETATM    8  C14 UNL     1      23.665   3.401  49.034  1.00  0.00     0.147 C 
HETATM    9  N3  UNL     1      22.927   3.860  48.052  1.00  0.00    -0.261 NA
HETATM   10  C15 UNL     1      21.877   4.716  48.614  1.00  0.00     0.067 C 
HETATM   11  C16 UNL     1      22.097   6.021  48.931  1.00  0.00     0.071 C 
HETATM   12  C17 UNL     1      20.704   3.851  48.771  1.00  0.00     0.004 C 
HETATM   13  C21 UNL     1      19.834   3.775  49.803  1.00  0.00     0.085 C 
HETATM   14  C22 UNL     1      19.976   4.136  51.253  1.00  0.00     0.246 C 
HETATM   15  O2  UNL     1      19.016   3.866  51.975  1.00  0.00    -0.268 OA
HETATM   16  N5  UNL     1      21.115   4.766  51.902  1.00  0.00    -0.324 N 
HETATM   17  H25 UNL     1      21.096   4.757  52.941  1.00  0.00     0.169 HD
ENDROOT
BRANCH   5  18
HETATM   18  N2  UNL     1      23.927   1.809  50.814  1.00  0.00     0.124 N 
HETATM   19  H8  UNL     1      24.815   1.278  50.713  1.00  0.00     0.320 HD
BRANCH  18  20
HETATM   20  C9  UNL     1      23.301   1.503  52.021  1.00  0.00     0.271 A 
HETATM   21  C10 UNL     1      21.938   0.968  51.860  1.00  0.00     0.024 A 
HETATM   22  P1  UNL     1      21.315  -0.306  52.765  1.00  0.00    -0.058 P 
HETATM   23  C11 UNL     1      22.566  -0.950  53.995  1.00  0.00     0.094 A 
HETATM   24  C12 UNL     1      23.882  -0.285  53.806  1.00  0.00     0.015 A 
HETATM   25 CL1  UNL     1      25.200  -0.918  54.785  1.00  0.00    -0.089 Cl
HETATM   26  C13 UNL     1      24.125   0.720  52.979  1.00  0.00     0.032 A 
ENDBRANCH  18  20
ENDBRANCH   5  18
BRANCH   1  27
HETATM   27  O1  UNL     1      22.665   7.531  50.845  1.00  0.00    -0.349 OA
BRANCH  27  28
HETATM   28  C2  UNL     1      23.605   8.316  50.122  1.00  0.00     0.171 C 
HETATM   29  C1  UNL     1      25.000   7.781  50.422  1.00  0.00     0.034 C 
ENDBRANCH  27  28
ENDBRANCH   1  27
BRANCH  12  30
HETATM   30  C18 UNL     1      20.534   2.957  47.621  1.00  0.00     0.312 C 
BRANCH  30  31
HETATM   31  N4  UNL     1      19.786   3.665  46.605  1.00  0.00     0.084 N 
HETATM   32  C19 UNL     1      18.446   3.157  46.403  1.00  0.00     0.309 C 
HETATM   33  C20 UNL     1      20.514   3.747  45.354  1.00  0.00     0.309 C 
ENDBRANCH  30  31
ENDBRANCH  12  30
TORSDOF 6
ENDMDL
MODEL 3
REMARK VINA RESULT:      -6.9      3.197      6.606
REMARK  6 active torsions:
REMARK  status: ('A' for Active; 'I' for Inactive)
REMARK    1  A    between atoms: C2_2  and  O1_3 
REMARK    2  A    between atoms: O1_3  and  C3_4 
REMARK    3  A    between atoms: C7_8  and  N2_11 
REMARK    4  A    between atoms: N2_11  and  C9_12 
REMARK    5  A    between atoms: C17_23  and  C18_24 
REMARK    6  A    between atoms: C18_24  and  N4_25 
ROOT
HETATM    1  C3  UNL     1      20.169   3.283  51.921  1.00  0.00     0.094 C 
HETATM    2  C4  UNL     1      20.754   4.437  51.437  1.00  0.00     0.051 C 
HETATM    3  C5  UNL     1      20.459   5.292  50.253  1.00  0.00     0.057 C 
HETATM    4  C6  UNL     1      21.108   4.358  49.601  1.00  0.00     0.064 C 
HETATM    5  C7  UNL     1      21.799   3.429  48.695  1.00  0.00     0.283 C 
HETATM    6  C8  UNL     1      20.910   3.110  47.549  1.00  0.00     0.108 C 
HETATM    7  N1  UNL     1      20.187   2.854  46.649  1.00  0.00    -0.194 NA
HETATM    8  C14 UNL     1      22.039   2.070  49.301  1.00  0.00     0.147 C 
HETATM    9  N3  UNL     1      22.171   1.124  50.200  1.00  0.00    -0.261 NA
HETATM   10  C15 UNL     1      21.950   1.703  51.529  1.00  0.00     0.067 C 
HETATM   11  C16 UNL     1      20.703   1.883  52.043  1.00  0.00     0.071 C 
HETATM   12  C17 UNL     1      23.281   2.043  52.039  1.00  0.00     0.004 C 
HETATM   13  C21 UNL     1      23.683   3.154  52.697  1.00  0.00     0.085 C 
HETATM   14  C22 UNL     1      23.126   4.547  52.729  1.00  0.00     0.246 C 
HETATM   15  O2  UNL     1      23.777   5.376  53.367  1.00  0.00    -0.268 OA
HETATM   16  N5  UNL     1      21.910   5.031  52.095  1.00  0.00    -0.324 N 
HETATM   17  H25 UNL     1      21.800   6.064  52.075  1.00  0.00     0.169 HD
ENDROOT
BRANCH   5  18
HETATM   18  N2  UNL     1      23.009   3.950  48.163  1.00  0.00     0.124 N 
HETATM   19  H8  UNL     1      22.771   4.519  47.327  1.00  0.00     0.320 HD
BRANCH  18  20
HETATM   20  C9  UNL     1      23.929   4.618  48.971  1.00  0.00     0.271 A 
HETATM   21  C10 UNL     1      25.118   3.814  49.299  1.00  0.00     0.024 A 
HETATM   22  P1  UNL     1      26.686   4.424  49.328  1.00  0.00    -0.058 P 
HETATM   23  C11 UNL     1      26.724   6.241  48.897  1.00  0.00     0.094 A 
HETATM   24  C12 UNL     1      25.375   6.714  48.487  1.00  0.00     0.015 A 
HETATM   25 CL1  UNL     1      25.299   8.367  47.889  1.00  0.00    -0.089 Cl
HETATM   26  C13 UNL     1      24.261   6.002  48.540  1.00  0.00     0.032 A 
ENDBRANCH  18  20
ENDBRANCH   5  18
BRANCH   1  27
HETATM   27  O1  UNL     1      18.900   3.598  52.327  1.00  0.00    -0.349 OA
BRANCH  27  28
HETATM   28  C2  UNL     1      17.795   3.097  51.586  1.00  0.00     0.171 C 
HETATM   29  C1  UNL     1      16.902   4.274  51.212  1.00  0.00     0.034 C 
ENDBRANCH  27  28
ENDBRANCH   1  27
BRANCH  12  30
HETATM   30  C18 UNL     1      24.261   0.996  51.731  1.00  0.00     0.312 C 
BRANCH  30  31
HETATM   31  N4  UNL     1      24.853   0.552  52.974  1.00  0.00     0.084 N 
HETATM   32  C19 UNL     1      26.240   0.156  52.855  1.00  0.00     0.309 C 
HETATM   33  C20 UNL     1      24.061  -0.482  53.613  1.00  0.00     0.309 C 
ENDBRANCH  30  31
ENDBRANCH  12  30
TORSDOF 6
ENDMDL
MODEL 4
REMARK VINA RESULT:      -6.7      2.754      3.549
REMARK  6 active torsions:
REMARK  status: ('A' for Active; 'I' for Inactive)
REMARK    1  A    between atoms: C2_2  and  O1_3 
REMARK    2  A    between atoms: O1_3  and  C3_4 
REMARK    3  A    between atoms: C7_8  and  N2_11 
REMARK    4  A    between atoms: N2_11  and  C9_12 
REMARK    5  A    between atoms: C17_23  and  C18_24 
REMARK    6  A    between atoms: C18_24  and  N4_25 
ROOT
HETATM    1  C3  UNL     1      24.264   4.006  50.216  1.00  0.00     0.094 C 
HETATM    2  C4  UNL     1      23.507   4.392  51.304  1.00  0.00     0.051 C 
HETATM    3  C5  UNL     1      23.503   3.961  52.731  1.00  0.00     0.057 C 
HETATM    4  C6  UNL     1      22.822   2.941  52.268  1.00  0.00     0.064 C 
HETATM    5  C7  UNL     1      22.053   1.729  51.951  1.00  0.00     0.283 C 
HETATM    6  C8  UNL     1      22.735   0.548  52.540  1.00  0.00     0.108 C 
HETATM    7  N1  UNL     1      23.296  -0.384  53.002  1.00  0.00    -0.194 NA
HETATM    8  C14 UNL     1      22.044   1.393  50.482  1.00  0.00     0.147 C 
HETATM    9  N3  UNL     1      22.160   1.528  49.183  1.00  0.00    -0.261 NA
HETATM   10  C15 UNL     1      22.578   2.904  48.889  1.00  0.00     0.067 C 
HETATM   11  C16 UNL     1      23.880   3.294  48.950  1.00  0.00     0.071 C 
HETATM   12  C17 UNL     1      21.342   3.642  48.615  1.00  0.00     0.004 C 
HETATM   13  C21 UNL     1      20.980   4.879  49.025  1.00  0.00     0.085 C 
HETATM   14  C22 UNL     1      21.417   5.705  50.199  1.00  0.00     0.246 C 
HETATM   15  O2  UNL     1      20.831   6.777  50.354  1.00  0.00    -0.268 OA
HETATM   16  N5  UNL     1      22.449   5.386  51.173  1.00  0.00    -0.324 N 
HETATM   17  H25 UNL     1      22.468   5.994  52.015  1.00  0.00     0.169 HD
ENDROOT
BRANCH   5  18
HETATM   18  N2  UNL     1      20.726   1.752  52.459  1.00  0.00     0.124 N 
HETATM   19  H8  UNL     1      20.611   2.623  53.014  1.00  0.00     0.320 HD
BRANCH  18  20
HETATM   20  C9  UNL     1      19.627   1.545  51.626  1.00  0.00     0.271 A 
HETATM   21  C10 UNL     1      18.978   0.237  51.820  1.00  0.00     0.024 A 
HETATM   22  P1  UNL     1      17.312   0.008  51.828  1.00  0.00    -0.058 P 
HETATM   23  C11 UNL     1      16.395   1.614  51.559  1.00  0.00     0.094 A 
HETATM   24  C12 UNL     1      17.340   2.762  51.535  1.00  0.00     0.015 A 
HETATM   25 CL1  UNL     1      16.597   4.355  51.461  1.00  0.00    -0.089 Cl
HETATM   26  C13 UNL     1      18.660   2.673  51.566  1.00  0.00     0.032 A 
ENDBRANCH  18  20
ENDBRANCH   5  18
BRANCH   1  27
HETATM   27  O1  UNL     1      25.556   4.392  50.450  1.00  0.00    -0.349 OA
BRANCH  27  28
HETATM   28  C2  UNL     1      26.612   3.703  49.794  1.00  0.00     0.171 C 
HETATM   29  C1  UNL     1      27.307   4.682  48.856  1.00  0.00     0.034 C 
ENDBRANCH  27  28
ENDBRANCH   1  27
BRANCH  12  30
HETATM   30  C18 UNL     1      20.412   2.855  47.800  1.00  0.00     0.312 C 
BRANCH  30  31
HETATM   31  N4  UNL     1      19.965   3.680  46.699  1.00  0.00     0.084 N 
HETATM   32  C19 UNL     1      18.667   3.310  46.177  1.00  0.00     0.309 C 
HETATM   33  C20 UNL     1      20.957   3.758  45.644  1.00  0.00     0.309 C 
ENDBRANCH  30  31
ENDBRANCH  12  30
TORSDOF 6
ENDMDL
MODEL 5
REMARK VINA RESULT:      -6.7      2.855      5.445
REMARK  6 active torsions:
REMARK  status: ('A' for Active; 'I' for Inactive)
REMARK    1  A    between atoms: C2_2  and  O1_3 
REMARK    2  A    between atoms: O1_3  and  C3_4 
REMARK    3  A    between atoms: C7_8  and  N2_11 
REMARK    4  A    between atoms: N2_11  and  C9_12 
REMARK    5  A    between atoms: C17_23  and  C18_24 
REMARK    6  A    between atoms: C18_24  and  N4_25 
ROOT
HETATM    1  C3  UNL     1      19.439   3.170  50.228  1.00  0.00     0.094 C 
HETATM    2  C4  UNL     1      19.938   1.957  49.798  1.00  0.00     0.051 C 
HETATM    3  C5  UNL     1      19.739   0.561  50.279  1.00  0.00     0.057 C 
HETATM    4  C6  UNL     1      20.610   0.909  51.195  1.00  0.00     0.064 C 
HETATM    5  C7  UNL     1      21.564   1.101  52.297  1.00  0.00     0.283 C 
HETATM    6  C8  UNL     1      20.936   0.665  53.570  1.00  0.00     0.108 C 
HETATM    7  N1  UNL     1      20.419   0.327  54.578  1.00  0.00    -0.194 NA
HETATM    8  C14 UNL     1      21.876   2.549  52.574  1.00  0.00     0.147 C 
HETATM    9  N3  UNL     1      21.977   3.846  52.404  1.00  0.00    -0.261 NA
HETATM   10  C15 UNL     1      21.455   4.188  51.076  1.00  0.00     0.067 C 
HETATM   11  C16 UNL     1      20.125   4.358  50.842  1.00  0.00     0.071 C 
HETATM   12  C17 UNL     1      22.621   4.221  50.189  1.00  0.00     0.004 C 
HETATM   13  C21 UNL     1      22.752   3.732  48.935  1.00  0.00     0.085 C 
HETATM   14  C22 UNL     1      22.016   2.644  48.210  1.00  0.00     0.246 C 
HETATM   15  O2  UNL     1      22.431   2.367  47.084  1.00  0.00    -0.268 OA
HETATM   16  N5  UNL     1      20.874   1.879  48.683  1.00  0.00    -0.324 N 
HETATM   17  H25 UNL     1      20.632   1.044  48.114  1.00  0.00     0.169 HD
ENDROOT
BRANCH   5  18
HETATM   18  N2  UNL     1      22.767   0.361  52.140  1.00  0.00     0.124 N 
HETATM   19  H8  UNL     1      22.903   0.185  51.124  1.00  0.00     0.320 HD
BRANCH  18  20
HETATM   20  C9  UNL     1      23.957   0.776  52.735  1.00  0.00     0.271 A 
HETATM   21  C10 UNL     1      24.670  -0.301  53.442  1.00  0.00     0.024 A 
HETATM   22  P1  UNL     1      26.338  -0.511  53.398  1.00  0.00    -0.058 P 
HETATM   23  C11 UNL     1      27.167   0.791  52.344  1.00  0.00     0.094 A 
HETATM   24  C12 UNL     1      26.154   1.643  51.666  1.00  0.00     0.015 A 
HETATM   25 CL1  UNL     1      26.791   2.803  50.507  1.00  0.00    -0.089 Cl
HETATM   26  C13 UNL     1      24.847   1.592  51.867  1.00  0.00     0.032 A 
ENDBRANCH  18  20
ENDBRANCH   5  18
BRANCH   1  27
HETATM   27  O1  UNL     1      18.088   3.168  50.003  1.00  0.00    -0.349 OA
BRANCH  27  28
HETATM   28  C2  UNL     1      17.206   3.366  51.100  1.00  0.00     0.171 C 
HETATM   29  C1  UNL     1      16.181   2.238  51.093  1.00  0.00     0.034 C 
ENDBRANCH  27  28
ENDBRANCH   1  27
BRANCH  12  30
HETATM   30  C18 UNL     1      23.770   4.867  50.832  1.00  0.00     0.312 C 
BRANCH  30  31
HETATM   31  N4  UNL     1      24.058   6.092  50.118  1.00  0.00     0.084 N 
HETATM   32  C19 UNL     1      25.447   6.237  49.739  1.00  0.00     0.309 C 
HETATM   33  C20 UNL     1      23.580   7.260  50.832  1.00  0.00     0.309 C 
ENDBRANCH  30  31
ENDBRANCH  12  30
TORSDOF 6
ENDMDL
MODEL 6
REMARK VINA RESULT:      -6.7      3.940      6.486
REMARK  6 active torsions:
REMARK  status: ('A' for Active; 'I' for Inactive)
REMARK    1  A    between atoms: C2_2  and  O1_3 
REMARK    2  A    between atoms: O1_3  and  C3_4 
REMARK    3  A    between atoms: C7_8  and  N2_11 
REMARK    4  A    between atoms: N2_11  and  C9_12 
REMARK    5  A    between atoms: C17_23  and  C18_24 
REMARK    6  A    between atoms: C18_24  and  N4_25 
ROOT
HETATM    1  C3  UNL     1      20.864   3.733  48.999  1.00  0.00     0.094 C 
HETATM    2  C4  UNL     1      22.128   3.675  48.446  1.00  0.00     0.051 C 
HETATM    3  C5  UNL     1      23.325   2.844  48.759  1.00  0.00     0.057 C 
HETATM    4  C6  UNL     1      23.488   3.708  49.732  1.00  0.00     0.064 C 
HETATM    5  C7  UNL     1      23.844   4.564  50.872  1.00  0.00     0.283 C 
HETATM    6  C8  UNL     1      24.066   3.715  52.071  1.00  0.00     0.108 C 
HETATM    7  N1  UNL     1      24.227   3.029  53.020  1.00  0.00    -0.194 NA
HETATM    8  C14 UNL     1      22.720   5.463  51.321  1.00  0.00     0.147 C 
HETATM    9  N3  UNL     1      21.597   6.139  51.303  1.00  0.00    -0.261 NA
HETATM   10  C15 UNL     1      20.939   5.922  50.010  1.00  0.00     0.067 C 
HETATM   11  C16 UNL     1      20.171   4.827  49.762  1.00  0.00     0.071 C 
HETATM   12  C17 UNL     1      21.350   7.045  49.163  1.00  0.00     0.004 C 
HETATM   13  C21 UNL     1      21.730   7.039  47.865  1.00  0.00     0.085 C 
HETATM   14  C22 UNL     1      22.304   5.954  47.002  1.00  0.00     0.246 C 
HETATM   15  O2  UNL     1      22.633   6.287  45.863  1.00  0.00    -0.268 OA
HETATM   16  N5  UNL     1      22.516   4.560  47.355  1.00  0.00    -0.324 N 
HETATM   17  H25 UNL     1      23.099   4.016  46.688  1.00  0.00     0.169 HD
ENDROOT
BRANCH   5  18
HETATM   18  N2  UNL     1      25.027   5.323  50.663  1.00  0.00     0.124 N 
HETATM   19  H8  UNL     1      25.812   4.827  51.130  1.00  0.00     0.320 HD
BRANCH  18  20
HETATM   20  C9  UNL     1      25.398   5.752  49.390  1.00  0.00     0.271 A 
HETATM   21  C10 UNL     1      25.068   7.162  49.122  1.00  0.00     0.024 A 
HETATM   22  P1  UNL     1      26.083   8.226  48.306  1.00  0.00    -0.058 P 
HETATM   23  C11 UNL     1      27.674   7.396  47.784  1.00  0.00     0.094 A 
HETATM   24  C12 UNL     1      27.749   6.013  48.328  1.00  0.00     0.015 A 
HETATM   25 CL1  UNL     1      29.271   5.173  48.058  1.00  0.00    -0.089 Cl
HETATM   26  C13 UNL     1      26.781   5.389  48.979  1.00  0.00     0.032 A 
ENDBRANCH  18  20
ENDBRANCH   5  18
BRANCH   1  27
HETATM   27  O1  UNL     1      20.241   2.542  48.740  1.00  0.00    -0.349 OA
BRANCH  27  28
HETATM   28  C2  UNL     1      19.610   1.847  49.808  1.00  0.00     0.171 C 
HETATM   29  C1  UNL     1      20.623   0.879  50.407  1.00  0.00     0.034 C 
ENDBRANCH  27  28
ENDBRANCH   1  27
BRANCH  12  30
HETATM   30  C18 UNL     1      21.349   8.310  49.905  1.00  0.00     0.312 C 
BRANCH  30  31
HETATM   31  N4  UNL     1      20.409   9.206  49.268  1.00  0.00     0.084 N 
HETATM   32  C19 UNL     1      20.988  10.468  48.857  1.00  0.00     0.309 C 
HETATM   33  C20 UNL     1      19.221   9.409  50.075  1.00  0.00     0.309 C 
ENDBRANCH  30  31
ENDBRANCH  12  30
TORSDOF 6
ENDMDL
MODEL 7
REMARK VINA RESULT:      -6.7      9.278     12.428
REMARK  6 active torsions:
REMARK  status: ('A' for Active; 'I' for Inactive)
REMARK    1  A    between atoms: C2_2  and  O1_3 
REMARK    2  A    between atoms: O1_3  and  C3_4 
REMARK    3  A    between atoms: C7_8  and  N2_11 
REMARK    4  A    between atoms: N2_11  and  C9_12 
REMARK    5  A    between atoms: C17_23  and  C18_24 
REMARK    6  A    between atoms: C18_24  and  N4_25 
ROOT
HETATM    1  C3  UNL     1      33.927   5.409  46.877  1.00  0.00     0.094 C 
HETATM    2  C4  UNL     1      33.841   5.937  48.150  1.00  0.00     0.051 C 
HETATM    3  C5  UNL     1      33.063   5.534  49.355  1.00  0.00     0.057 C 
HETATM    4  C6  UNL     1      32.076   6.138  48.738  1.00  0.00     0.064 C 
HETATM    5  C7  UNL     1      30.852   6.761  48.217  1.00  0.00     0.283 C 
HETATM    6  C8  UNL     1      29.736   5.783  48.287  1.00  0.00     0.108 C 
HETATM    7  N1  UNL     1      28.860   4.991  48.336  1.00  0.00    -0.194 NA
HETATM    8  C14 UNL     1      30.917   7.067  46.742  1.00  0.00     0.147 C 
HETATM    9  N3  UNL     1      31.408   7.285  45.546  1.00  0.00    -0.261 NA
HETATM   10  C15 UNL     1      32.869   7.169  45.610  1.00  0.00     0.067 C 
HETATM   11  C16 UNL     1      33.504   5.967  45.547  1.00  0.00     0.071 C 
HETATM   12  C17 UNL     1      33.367   8.534  45.802  1.00  0.00     0.004 C 
HETATM   13  C21 UNL     1      34.344   8.977  46.626  1.00  0.00     0.085 C 
HETATM   14  C22 UNL     1      34.910   8.408  47.894  1.00  0.00     0.246 C 
HETATM   15  O2  UNL     1      35.750   9.101  48.470  1.00  0.00    -0.268 OA
HETATM   16  N5  UNL     1      34.580   7.138  48.520  1.00  0.00    -0.324 N 
HETATM   17  H25 UNL     1      34.936   7.014  49.488  1.00  0.00     0.169 HD
ENDROOT
BRANCH   5  18
HETATM   18  N2  UNL     1      30.451   7.917  48.941  1.00  0.00     0.124 N 
HETATM   19  H8  UNL     1      31.278   8.267  49.465  1.00  0.00     0.320 HD
BRANCH  18  20
HETATM   20  C9  UNL     1      29.778   8.966  48.318  1.00  0.00     0.271 A 
HETATM   21  C10 UNL     1      28.314   8.895  48.461  1.00  0.00     0.024 A 
HETATM   22  P1  UNL     1      27.333  10.228  48.762  1.00  0.00    -0.058 P 
HETATM   23  C11 UNL     1      28.333  11.802  48.888  1.00  0.00     0.094 A 
HETATM   24  C12 UNL     1      29.789  11.507  48.833  1.00  0.00     0.015 A 
HETATM   25 CL1  UNL     1      30.853  12.880  49.113  1.00  0.00    -0.089 Cl
HETATM   26  C13 UNL     1      30.326  10.321  48.594  1.00  0.00     0.032 A 
ENDBRANCH  18  20
ENDBRANCH   5  18
BRANCH   1  27
HETATM   27  O1  UNL     1      34.511   4.175  46.976  1.00  0.00    -0.349 OA
BRANCH  27  28
HETATM   28  C2  UNL     1      33.823   3.043  46.461  1.00  0.00     0.171 C 
HETATM   29  C1  UNL     1      33.187   2.301  47.630  1.00  0.00     0.034 C 
ENDBRANCH  27  28
ENDBRANCH   1  27
BRANCH  12  30
HETATM   30  C18 UNL     1      32.636   9.497  44.972  1.00  0.00     0.312 C 
BRANCH  30  31
HETATM   31  N4  UNL     1      33.247  10.797  45.144  1.00  0.00     0.084 N 
HETATM   32  C19 UNL     1      32.370  11.783  45.740  1.00  0.00     0.309 C 
HETATM   33  C20 UNL     1      33.833  11.287  43.912  1.00  0.00     0.309 C 
ENDBRANCH  30  31
ENDBRANCH  12  30
TORSDOF 6
ENDMDL
MODEL 8
REMARK VINA RESULT:      -6.4      7.088     10.508
REMARK  6 active torsions:
REMARK  status: ('A' for Active; 'I' for Inactive)
REMARK    1  A    between atoms: C2_2  and  O1_3 
REMARK    2  A    between atoms: O1_3  and  C3_4 
REMARK    3  A    between atoms: C7_8  and  N2_11 
REMARK    4  A    between atoms: N2_11  and  C9_12 
REMARK    5  A    between atoms: C17_23  and  C18_24 
REMARK    6  A    between atoms: C18_24  and  N4_25 
ROOT
HETATM    1  C3  UNL     1      26.792   8.020  49.720  1.00  0.00     0.094 C 
HETATM    2  C4  UNL     1      26.865   7.307  48.539  1.00  0.00     0.051 C 
HETATM    3  C5  UNL     1      27.412   5.961  48.210  1.00  0.00     0.057 C 
HETATM    4  C6  UNL     1      28.564   6.588  48.226  1.00  0.00     0.064 C 
HETATM    5  C7  UNL     1      29.941   7.101  48.196  1.00  0.00     0.283 C 
HETATM    6  C8  UNL     1      30.802   6.242  49.049  1.00  0.00     0.108 C 
HETATM    7  N1  UNL     1      31.474   5.559  49.742  1.00  0.00    -0.194 NA
HETATM    8  C14 UNL     1      30.091   8.452  48.848  1.00  0.00     0.147 C 
HETATM    9  N3  UNL     1      29.780   9.623  49.349  1.00  0.00    -0.261 NA
HETATM   10  C15 UNL     1      28.330   9.814  49.233  1.00  0.00     0.067 C 
HETATM   11  C16 UNL     1      27.457   9.301  50.141  1.00  0.00     0.071 C 
HETATM   12  C17 UNL     1      28.128  10.560  47.988  1.00  0.00     0.004 C 
HETATM   13  C21 UNL     1      27.195  10.376  47.027  1.00  0.00     0.085 C 
HETATM   14  C22 UNL     1      26.396   9.169  46.634  1.00  0.00     0.246 C 
HETATM   15  O2  UNL     1      25.675   9.295  45.644  1.00  0.00    -0.268 OA
HETATM   16  N5  UNL     1      26.375   7.869  47.287  1.00  0.00    -0.324 N 
HETATM   17  H25 UNL     1      25.906   7.111  46.753  1.00  0.00     0.169 HD
ENDROOT
BRANCH   5  18
HETATM   18  N2  UNL     1      30.512   7.117  46.895  1.00  0.00     0.124 N 
HETATM   19  H8  UNL     1      29.901   6.551  46.272  1.00  0.00     0.320 HD
BRANCH  18  20
HETATM   20  C9  UNL     1      30.878   8.312  46.278  1.00  0.00     0.271 A 
HETATM   21  C10 UNL     1      32.257   8.310  45.760  1.00  0.00     0.024 A 
HETATM   22  P1  UNL     1      32.707   8.976  44.283  1.00  0.00    -0.058 P 
HETATM   23  C11 UNL     1      31.242   9.716  43.388  1.00  0.00     0.094 A 
HETATM   24  C12 UNL     1      29.979   9.429  44.119  1.00  0.00     0.015 A 
HETATM   25 CL1  UNL     1      28.501   9.920  43.300  1.00  0.00    -0.089 Cl
HETATM   26  C13 UNL     1      29.890   8.849  45.305  1.00  0.00     0.032 A 
ENDBRANCH  18  20
ENDBRANCH   5  18
BRANCH   1  27
HETATM   27  O1  UNL     1      25.945   7.349  50.560  1.00  0.00    -0.349 OA
BRANCH  27  28
HETATM   28  C2  UNL     1      24.552   7.629  50.503  1.00  0.00     0.171 C 
HETATM   29  C1  UNL     1      23.808   6.467  51.150  1.00  0.00     0.034 C 
ENDBRANCH  27  28
ENDBRANCH   1  27
BRANCH  12  30
HETATM   30  C18 UNL     1      29.131  11.617  47.823  1.00  0.00     0.312 C 
BRANCH  30  31
HETATM   31  N4  UNL     1      28.441  12.849  47.507  1.00  0.00     0.084 N 
HETATM   32  C19 UNL     1      29.210  13.757  46.683  1.00  0.00     0.309 C 
HETATM   33  C20 UNL     1      27.941  13.511  48.697  1.00  0.00     0.309 C 
ENDBRANCH  30  31
ENDBRANCH  12  30
TORSDOF 6
ENDMDL
MODEL 9
REMARK VINA RESULT:      -6.3      3.757      6.116
REMARK  6 active torsions:
REMARK  status: ('A' for Active; 'I' for Inactive)
REMARK    1  A    between atoms: C2_2  and  O1_3 
REMARK    2  A    between atoms: O1_3  and  C3_4 
REMARK    3  A    between atoms: C7_8  and  N2_11 
REMARK    4  A    between atoms: N2_11  and  C9_12 
REMARK    5  A    between atoms: C17_23  and  C18_24 
REMARK    6  A    between atoms: C18_24  and  N4_25 
ROOT
HETATM    1  C3  UNL     1      24.329   3.545  51.628  1.00  0.00     0.094 C 
HETATM    2  C4  UNL     1      24.738   3.429  50.314  1.00  0.00     0.051 C 
HETATM    3  C5  UNL     1      25.941   3.924  49.588  1.00  0.00     0.057 C 
HETATM    4  C6  UNL     1      25.283   5.059  49.573  1.00  0.00     0.064 C 
HETATM    5  C7  UNL     1      24.715   6.408  49.452  1.00  0.00     0.283 C 
HETATM    6  C8  UNL     1      25.710   7.404  49.926  1.00  0.00     0.108 C 
HETATM    7  N1  UNL     1      26.506   8.184  50.319  1.00  0.00    -0.194 NA
HETATM    8  C14 UNL     1      23.551   6.653  50.378  1.00  0.00     0.147 C 
HETATM    9  N3  UNL     1      22.547   6.420  51.189  1.00  0.00    -0.261 NA
HETATM   10  C15 UNL     1      22.402   4.970  51.352  1.00  0.00     0.067 C 
HETATM   11  C16 UNL     1      23.155   4.260  52.236  1.00  0.00     0.071 C 
HETATM   12  C17 UNL     1      21.392   4.561  50.372  1.00  0.00     0.004 C 
HETATM   13  C21 UNL     1      21.386   3.484  49.553  1.00  0.00     0.085 C 
HETATM   14  C22 UNL     1      22.503   2.640  49.012  1.00  0.00     0.246 C 
HETATM   15  O2  UNL     1      22.179   1.766  48.207  1.00  0.00    -0.268 OA
HETATM   16  N5  UNL     1      23.919   2.735  49.327  1.00  0.00    -0.324 N 
HETATM   17  H25 UNL     1      24.550   2.191  48.706  1.00  0.00     0.169 HD
ENDROOT
BRANCH   5  18
HETATM   18  N2  UNL     1      24.364   6.758  48.120  1.00  0.00     0.124 N 
HETATM   19  H8  UNL     1      24.972   6.212  47.476  1.00  0.00     0.320 HD
BRANCH  18  20
HETATM   20  C9  UNL     1      23.039   6.735  47.688  1.00  0.00     0.271 A 
HETATM   21  C10 UNL     1      22.601   7.993  47.061  1.00  0.00     0.024 A 
HETATM   22  P1  UNL     1      21.635   8.071  45.686  1.00  0.00    -0.058 P 
HETATM   23  C11 UNL     1      21.189   6.368  45.062  1.00  0.00     0.094 A 
HETATM   24  C12 UNL     1      21.902   5.318  45.839  1.00  0.00     0.015 A 
HETATM   25 CL1  UNL     1      21.708   3.673  45.247  1.00  0.00    -0.089 Cl
HETATM   26  C13 UNL     1      22.649   5.529  46.911  1.00  0.00     0.032 A 
ENDBRANCH  18  20
ENDBRANCH   5  18
BRANCH   1  27
HETATM   27  O1  UNL     1      25.218   2.852  52.404  1.00  0.00    -0.349 OA
BRANCH  27  28
HETATM   28  C2  UNL     1      24.794   1.650  53.034  1.00  0.00     0.171 C 
HETATM   29  C1  UNL     1      25.532   0.487  52.385  1.00  0.00     0.034 C 
ENDBRANCH  27  28
ENDBRANCH   1  27
BRANCH  12  30
HETATM   30  C18 UNL     1      20.281   5.515  50.311  1.00  0.00     0.312 C 
BRANCH  30  31
HETATM   31  N4  UNL     1      19.345   5.056  49.309  1.00  0.00     0.084 N 
HETATM   32  C19 UNL     1      19.133   5.996  48.228  1.00  0.00     0.309 C 
HETATM   33  C20 UNL     1      18.087   4.634  49.895  1.00  0.00     0.309 C 
ENDBRANCH  30  31
ENDBRANCH  12  30
TORSDOF 6
ENDMDL
