MODEL 1
REMARK VINA RESULT:      -7.5      0.000      0.000
REMARK  3 active torsions:
REMARK  status: ('A' for Active; 'I' for Inactive)
REMARK    1  A    between atoms: O1_2  and  C2_3 
REMARK    2  A    between atoms: C6_9  and  N2_10 
REMARK    3  A    between atoms: N2_10  and  C7_11 
ROOT
HETATM    1  C2  UNL     1      22.821  -0.026  53.053  1.00  0.00     0.044 C 
HETATM    2  C3  UNL     1      23.823   0.756  53.422  1.00  0.00     0.020 C 
HETATM    3  C4  UNL     1      24.711   1.897  53.204  1.00  0.00     0.080 A 
HETATM    4  P1  UNL     1      26.424   1.620  53.859  1.00  0.00    -0.074 P 
HETATM    5  C5  UNL     1      27.512   2.125  52.489  1.00  0.00     0.122 A 
HETATM    6  N1  UNL     1      27.125   2.567  51.343  1.00  0.00    -0.242 NA
HETATM    7  C6  UNL     1      25.745   2.726  50.974  1.00  0.00     0.136 A 
HETATM    8  C13 UNL     1      24.825   2.403  51.857  1.00  0.00     0.017 A 
HETATM    9  C14 UNL     1      23.620   2.704  51.045  1.00  0.00     0.122 C 
HETATM   10  N3  UNL     1      22.349   2.435  50.935  1.00  0.00    -0.301 NA
HETATM   11  C15 UNL     1      21.453   1.582  51.703  1.00  0.00     0.155 C 
HETATM   12  C16 UNL     1      22.094   0.232  51.784  1.00  0.00     0.086 C 
HETATM   13  H6  UNL     1      26.678   0.223  54.129  1.00  0.00     0.064 HD
ENDROOT
BRANCH   7  14
HETATM   14  N2  UNL     1      25.626   3.259  49.664  1.00  0.00    -0.340 N 
HETATM   15  H8  UNL     1      25.235   3.244  48.690  1.00  0.00     0.167 HD
BRANCH  14  16
HETATM   16  C7  UNL     1      26.324   4.436  49.274  1.00  0.00     0.035 A 
HETATM   17  C8  UNL     1      27.513   4.757  48.646  1.00  0.00     0.029 A 
HETATM   18  C9  UNL     1      27.988   6.052  48.402  1.00  0.00     0.004 A 
HETATM   19  C10 UNL     1      27.190   7.102  48.830  1.00  0.00     0.019 A 
HETATM   20  C11 UNL     1      25.988   6.869  49.467  1.00  0.00     0.013 A 
HETATM   21 BR1  UNL     1      25.056   8.424  49.977  1.00  0.00    -0.051 Br
HETATM   22  C12 UNL     1      25.573   5.545  49.679  1.00  0.00     0.048 A 
ENDBRANCH  14  16
ENDBRANCH   7  14
BRANCH   1  23
HETATM   23  O1  UNL     1      22.574  -1.044  53.965  1.00  0.00    -0.360 OA
HETATM   24  C1  UNL     1      21.285  -1.510  54.293  1.00  0.00     0.209 C 
ENDBRANCH   1  23
TORSDOF 3
ENDMDL
MODEL 2
REMARK VINA RESULT:      -7.1      1.163      1.542
REMARK  3 active torsions:
REMARK  status: ('A' for Active; 'I' for Inactive)
REMARK    1  A    between atoms: O1_2  and  C2_3 
REMARK    2  A    between atoms: C6_9  and  N2_10 
REMARK    3  A    between atoms: N2_10  and  C7_11 
ROOT
HETATM    1  C2  UNL     1      22.481  -0.204  52.677  1.00  0.00     0.044 C 
HETATM    2  C3  UNL     1      23.502   0.489  53.155  1.00  0.00     0.020 C 
HETATM    3  C4  UNL     1      24.414   1.631  53.109  1.00  0.00     0.080 A 
HETATM    4  P1  UNL     1      26.122   1.220  53.701  1.00  0.00    -0.074 P 
HETATM    5  C5  UNL     1      27.217   1.907  52.418  1.00  0.00     0.122 A 
HETATM    6  N1  UNL     1      26.836   2.528  51.356  1.00  0.00    -0.242 NA
HETATM    7  C6  UNL     1      25.459   2.771  51.025  1.00  0.00     0.136 A 
HETATM    8  C13 UNL     1      24.534   2.336  51.855  1.00  0.00     0.017 A 
HETATM    9  C14 UNL     1      23.333   2.783  51.107  1.00  0.00     0.122 C 
HETATM   10  N3  UNL     1      22.056   2.562  50.965  1.00  0.00    -0.301 NA
HETATM   11  C15 UNL     1      21.144   1.620  51.600  1.00  0.00     0.155 C 
HETATM   12  C16 UNL     1      21.756   0.261  51.468  1.00  0.00     0.086 C 
HETATM   13  H6  UNL     1      26.347  -0.206  53.752  1.00  0.00     0.064 HD
ENDROOT
BRANCH   7  14
HETATM   14  N2  UNL     1      25.346   3.502  49.813  1.00  0.00    -0.340 N 
HETATM   15  H8  UNL     1      25.115   3.571  48.792  1.00  0.00     0.167 HD
BRANCH  14  16
HETATM   16  C7  UNL     1      25.663   4.887  49.749  1.00  0.00     0.035 A 
HETATM   17  C8  UNL     1      25.138   6.077  50.220  1.00  0.00     0.029 A 
HETATM   18  C9  UNL     1      25.658   7.355  49.978  1.00  0.00     0.004 A 
HETATM   19  C10 UNL     1      26.802   7.427  49.198  1.00  0.00     0.019 A 
HETATM   20  C11 UNL     1      27.390   6.287  48.688  1.00  0.00     0.013 A 
HETATM   21 BR1  UNL     1      28.930   6.596  47.648  1.00  0.00    -0.051 Br
HETATM   22  C12 UNL     1      26.815   5.038  48.970  1.00  0.00     0.048 A 
ENDBRANCH  14  16
ENDBRANCH   7  14
BRANCH   1  23
HETATM   23  O1  UNL     1      22.215  -1.346  53.423  1.00  0.00    -0.360 OA
HETATM   24  C1  UNL     1      21.220  -1.420  54.418  1.00  0.00     0.209 C 
ENDBRANCH   1  23
TORSDOF 3
ENDMDL
MODEL 3
REMARK VINA RESULT:      -6.6      3.835      7.547
REMARK  3 active torsions:
REMARK  status: ('A' for Active; 'I' for Inactive)
REMARK    1  A    between atoms: O1_2  and  C2_3 
REMARK    2  A    between atoms: C6_9  and  N2_10 
REMARK    3  A    between atoms: N2_10  and  C7_11 
ROOT
HETATM    1  C2  UNL     1      26.038   4.830  49.565  1.00  0.00     0.044 C 
HETATM    2  C3  UNL     1      24.827   5.127  50.005  1.00  0.00     0.020 C 
HETATM    3  C4  UNL     1      23.547   4.749  50.603  1.00  0.00     0.080 A 
HETATM    4  P1  UNL     1      22.122   5.746  49.962  1.00  0.00    -0.074 P 
HETATM    5  C5  UNL     1      20.857   4.503  49.548  1.00  0.00     0.122 A 
HETATM    6  N1  UNL     1      20.980   3.228  49.688  1.00  0.00    -0.242 NA
HETATM    7  C6  UNL     1      22.161   2.592  50.202  1.00  0.00     0.136 A 
HETATM    8  C13 UNL     1      23.176   3.354  50.550  1.00  0.00     0.017 A 
HETATM    9  C14 UNL     1      24.119   2.292  50.975  1.00  0.00     0.122 C 
HETATM   10  N3  UNL     1      25.385   2.041  51.165  1.00  0.00    -0.301 NA
HETATM   11  C15 UNL     1      26.584   2.854  51.005  1.00  0.00     0.155 C 
HETATM   12  C16 UNL     1      26.539   3.434  49.626  1.00  0.00     0.086 C 
HETATM   13  H6  UNL     1      22.460   6.450  48.746  1.00  0.00     0.064 HD
ENDROOT
BRANCH   7  14
HETATM   14  N2  UNL     1      21.995   1.184  50.269  1.00  0.00    -0.340 N 
HETATM   15  H8  UNL     1      22.232   0.208  49.966  1.00  0.00     0.167 HD
BRANCH  14  16
HETATM   16  C7  UNL     1      21.065   0.588  51.167  1.00  0.00     0.035 A 
HETATM   17  C8  UNL     1      19.696   0.409  51.248  1.00  0.00     0.029 A 
HETATM   18  C9  UNL     1      19.013  -0.216  52.298  1.00  0.00     0.004 A 
HETATM   19  C10 UNL     1      19.782  -0.699  53.346  1.00  0.00     0.019 A 
HETATM   20  C11 UNL     1      21.155  -0.560  53.344  1.00  0.00     0.013 A 
HETATM   21 BR1  UNL     1      22.019  -1.273  54.858  1.00  0.00    -0.051 Br
HETATM   22  C12 UNL     1      21.776   0.078  52.258  1.00  0.00     0.048 A 
ENDBRANCH  14  16
ENDBRANCH   7  14
BRANCH   1  23
HETATM   23  O1  UNL     1      26.715   5.940  49.074  1.00  0.00    -0.360 OA
HETATM   24  C1  UNL     1      27.918   5.867  48.344  1.00  0.00     0.209 C 
ENDBRANCH   1  23
TORSDOF 3
ENDMDL
MODEL 4
REMARK VINA RESULT:      -6.6      2.902      4.336
REMARK  3 active torsions:
REMARK  status: ('A' for Active; 'I' for Inactive)
REMARK    1  A    between atoms: O1_2  and  C2_3 
REMARK    2  A    between atoms: C6_9  and  N2_10 
REMARK    3  A    between atoms: N2_10  and  C7_11 
ROOT
HETATM    1  C2  UNL     1      23.704   2.354  51.737  1.00  0.00     0.044 C 
HETATM    2  C3  UNL     1      23.560   2.835  50.513  1.00  0.00     0.020 C 
HETATM    3  C4  UNL     1      24.092   3.489  49.318  1.00  0.00     0.080 A 
HETATM    4  P1  UNL     1      22.848   4.567  48.465  1.00  0.00    -0.074 P 
HETATM    5  C5  UNL     1      23.735   6.130  48.175  1.00  0.00     0.122 A 
HETATM    6  N1  UNL     1      24.954   6.378  48.510  1.00  0.00    -0.242 NA
HETATM    7  C6  UNL     1      25.806   5.432  49.178  1.00  0.00     0.136 A 
HETATM    8  C13 UNL     1      25.313   4.246  49.463  1.00  0.00     0.017 A 
HETATM    9  C14 UNL     1      26.502   3.665  50.135  1.00  0.00     0.122 C 
HETATM   10  N3  UNL     1      26.871   2.736  50.971  1.00  0.00    -0.301 NA
HETATM   11  C15 UNL     1      26.128   1.721  51.706  1.00  0.00     0.155 C 
HETATM   12  C16 UNL     1      25.018   2.423  52.423  1.00  0.00     0.086 C 
HETATM   13  H6  UNL     1      21.714   4.856  49.313  1.00  0.00     0.064 HD
ENDROOT
BRANCH   7  14
HETATM   14  N2  UNL     1      27.100   5.974  49.392  1.00  0.00    -0.340 N 
HETATM   15  H8  UNL     1      27.940   6.154  49.994  1.00  0.00     0.167 HD
BRANCH  14  16
HETATM   16  C7  UNL     1      27.792   6.673  48.364  1.00  0.00     0.035 A 
HETATM   17  C8  UNL     1      27.517   7.666  47.441  1.00  0.00     0.029 A 
HETATM   18  C9  UNL     1      28.411   8.169  46.488  1.00  0.00     0.004 A 
HETATM   19  C10 UNL     1      29.685   7.620  46.474  1.00  0.00     0.019 A 
HETATM   20  C11 UNL     1      30.041   6.624  47.360  1.00  0.00     0.013 A 
HETATM   21 BR1  UNL     1      31.810   6.005  47.176  1.00  0.00    -0.051 Br
HETATM   22  C12 UNL     1      29.094   6.166  48.290  1.00  0.00     0.048 A 
ENDBRANCH  14  16
ENDBRANCH   7  14
BRANCH   1  23
HETATM   23  O1  UNL     1      22.526   1.816  52.241  1.00  0.00    -0.360 OA
HETATM   24  C1  UNL     1      22.463   0.622  52.986  1.00  0.00     0.209 C 
ENDBRANCH   1  23
TORSDOF 3
ENDMDL
MODEL 5
REMARK VINA RESULT:      -6.5      2.138      3.384
REMARK  3 active torsions:
REMARK  status: ('A' for Active; 'I' for Inactive)
REMARK    1  A    between atoms: O1_2  and  C2_3 
REMARK    2  A    between atoms: C6_9  and  N2_10 
REMARK    3  A    between atoms: N2_10  and  C7_11 
ROOT
HETATM    1  C2  UNL     1      24.525   0.191  53.314  1.00  0.00     0.044 C 
HETATM    2  C3  UNL     1      23.570   0.739  52.582  1.00  0.00     0.020 C 
HETATM    3  C4  UNL     1      23.096   1.741  51.627  1.00  0.00     0.080 A 
HETATM    4  P1  UNL     1      21.340   2.257  51.927  1.00  0.00    -0.074 P 
HETATM    5  C5  UNL     1      21.396   4.077  51.880  1.00  0.00     0.122 A 
HETATM    6  N1  UNL     1      22.448   4.793  51.680  1.00  0.00    -0.242 NA
HETATM    7  C6  UNL     1      23.758   4.244  51.462  1.00  0.00     0.136 A 
HETATM    8  C13 UNL     1      23.891   2.935  51.467  1.00  0.00     0.017 A 
HETATM    9  C14 UNL     1      25.354   2.858  51.236  1.00  0.00     0.122 C 
HETATM   10  N3  UNL     1      26.389   2.078  51.383  1.00  0.00    -0.301 NA
HETATM   11  C15 UNL     1      26.541   0.736  51.929  1.00  0.00     0.155 C 
HETATM   12  C16 UNL     1      25.905   0.739  53.283  1.00  0.00     0.086 C 
HETATM   13  H6  UNL     1      20.881   1.867  53.241  1.00  0.00     0.064 HD
ENDROOT
BRANCH   7  14
HETATM   14  N2  UNL     1      24.712   5.272  51.243  1.00  0.00    -0.340 N 
HETATM   15  H8  UNL     1      25.519   5.868  51.551  1.00  0.00     0.167 HD
BRANCH  14  16
HETATM   16  C7  UNL     1      24.766   5.984  50.012  1.00  0.00     0.035 A 
HETATM   17  C8  UNL     1      23.873   6.548  49.119  1.00  0.00     0.029 A 
HETATM   18  C9  UNL     1      24.208   7.193  47.922  1.00  0.00     0.004 A 
HETATM   19  C10 UNL     1      25.557   7.272  47.611  1.00  0.00     0.019 A 
HETATM   20  C11 UNL     1      26.514   6.734  48.447  1.00  0.00     0.013 A 
HETATM   21 BR1  UNL     1      28.287   6.937  47.845  1.00  0.00    -0.051 Br
HETATM   22  C12 UNL     1      26.107   6.100  49.632  1.00  0.00     0.048 A 
ENDBRANCH  14  16
ENDBRANCH   7  14
BRANCH   1  23
HETATM   23  O1  UNL     1      24.074  -0.893  54.057  1.00  0.00    -0.360 OA
HETATM   24  C1  UNL     1      22.751  -1.029  54.524  1.00  0.00     0.209 C 
ENDBRANCH   1  23
TORSDOF 3
ENDMDL
MODEL 6
REMARK VINA RESULT:      -6.4      4.012      5.782
REMARK  3 active torsions:
REMARK  status: ('A' for Active; 'I' for Inactive)
REMARK    1  A    between atoms: O1_2  and  C2_3 
REMARK    2  A    between atoms: C6_9  and  N2_10 
REMARK    3  A    between atoms: N2_10  and  C7_11 
ROOT
HETATM    1  C2  UNL     1      18.928   3.021  51.485  1.00  0.00     0.044 C 
HETATM    2  C3  UNL     1      19.873   3.877  51.132  1.00  0.00     0.020 C 
HETATM    3  C4  UNL     1      21.206   4.178  50.612  1.00  0.00     0.080 A 
HETATM    4  P1  UNL     1      21.955   5.697  51.366  1.00  0.00    -0.074 P 
HETATM    5  C5  UNL     1      23.636   5.180  51.836  1.00  0.00     0.122 A 
HETATM    6  N1  UNL     1      24.140   4.007  51.661  1.00  0.00    -0.242 NA
HETATM    7  C6  UNL     1      23.428   2.915  51.057  1.00  0.00     0.136 A 
HETATM    8  C13 UNL     1      22.191   3.124  50.659  1.00  0.00     0.017 A 
HETATM    9  C14 UNL     1      21.887   1.764  50.150  1.00  0.00     0.122 C 
HETATM   10  N3  UNL     1      20.902   0.955  49.872  1.00  0.00    -0.301 NA
HETATM   11  C15 UNL     1      19.456   1.096  49.971  1.00  0.00     0.155 C 
HETATM   12  C16 UNL     1      19.153   1.559  51.361  1.00  0.00     0.086 C 
HETATM   13  H6  UNL     1      21.265   6.096  52.572  1.00  0.00     0.064 HD
ENDROOT
BRANCH   7  14
HETATM   14  N2  UNL     1      24.246   1.758  50.971  1.00  0.00    -0.340 N 
HETATM   15  H8  UNL     1      24.826   1.072  50.429  1.00  0.00     0.167 HD
BRANCH  14  16
HETATM   16  C7  UNL     1      24.571   0.992  52.126  1.00  0.00     0.035 A 
HETATM   17  C8  UNL     1      23.896   0.294  53.110  1.00  0.00     0.029 A 
HETATM   18  C9  UNL     1      24.484  -0.376  54.190  1.00  0.00     0.004 A 
HETATM   19  C10 UNL     1      25.868  -0.334  54.273  1.00  0.00     0.019 A 
HETATM   20  C11 UNL     1      26.618   0.341  53.332  1.00  0.00     0.013 A 
HETATM   21 BR1  UNL     1      28.478   0.287  53.624  1.00  0.00    -0.051 Br
HETATM   22  C12 UNL     1      25.962   0.992  52.275  1.00  0.00     0.048 A 
ENDBRANCH  14  16
ENDBRANCH   7  14
BRANCH   1  23
HETATM   23  O1  UNL     1      17.783   3.653  51.954  1.00  0.00    -0.360 OA
HETATM   24  C1  UNL     1      16.477   3.165  51.751  1.00  0.00     0.209 C 
ENDBRANCH   1  23
TORSDOF 3
ENDMDL
MODEL 7
REMARK VINA RESULT:      -6.4      3.598      7.120
REMARK  3 active torsions:
REMARK  status: ('A' for Active; 'I' for Inactive)
REMARK    1  A    between atoms: O1_2  and  C2_3 
REMARK    2  A    between atoms: C6_9  and  N2_10 
REMARK    3  A    between atoms: N2_10  and  C7_11 
ROOT
HETATM    1  C2  UNL     1      25.354   5.432  48.968  1.00  0.00     0.044 C 
HETATM    2  C3  UNL     1      25.610   4.253  49.511  1.00  0.00     0.020 C 
HETATM    3  C4  UNL     1      25.179   3.014  50.158  1.00  0.00     0.080 A 
HETATM    4  P1  UNL     1      26.407   2.370  51.388  1.00  0.00    -0.074 P 
HETATM    5  C5  UNL     1      25.409   2.003  52.866  1.00  0.00     0.122 A 
HETATM    6  N1  UNL     1      24.137   2.173  52.977  1.00  0.00    -0.242 NA
HETATM    7  C6  UNL     1      23.306   2.691  51.924  1.00  0.00     0.136 A 
HETATM    8  C13 UNL     1      23.877   3.009  50.782  1.00  0.00     0.017 A 
HETATM    9  C14 UNL     1      22.676   3.494  50.059  1.00  0.00     0.122 C 
HETATM   10  N3  UNL     1      22.296   4.246  49.064  1.00  0.00    -0.301 NA
HETATM   11  C15 UNL     1      23.035   5.049  48.099  1.00  0.00     0.155 C 
HETATM   12  C16 UNL     1      23.959   5.932  48.878  1.00  0.00     0.086 C 
HETATM   13  H6  UNL     1      27.380   3.375  51.754  1.00  0.00     0.064 HD
ENDROOT
BRANCH   7  14
HETATM   14  N2  UNL     1      21.946   2.739  52.325  1.00  0.00    -0.340 N 
HETATM   15  H8  UNL     1      21.045   3.253  52.486  1.00  0.00     0.167 HD
BRANCH  14  16
HETATM   16  C7  UNL     1      21.261   1.573  52.771  1.00  0.00     0.035 A 
HETATM   17  C8  UNL     1      21.419   0.609  53.749  1.00  0.00     0.029 A 
HETATM   18  C9  UNL     1      20.577  -0.490  53.960  1.00  0.00     0.004 A 
HETATM   19  C10 UNL     1      19.489  -0.617  53.109  1.00  0.00     0.019 A 
HETATM   20  C11 UNL     1      19.259   0.302  52.106  1.00  0.00     0.013 A 
HETATM   21 BR1  UNL     1      17.736  -0.049  51.054  1.00  0.00    -0.051 Br
HETATM   22  C12 UNL     1      20.145   1.381  51.951  1.00  0.00     0.048 A 
ENDBRANCH  14  16
ENDBRANCH   7  14
BRANCH   1  23
HETATM   23  O1  UNL     1      26.503   6.079  48.530  1.00  0.00    -0.360 OA
HETATM   24  C1  UNL     1      27.774   5.473  48.476  1.00  0.00     0.209 C 
ENDBRANCH   1  23
TORSDOF 3
ENDMDL
MODEL 8
REMARK VINA RESULT:      -6.2      4.463      6.974
REMARK  3 active torsions:
REMARK  status: ('A' for Active; 'I' for Inactive)
REMARK    1  A    between atoms: O1_2  and  C2_3 
REMARK    2  A    between atoms: C6_9  and  N2_10 
REMARK    3  A    between atoms: N2_10  and  C7_11 
ROOT
HETATM    1  C2  UNL     1      20.266   4.475  49.146  1.00  0.00     0.044 C 
HETATM    2  C3  UNL     1      21.420   4.785  49.715  1.00  0.00     0.020 C 
HETATM    3  C4  UNL     1      22.732   4.415  50.245  1.00  0.00     0.080 A 
HETATM    4  P1  UNL     1      23.250   5.453  51.691  1.00  0.00    -0.074 P 
HETATM    5  C5  UNL     1      23.813   4.243  52.930  1.00  0.00     0.122 A 
HETATM    6  N1  UNL     1      23.824   2.964  52.782  1.00  0.00    -0.242 NA
HETATM    7  C6  UNL     1      23.384   2.295  51.590  1.00  0.00     0.136 A 
HETATM    8  C13 UNL     1      22.943   3.030  50.591  1.00  0.00     0.017 A 
HETATM    9  C14 UNL     1      22.599   1.941  49.645  1.00  0.00     0.122 C 
HETATM   10  N3  UNL     1      21.866   1.663  48.603  1.00  0.00    -0.301 NA
HETATM   11  C15 UNL     1      20.930   2.457  47.818  1.00  0.00     0.155 C 
HETATM   12  C16 UNL     1      19.961   3.069  48.780  1.00  0.00     0.086 C 
HETATM   13  H6  UNL     1      22.137   6.178  52.260  1.00  0.00     0.064 HD
ENDROOT
BRANCH   7  14
HETATM   14  N2  UNL     1      23.541   0.888  51.706  1.00  0.00    -0.340 N 
HETATM   15  H8  UNL     1      23.923  -0.031  51.376  1.00  0.00     0.167 HD
BRANCH  14  16
HETATM   16  C7  UNL     1      22.945   0.161  52.774  1.00  0.00     0.035 A 
HETATM   17  C8  UNL     1      23.359  -0.477  53.929  1.00  0.00     0.029 A 
HETATM   18  C9  UNL     1      22.532  -1.166  54.825  1.00  0.00     0.004 A 
HETATM   19  C10 UNL     1      21.179  -1.207  54.524  1.00  0.00     0.019 A 
HETATM   20  C11 UNL     1      20.684  -0.596  53.390  1.00  0.00     0.013 A 
HETATM   21 BR1  UNL     1      18.823  -0.771  53.153  1.00  0.00    -0.051 Br
HETATM   22  C12 UNL     1      21.570   0.077  52.534  1.00  0.00     0.048 A 
ENDBRANCH  14  16
ENDBRANCH   7  14
BRANCH   1  23
HETATM   23  O1  UNL     1      19.450   5.584  48.959  1.00  0.00    -0.360 OA
HETATM   24  C1  UNL     1      19.833   6.904  49.269  1.00  0.00     0.209 C 
ENDBRANCH   1  23
TORSDOF 3
ENDMDL
MODEL 9
REMARK VINA RESULT:      -6.2      2.537      3.518
REMARK  3 active torsions:
REMARK  status: ('A' for Active; 'I' for Inactive)
REMARK    1  A    between atoms: O1_2  and  C2_3 
REMARK    2  A    between atoms: C6_9  and  N2_10 
REMARK    3  A    between atoms: N2_10  and  C7_11 
ROOT
HETATM    1  C2  UNL     1      22.158   1.395  51.556  1.00  0.00     0.044 C 
HETATM    2  C3  UNL     1      22.338   1.822  50.316  1.00  0.00     0.020 C 
HETATM    3  C4  UNL     1      23.124   2.515  49.296  1.00  0.00     0.080 A 
HETATM    4  P1  UNL     1      22.076   3.387  48.039  1.00  0.00    -0.074 P 
HETATM    5  C5  UNL     1      22.806   5.052  47.928  1.00  0.00     0.122 A 
HETATM    6  N1  UNL     1      23.821   5.476  48.597  1.00  0.00    -0.242 NA
HETATM    7  C6  UNL     1      24.539   4.675  49.550  1.00  0.00     0.136 A 
HETATM    8  C13 UNL     1      24.136   3.438  49.751  1.00  0.00     0.017 A 
HETATM    9  C14 UNL     1      25.124   3.046  50.786  1.00  0.00     0.122 C 
HETATM   10  N3  UNL     1      25.333   2.198  51.754  1.00  0.00    -0.301 NA
HETATM   11  C15 UNL     1      24.534   1.108  52.297  1.00  0.00     0.155 C 
HETATM   12  C16 UNL     1      23.179   1.665  52.599  1.00  0.00     0.086 C 
HETATM   13  H6  UNL     1      20.710   3.536  48.486  1.00  0.00     0.064 HD
ENDROOT
BRANCH   7  14
HETATM   14  N2  UNL     1      25.626   5.398  50.108  1.00  0.00    -0.340 N 
HETATM   15  H8  UNL     1      26.117   5.856  50.914  1.00  0.00     0.167 HD
BRANCH  14  16
HETATM   16  C7  UNL     1      26.738   5.796  49.314  1.00  0.00     0.035 A 
HETATM   17  C8  UNL     1      27.770   5.186  48.625  1.00  0.00     0.029 A 
HETATM   18  C9  UNL     1      28.785   5.843  47.919  1.00  0.00     0.004 A 
HETATM   19  C10 UNL     1      28.747   7.229  47.914  1.00  0.00     0.019 A 
HETATM   20  C11 UNL     1      27.751   7.916  48.577  1.00  0.00     0.013 A 
HETATM   21 BR1  UNL     1      27.878   9.792  48.458  1.00  0.00    -0.051 Br
HETATM   22  C12 UNL     1      26.764   7.194  49.266  1.00  0.00     0.048 A 
ENDBRANCH  14  16
ENDBRANCH   7  14
BRANCH   1  23
HETATM   23  O1  UNL     1      20.960   0.710  51.716  1.00  0.00    -0.360 OA
HETATM   24  C1  UNL     1      19.746   1.098  51.114  1.00  0.00     0.209 C 
ENDBRANCH   1  23
TORSDOF 3
ENDMDL
