MODEL 1
REMARK VINA RESULT:      -6.6      0.000      0.000
REMARK  7 active torsions:
REMARK  status: ('A' for Active; 'I' for Inactive)
REMARK    1  A    between atoms: C2_2  and  O1_3 
REMARK    2  A    between atoms: C2_2  and  C4_5 
REMARK    3  A    between atoms: C5_6  and  N1_7 
REMARK    4  A    between atoms: N1_7  and  C6_8 
REMARK    5  A    between atoms: C6_8  and  C7_9 
REMARK    6  A    between atoms: C8_10  and  N2_11 
REMARK    7  A    between atoms: C8_10  and  C9_12 
ROOT
HETATM    1  C7  UNL     1      23.846   1.290  52.442  1.00  0.00     0.022 C 
HETATM    2  C8  UNL     1      24.913   1.940  52.864  1.00  0.00     0.033 C 
ENDROOT
BRANCH   1   3
HETATM    3  C6  UNL     1      22.528   1.945  52.239  1.00  0.00     0.149 C 
BRANCH   3   4
HETATM    4  N1  UNL     1      21.983   1.446  50.993  1.00  0.00    -0.389 N 
HETATM    5  H6  UNL     1      21.277   0.691  51.025  1.00  0.00     0.159 HD
BRANCH   4   6
HETATM    6  C5  UNL     1      22.275   1.849  49.668  1.00  0.00     0.012 A 
HETATM    7  C4  UNL     1      23.010   2.659  48.977  1.00  0.00    -0.025 A 
HETATM    8  C16 UNL     1      22.497   2.227  47.701  1.00  0.00     0.047 A 
HETATM    9  C15 UNL     1      21.650   1.300  48.489  1.00  0.00     0.062 A 
BRANCH   7  10
HETATM   10  C2  UNL     1      23.981   3.629  49.338  1.00  0.00    -0.027 C 
HETATM   11  C1  UNL     1      23.986   4.909  48.921  1.00  0.00     0.025 C 
BRANCH  10  12
HETATM   12  O1  UNL     1      25.112   3.847  50.058  1.00  0.00     0.000 OA
HETATM   13  C3  UNL     1      26.333   3.258  49.705  1.00  0.00     0.000 C 
ENDBRANCH  10  12
ENDBRANCH   7  10
ENDBRANCH   4   6
ENDBRANCH   3   4
ENDBRANCH   1   3
BRANCH   2  14
HETATM   14  N2  UNL     1      24.764   3.329  53.127  1.00  0.00    -0.399 N 
HETATM   15  H10 UNL     1      24.487   3.871  53.976  1.00  0.00     0.156 HD
HETATM   16  H11 UNL     1      25.008   3.787  52.216  1.00  0.00     0.156 HD
ENDBRANCH   2  14
BRANCH   2  17
HETATM   17  C9  UNL     1      26.190   1.264  53.047  1.00  0.00    -0.010 A 
HETATM   18  C10 UNL     1      26.288  -0.089  52.756  1.00  0.00     0.015 A 
HETATM   19  C11 UNL     1      27.493  -0.763  52.923  1.00  0.00     0.024 A 
HETATM   20  C12 UNL     1      28.550  -0.022  53.382  1.00  0.00     0.034 A 
HETATM   21 CL1  UNL     1      30.090  -0.823  53.611  1.00  0.00    -0.084 Cl
HETATM   22  C13 UNL     1      28.520   1.333  53.691  1.00  0.00     0.024 A 
HETATM   23  C14 UNL     1      27.283   1.966  53.506  1.00  0.00     0.015 A 
ENDBRANCH   2  17
TORSDOF 7
ENDMDL
MODEL 2
REMARK VINA RESULT:      -6.5      2.451      3.921
REMARK  7 active torsions:
REMARK  status: ('A' for Active; 'I' for Inactive)
REMARK    1  A    between atoms: C2_2  and  O1_3 
REMARK    2  A    between atoms: C2_2  and  C4_5 
REMARK    3  A    between atoms: C5_6  and  N1_7 
REMARK    4  A    between atoms: N1_7  and  C6_8 
REMARK    5  A    between atoms: C6_8  and  C7_9 
REMARK    6  A    between atoms: C8_10  and  N2_11 
REMARK    7  A    between atoms: C8_10  and  C9_12 
ROOT
HETATM    1  C7  UNL     1      24.435   1.719  51.581  1.00  0.00     0.022 C 
HETATM    2  C8  UNL     1      25.242   2.069  52.563  1.00  0.00     0.033 C 
ENDROOT
BRANCH   1   3
HETATM    3  C6  UNL     1      23.206   2.479  51.235  1.00  0.00     0.149 C 
BRANCH   3   4
HETATM    4  N1  UNL     1      22.260   1.540  50.668  1.00  0.00    -0.389 N 
HETATM    5  H6  UNL     1      22.358   1.275  49.673  1.00  0.00     0.159 HD
BRANCH   4   6
HETATM    6  C5  UNL     1      21.167   0.892  51.289  1.00  0.00     0.012 A 
HETATM    7  C4  UNL     1      20.851   0.142  52.295  1.00  0.00    -0.025 A 
HETATM    8  C16 UNL     1      19.449   0.080  51.963  1.00  0.00     0.047 A 
HETATM    9  C15 UNL     1      19.807   0.936  50.807  1.00  0.00     0.062 A 
BRANCH   7  10
HETATM   10  C2  UNL     1      21.609  -0.423  53.354  1.00  0.00    -0.027 C 
HETATM   11  C1  UNL     1      22.844  -0.944  53.229  1.00  0.00     0.025 C 
BRANCH  10  12
HETATM   12  O1  UNL     1      21.610  -0.709  54.682  1.00  0.00     0.000 OA
HETATM   13  C3  UNL     1      22.703  -1.330  55.300  1.00  0.00     0.000 C 
ENDBRANCH  10  12
ENDBRANCH   7  10
ENDBRANCH   4   6
ENDBRANCH   3   4
ENDBRANCH   1   3
BRANCH   2  14
HETATM   14  N2  UNL     1      24.895   3.229  53.307  1.00  0.00    -0.399 N 
HETATM   15  H10 UNL     1      24.386   3.376  54.208  1.00  0.00     0.156 HD
HETATM   16  H11 UNL     1      25.278   4.020  52.735  1.00  0.00     0.156 HD
ENDBRANCH   2  14
BRANCH   2  17
HETATM   17  C9  UNL     1      26.442   1.301  52.869  1.00  0.00    -0.010 A 
HETATM   18  C10 UNL     1      27.544   1.950  53.405  1.00  0.00     0.015 A 
HETATM   19  C11 UNL     1      28.704   1.245  53.705  1.00  0.00     0.024 A 
HETATM   20  C12 UNL     1      28.687  -0.100  53.443  1.00  0.00     0.034 A 
HETATM   21 CL1  UNL     1      30.124  -1.035  53.802  1.00  0.00    -0.084 Cl
HETATM   22  C13 UNL     1      27.618  -0.811  52.910  1.00  0.00     0.024 A 
HETATM   23  C14 UNL     1      26.473  -0.055  52.625  1.00  0.00     0.015 A 
ENDBRANCH   2  17
TORSDOF 7
ENDMDL
MODEL 3
REMARK VINA RESULT:      -6.4      3.033      4.821
REMARK  7 active torsions:
REMARK  status: ('A' for Active; 'I' for Inactive)
REMARK    1  A    between atoms: C2_2  and  O1_3 
REMARK    2  A    between atoms: C2_2  and  C4_5 
REMARK    3  A    between atoms: C5_6  and  N1_7 
REMARK    4  A    between atoms: N1_7  and  C6_8 
REMARK    5  A    between atoms: C6_8  and  C7_9 
REMARK    6  A    between atoms: C8_10  and  N2_11 
REMARK    7  A    between atoms: C8_10  and  C9_12 
ROOT
HETATM    1  C7  UNL     1      23.908   1.228  52.253  1.00  0.00     0.022 C 
HETATM    2  C8  UNL     1      24.899   1.849  52.863  1.00  0.00     0.033 C 
ENDROOT
BRANCH   1   3
HETATM    3  C6  UNL     1      22.573   1.846  52.044  1.00  0.00     0.149 C 
BRANCH   3   4
HETATM    4  N1  UNL     1      21.749   1.497  53.183  1.00  0.00    -0.389 N 
HETATM    5  H6  UNL     1      21.391   2.254  53.789  1.00  0.00     0.159 HD
BRANCH   4   6
HETATM    6  C5  UNL     1      21.332   0.218  53.621  1.00  0.00     0.012 A 
HETATM    7  C4  UNL     1      20.343  -0.614  53.573  1.00  0.00    -0.025 A 
HETATM    8  C16 UNL     1      20.994  -1.622  54.373  1.00  0.00     0.047 A 
HETATM    9  C15 UNL     1      22.129  -0.669  54.434  1.00  0.00     0.062 A 
BRANCH   7  10
HETATM   10  C2  UNL     1      19.066  -0.563  52.954  1.00  0.00    -0.027 C 
HETATM   11  C1  UNL     1      18.032  -1.373  53.248  1.00  0.00     0.025 C 
BRANCH  10  12
HETATM   12  O1  UNL     1      18.315   0.076  52.020  1.00  0.00     0.000 OA
HETATM   13  C3  UNL     1      18.875   0.551  50.826  1.00  0.00     0.000 C 
ENDBRANCH  10  12
ENDBRANCH   7  10
ENDBRANCH   4   6
ENDBRANCH   3   4
ENDBRANCH   1   3
BRANCH   2  14
HETATM   14  N2  UNL     1      24.648   3.167  53.329  1.00  0.00    -0.399 N 
HETATM   15  H10 UNL     1      23.994   3.923  53.025  1.00  0.00     0.156 HD
HETATM   16  H11 UNL     1      25.311   3.281  54.134  1.00  0.00     0.156 HD
ENDBRANCH   2  14
BRANCH   2  17
HETATM   17  C9  UNL     1      26.196   1.211  53.046  1.00  0.00    -0.010 A 
HETATM   18  C10 UNL     1      27.276   1.978  53.456  1.00  0.00     0.015 A 
HETATM   19  C11 UNL     1      28.527   1.398  53.637  1.00  0.00     0.024 A 
HETATM   20  C12 UNL     1      28.620   0.054  53.389  1.00  0.00     0.034 A 
HETATM   21 CL1  UNL     1      30.174  -0.725  53.599  1.00  0.00    -0.084 Cl
HETATM   22  C13 UNL     1      27.579  -0.771  52.977  1.00  0.00     0.024 A 
HETATM   23  C14 UNL     1      26.340  -0.139  52.809  1.00  0.00     0.015 A 
ENDBRANCH   2  17
TORSDOF 7
ENDMDL
MODEL 4
REMARK VINA RESULT:      -6.4      3.832      6.857
REMARK  7 active torsions:
REMARK  status: ('A' for Active; 'I' for Inactive)
REMARK    1  A    between atoms: C2_2  and  O1_3 
REMARK    2  A    between atoms: C2_2  and  C4_5 
REMARK    3  A    between atoms: C5_6  and  N1_7 
REMARK    4  A    between atoms: N1_7  and  C6_8 
REMARK    5  A    between atoms: C6_8  and  C7_9 
REMARK    6  A    between atoms: C8_10  and  N2_11 
REMARK    7  A    between atoms: C8_10  and  C9_12 
ROOT
HETATM    1  C7  UNL     1      23.944   1.919  52.911  1.00  0.00     0.022 C 
HETATM    2  C8  UNL     1      23.082   1.515  51.998  1.00  0.00     0.033 C 
ENDROOT
BRANCH   1   3
HETATM    3  C6  UNL     1      25.188   2.657  52.576  1.00  0.00     0.149 C 
BRANCH   3   4
HETATM    4  N1  UNL     1      26.138   2.412  53.642  1.00  0.00    -0.389 N 
HETATM    5  H6  UNL     1      25.909   2.734  54.597  1.00  0.00     0.159 HD
BRANCH   4   6
HETATM    6  C5  UNL     1      27.395   1.765  53.583  1.00  0.00     0.012 A 
HETATM    7  C4  UNL     1      27.952   0.613  53.396  1.00  0.00    -0.025 A 
HETATM    8  C16 UNL     1      29.299   1.103  53.553  1.00  0.00     0.047 A 
HETATM    9  C15 UNL     1      28.665   2.425  53.772  1.00  0.00     0.062 A 
BRANCH   7  10
HETATM   10  C2  UNL     1      27.430  -0.680  53.128  1.00  0.00    -0.027 C 
HETATM   11  C1  UNL     1      26.363  -0.937  52.348  1.00  0.00     0.025 C 
BRANCH  10  12
HETATM   12  O1  UNL     1      27.585  -2.008  53.372  1.00  0.00     0.000 OA
HETATM   13  C3  UNL     1      28.796  -2.665  53.120  1.00  0.00     0.000 C 
ENDBRANCH  10  12
ENDBRANCH   7  10
ENDBRANCH   4   6
ENDBRANCH   3   4
ENDBRANCH   1   3
BRANCH   2  14
HETATM   14  N2  UNL     1      23.385   1.814  50.643  1.00  0.00    -0.399 N 
HETATM   15  H10 UNL     1      24.087   2.440  50.187  1.00  0.00     0.156 HD
HETATM   16  H11 UNL     1      22.705   1.231  50.096  1.00  0.00     0.156 HD
ENDBRANCH   2  14
BRANCH   2  17
HETATM   17  C9  UNL     1      21.868   0.797  52.365  1.00  0.00    -0.010 A 
HETATM   18  C10 UNL     1      21.829   0.104  53.566  1.00  0.00     0.015 A 
HETATM   19  C11 UNL     1      20.686  -0.593  53.944  1.00  0.00     0.024 A 
HETATM   20  C12 UNL     1      19.629  -0.552  53.073  1.00  0.00     0.034 A 
HETATM   21 CL1  UNL     1      18.166  -1.414  53.499  1.00  0.00    -0.084 Cl
HETATM   22  C13 UNL     1      19.603   0.123  51.857  1.00  0.00     0.024 A 
HETATM   23  C14 UNL     1      20.778   0.809  51.523  1.00  0.00     0.015 A 
ENDBRANCH   2  17
TORSDOF 7
ENDMDL
MODEL 5
REMARK VINA RESULT:      -6.4      3.525      5.184
REMARK  7 active torsions:
REMARK  status: ('A' for Active; 'I' for Inactive)
REMARK    1  A    between atoms: C2_2  and  O1_3 
REMARK    2  A    between atoms: C2_2  and  C4_5 
REMARK    3  A    between atoms: C5_6  and  N1_7 
REMARK    4  A    between atoms: N1_7  and  C6_8 
REMARK    5  A    between atoms: C6_8  and  C7_9 
REMARK    6  A    between atoms: C8_10  and  N2_11 
REMARK    7  A    between atoms: C8_10  and  C9_12 
ROOT
HETATM    1  C7  UNL     1      25.196   0.849  52.261  1.00  0.00     0.022 C 
HETATM    2  C8  UNL     1      24.666   0.201  53.280  1.00  0.00     0.033 C 
ENDROOT
BRANCH   1   3
HETATM    3  C6  UNL     1      26.643   1.175  52.175  1.00  0.00     0.149 C 
BRANCH   3   4
HETATM    4  N1  UNL     1      26.752   2.583  51.854  1.00  0.00    -0.389 N 
HETATM    5  H6  UNL     1      27.388   3.174  52.415  1.00  0.00     0.159 HD
BRANCH   4   6
HETATM    6  C5  UNL     1      26.095   3.319  50.840  1.00  0.00     0.012 A 
HETATM    7  C4  UNL     1      24.991   3.936  50.567  1.00  0.00    -0.025 A 
HETATM    8  C16 UNL     1      25.397   4.326  49.239  1.00  0.00     0.047 A 
HETATM    9  C15 UNL     1      26.662   3.617  49.547  1.00  0.00     0.062 A 
BRANCH   7  10
HETATM   10  C2  UNL     1      23.800   4.158  51.306  1.00  0.00    -0.027 C 
HETATM   11  C1  UNL     1      23.701   4.101  52.648  1.00  0.00     0.025 C 
BRANCH  10  12
HETATM   12  O1  UNL     1      22.479   4.458  51.210  1.00  0.00     0.000 OA
HETATM   13  C3  UNL     1      21.554   4.023  52.168  1.00  0.00     0.000 C 
ENDBRANCH  10  12
ENDBRANCH   7  10
ENDBRANCH   4   6
ENDBRANCH   3   4
ENDBRANCH   1   3
BRANCH   2  14
HETATM   14  N2  UNL     1      25.542  -0.188  54.328  1.00  0.00    -0.399 N 
HETATM   15  H10 UNL     1      25.474  -0.149  55.370  1.00  0.00     0.156 HD
HETATM   16  H11 UNL     1      26.380  -0.572  53.828  1.00  0.00     0.156 HD
ENDBRANCH   2  14
BRANCH   2  17
HETATM   17  C9  UNL     1      23.242  -0.105  53.326  1.00  0.00    -0.010 A 
HETATM   18  C10 UNL     1      22.413   0.378  52.324  1.00  0.00     0.015 A 
HETATM   19  C11 UNL     1      21.049   0.105  52.341  1.00  0.00     0.024 A 
HETATM   20  C12 UNL     1      20.590  -0.653  53.387  1.00  0.00     0.034 A 
HETATM   21 CL1  UNL     1      18.881  -1.024  53.457  1.00  0.00    -0.084 Cl
HETATM   22  C13 UNL     1      21.366  -1.167  54.420  1.00  0.00     0.024 A 
HETATM   23  C14 UNL     1      22.733  -0.864  54.357  1.00  0.00     0.015 A 
ENDBRANCH   2  17
TORSDOF 7
ENDMDL
MODEL 6
REMARK VINA RESULT:      -6.4      3.497      6.186
REMARK  7 active torsions:
REMARK  status: ('A' for Active; 'I' for Inactive)
REMARK    1  A    between atoms: C2_2  and  O1_3 
REMARK    2  A    between atoms: C2_2  and  C4_5 
REMARK    3  A    between atoms: C5_6  and  N1_7 
REMARK    4  A    between atoms: N1_7  and  C6_8 
REMARK    5  A    between atoms: C6_8  and  C7_9 
REMARK    6  A    between atoms: C8_10  and  N2_11 
REMARK    7  A    between atoms: C8_10  and  C9_12 
ROOT
HETATM    1  C7  UNL     1      25.006   3.210  50.077  1.00  0.00     0.022 C 
HETATM    2  C8  UNL     1      24.945   4.490  49.767  1.00  0.00     0.033 C 
ENDROOT
BRANCH   1   3
HETATM    3  C6  UNL     1      23.884   2.479  50.721  1.00  0.00     0.149 C 
BRANCH   3   4
HETATM    4  N1  UNL     1      24.344   2.035  52.020  1.00  0.00    -0.389 N 
HETATM    5  H6  UNL     1      25.035   2.612  52.528  1.00  0.00     0.159 HD
BRANCH   4   6
HETATM    6  C5  UNL     1      23.979   0.876  52.746  1.00  0.00     0.012 A 
HETATM    7  C4  UNL     1      24.470  -0.125  53.401  1.00  0.00    -0.025 A 
HETATM    8  C16 UNL     1      23.187  -0.700  53.722  1.00  0.00     0.047 A 
HETATM    9  C15 UNL     1      22.620   0.444  52.969  1.00  0.00     0.062 A 
BRANCH   7  10
HETATM   10  C2  UNL     1      25.798  -0.524  53.703  1.00  0.00    -0.027 C 
HETATM   11  C1  UNL     1      26.652  -1.092  52.831  1.00  0.00     0.025 C 
BRANCH  10  12
HETATM   12  O1  UNL     1      26.739  -0.584  54.681  1.00  0.00     0.000 OA
HETATM   13  C3  UNL     1      27.915   0.177  54.618  1.00  0.00     0.000 C 
ENDBRANCH  10  12
ENDBRANCH   7  10
ENDBRANCH   4   6
ENDBRANCH   3   4
ENDBRANCH   1   3
BRANCH   2  14
HETATM   14  N2  UNL     1      23.738   5.175  50.074  1.00  0.00    -0.399 N 
HETATM   15  H10 UNL     1      23.308   5.501  50.969  1.00  0.00     0.156 HD
HETATM   16  H11 UNL     1      23.285   5.322  49.140  1.00  0.00     0.156 HD
ENDBRANCH   2  14
BRANCH   2  17
HETATM   17  C9  UNL     1      26.065   5.171  49.131  1.00  0.00    -0.010 A 
HETATM   18  C10 UNL     1      25.895   6.467  48.666  1.00  0.00     0.015 A 
HETATM   19  C11 UNL     1      26.944   7.143  48.053  1.00  0.00     0.024 A 
HETATM   20  C12 UNL     1      28.127   6.461  47.941  1.00  0.00     0.034 A 
HETATM   21 CL1  UNL     1      29.481   7.266  47.176  1.00  0.00    -0.084 Cl
HETATM   22  C13 UNL     1      28.365   5.165  48.386  1.00  0.00     0.024 A 
HETATM   23  C14 UNL     1      27.276   4.528  48.996  1.00  0.00     0.015 A 
ENDBRANCH   2  17
TORSDOF 7
ENDMDL
MODEL 7
REMARK VINA RESULT:      -6.2      3.889      6.386
REMARK  7 active torsions:
REMARK  status: ('A' for Active; 'I' for Inactive)
REMARK    1  A    between atoms: C2_2  and  O1_3 
REMARK    2  A    between atoms: C2_2  and  C4_5 
REMARK    3  A    between atoms: C5_6  and  N1_7 
REMARK    4  A    between atoms: N1_7  and  C6_8 
REMARK    5  A    between atoms: C6_8  and  C7_9 
REMARK    6  A    between atoms: C8_10  and  N2_11 
REMARK    7  A    between atoms: C8_10  and  C9_12 
ROOT
HETATM    1  C7  UNL     1      24.561  -0.444  53.968  1.00  0.00     0.022 C 
HETATM    2  C8  UNL     1      23.377  -0.823  54.411  1.00  0.00     0.033 C 
ENDROOT
BRANCH   1   3
HETATM    3  C6  UNL     1      25.822  -0.707  54.707  1.00  0.00     0.149 C 
BRANCH   3   4
HETATM    4  N1  UNL     1      26.446   0.573  54.971  1.00  0.00    -0.389 N 
HETATM    5  H6  UNL     1      26.278   1.030  55.882  1.00  0.00     0.159 HD
BRANCH   4   6
HETATM    6  C5  UNL     1      27.295   1.338  54.137  1.00  0.00     0.012 A 
HETATM    7  C4  UNL     1      27.310   2.043  53.052  1.00  0.00    -0.025 A 
HETATM    8  C16 UNL     1      28.713   2.363  53.136  1.00  0.00     0.047 A 
HETATM    9  C15 UNL     1      28.702   1.553  54.377  1.00  0.00     0.062 A 
BRANCH   7  10
HETATM   10  C2  UNL     1      26.305   2.388  52.110  1.00  0.00    -0.027 C 
HETATM   11  C1  UNL     1      26.498   2.502  50.782  1.00  0.00     0.025 C 
BRANCH  10  12
HETATM   12  O1  UNL     1      24.994   2.709  51.959  1.00  0.00     0.000 OA
HETATM   13  C3  UNL     1      24.217   3.153  53.037  1.00  0.00     0.000 C 
ENDBRANCH  10  12
ENDBRANCH   7  10
ENDBRANCH   4   6
ENDBRANCH   3   4
ENDBRANCH   1   3
BRANCH   2  14
HETATM   14  N2  UNL     1      23.339  -1.510  55.653  1.00  0.00    -0.399 N 
HETATM   15  H10 UNL     1      22.620  -2.108  56.120  1.00  0.00     0.156 HD
HETATM   16  H11 UNL     1      24.269  -1.297  56.089  1.00  0.00     0.156 HD
ENDBRANCH   2  14
BRANCH   2  17
HETATM   17  C9  UNL     1      22.162  -0.551  53.654  1.00  0.00    -0.010 A 
HETATM   18  C10 UNL     1      20.933  -0.883  54.204  1.00  0.00     0.015 A 
HETATM   19  C11 UNL     1      19.755  -0.639  53.507  1.00  0.00     0.024 A 
HETATM   20  C12 UNL     1      19.886  -0.062  52.270  1.00  0.00     0.034 A 
HETATM   21 CL1  UNL     1      18.434   0.266  51.348  1.00  0.00    -0.084 Cl
HETATM   22  C13 UNL     1      21.084   0.296  51.663  1.00  0.00     0.024 A 
HETATM   23  C14 UNL     1      22.241   0.029  52.407  1.00  0.00     0.015 A 
ENDBRANCH   2  17
TORSDOF 7
ENDMDL
MODEL 8
REMARK VINA RESULT:      -6.0      4.858      7.278
REMARK  7 active torsions:
REMARK  status: ('A' for Active; 'I' for Inactive)
REMARK    1  A    between atoms: C2_2  and  O1_3 
REMARK    2  A    between atoms: C2_2  and  C4_5 
REMARK    3  A    between atoms: C5_6  and  N1_7 
REMARK    4  A    between atoms: N1_7  and  C6_8 
REMARK    5  A    between atoms: C6_8  and  C7_9 
REMARK    6  A    between atoms: C8_10  and  N2_11 
REMARK    7  A    between atoms: C8_10  and  C9_12 
ROOT
HETATM    1  C7  UNL     1      27.618   4.804  48.576  1.00  0.00     0.022 C 
HETATM    2  C8  UNL     1      28.086   6.036  48.523  1.00  0.00     0.033 C 
ENDROOT
BRANCH   1   3
HETATM    3  C6  UNL     1      26.378   4.442  49.309  1.00  0.00     0.149 C 
BRANCH   3   4
HETATM    4  N1  UNL     1      26.775   3.792  50.541  1.00  0.00    -0.389 N 
HETATM    5  H6  UNL     1      27.634   4.114  51.019  1.00  0.00     0.159 HD
BRANCH   4   6
HETATM    6  C5  UNL     1      26.143   2.733  51.234  1.00  0.00     0.012 A 
HETATM    7  C4  UNL     1      26.356   1.800  52.105  1.00  0.00    -0.025 A 
HETATM    8  C16 UNL     1      25.004   1.299  52.076  1.00  0.00     0.047 A 
HETATM    9  C15 UNL     1      24.757   2.363  51.075  1.00  0.00     0.062 A 
BRANCH   7  10
HETATM   10  C2  UNL     1      27.507   1.405  52.836  1.00  0.00    -0.027 C 
HETATM   11  C1  UNL     1      28.319   2.242  53.509  1.00  0.00     0.025 C 
BRANCH  10  12
HETATM   12  O1  UNL     1      28.270   0.345  53.208  1.00  0.00     0.000 OA
HETATM   13  C3  UNL     1      29.468   0.514  53.914  1.00  0.00     0.000 C 
ENDBRANCH  10  12
ENDBRANCH   7  10
ENDBRANCH   4   6
ENDBRANCH   3   4
ENDBRANCH   1   3
BRANCH   2  14
HETATM   14  N2  UNL     1      27.349   7.040  49.206  1.00  0.00    -0.399 N 
HETATM   15  H10 UNL     1      27.459   7.501  50.138  1.00  0.00     0.156 HD
HETATM   16  H11 UNL     1      26.573   7.280  48.543  1.00  0.00     0.156 HD
ENDBRANCH   2  14
BRANCH   2  17
HETATM   17  C9  UNL     1      29.304   6.353  47.789  1.00  0.00    -0.010 A 
HETATM   18  C10 UNL     1      30.403   5.515  47.906  1.00  0.00     0.015 A 
HETATM   19  C11 UNL     1      31.581   5.792  47.221  1.00  0.00     0.024 A 
HETATM   20  C12 UNL     1      31.584   6.920  46.442  1.00  0.00     0.034 A 
HETATM   21 CL1  UNL     1      33.043   7.316  45.559  1.00  0.00    -0.084 Cl
HETATM   22  C13 UNL     1      30.520   7.800  46.281  1.00  0.00     0.024 A 
HETATM   23  C14 UNL     1      29.357   7.476  46.992  1.00  0.00     0.015 A 
ENDBRANCH   2  17
TORSDOF 7
ENDMDL
MODEL 9
REMARK VINA RESULT:      -6.0      4.476      7.354
REMARK  7 active torsions:
REMARK  status: ('A' for Active; 'I' for Inactive)
REMARK    1  A    between atoms: C2_2  and  O1_3 
REMARK    2  A    between atoms: C2_2  and  C4_5 
REMARK    3  A    between atoms: C5_6  and  N1_7 
REMARK    4  A    between atoms: N1_7  and  C6_8 
REMARK    5  A    between atoms: C6_8  and  C7_9 
REMARK    6  A    between atoms: C8_10  and  N2_11 
REMARK    7  A    between atoms: C8_10  and  C9_12 
ROOT
HETATM    1  C7  UNL     1      23.090  -0.299  53.245  1.00  0.00     0.022 C 
HETATM    2  C8  UNL     1      21.929  -0.766  53.661  1.00  0.00     0.033 C 
ENDROOT
BRANCH   1   3
HETATM    3  C6  UNL     1      24.368  -0.561  53.955  1.00  0.00     0.149 C 
BRANCH   3   4
HETATM    4  N1  UNL     1      25.362  -0.891  52.953  1.00  0.00    -0.389 N 
HETATM    5  H6  UNL     1      25.049  -1.081  51.987  1.00  0.00     0.159 HD
BRANCH   4   6
HETATM    6  C5  UNL     1      26.765  -0.997  53.093  1.00  0.00     0.012 A 
HETATM    7  C4  UNL     1      27.818  -0.333  53.444  1.00  0.00    -0.025 A 
HETATM    8  C16 UNL     1      28.734  -1.419  53.198  1.00  0.00     0.047 A 
HETATM    9  C15 UNL     1      27.530  -2.183  52.791  1.00  0.00     0.062 A 
BRANCH   7  10
HETATM   10  C2  UNL     1      28.013   0.994  53.910  1.00  0.00    -0.027 C 
HETATM   11  C1  UNL     1      29.190   1.506  54.315  1.00  0.00     0.025 C 
BRANCH  10  12
HETATM   12  O1  UNL     1      27.397   2.178  54.164  1.00  0.00     0.000 OA
HETATM   13  C3  UNL     1      26.129   2.473  53.647  1.00  0.00     0.000 C 
ENDBRANCH  10  12
ENDBRANCH   7  10
ENDBRANCH   4   6
ENDBRANCH   3   4
ENDBRANCH   1   3
BRANCH   2  14
HETATM   14  N2  UNL     1      21.933  -1.553  54.844  1.00  0.00    -0.399 N 
HETATM   15  H10 UNL     1      21.484  -2.460  55.103  1.00  0.00     0.156 HD
HETATM   16  H11 UNL     1      22.538  -1.010  55.507  1.00  0.00     0.156 HD
ENDBRANCH   2  14
BRANCH   2  17
HETATM   17  C9  UNL     1      20.697  -0.492  52.935  1.00  0.00    -0.010 A 
HETATM   18  C10 UNL     1      20.753   0.240  51.758  1.00  0.00     0.015 A 
HETATM   19  C11 UNL     1      19.593   0.521  51.043  1.00  0.00     0.024 A 
HETATM   20  C12 UNL     1      18.421   0.039  51.565  1.00  0.00     0.034 A 
HETATM   21 CL1  UNL     1      16.932   0.366  50.705  1.00  0.00    -0.084 Cl
HETATM   22  C13 UNL     1      18.296  -0.699  52.737  1.00  0.00     0.024 A 
HETATM   23  C14 UNL     1      19.493  -0.955  53.419  1.00  0.00     0.015 A 
ENDBRANCH   2  17
TORSDOF 7
ENDMDL
