MODEL 1
REMARK VINA RESULT:      -8.0      0.000      0.000
REMARK  6 active torsions:
REMARK  status: ('A' for Active; 'I' for Inactive)
REMARK    1  A    between atoms: C5_6  and  C6_7 
REMARK       I    between atoms: C6_7  and  N1_9 
REMARK    2  A    between atoms: C7_11  and  S2_12 
REMARK    3  A    between atoms: S2_12  and  C8_13 
REMARK    4  A    between atoms: C11_16  and  S3_17 
REMARK    5  A    between atoms: S3_17  and  N3_18 
REMARK    6  A    between atoms: C13_23  and  N5_24 
ROOT
HETATM    1  C6  UNL     1      25.464  -0.486  54.129  1.00  0.00     0.302 C 
HETATM    2  O1  UNL     1      25.085  -1.195  55.090  1.00  0.00    -0.264 OA
HETATM    3  N1  UNL     1      24.565   0.194  53.265  1.00  0.00    -0.020 N 
HETATM    4  N2  UNL     1      24.842   0.972  52.215  1.00  0.00    -0.121 NA
HETATM    5  C7  UNL     1      23.685   1.417  51.677  1.00  0.00     0.231 A 
HETATM    6  N4  UNL     1      22.681   0.884  52.432  1.00  0.00    -0.035 NA
HETATM    7  C13 UNL     1      23.232   0.130  53.411  1.00  0.00     0.726 A 
ENDROOT
BRANCH   5   8
HETATM    8  S2  UNL     1      23.425   2.475  50.281  1.00  0.00    -0.052 SA
BRANCH   8   9
HETATM    9  C8  UNL     1      24.919   3.373  49.851  1.00  0.00    -0.009 A 
HETATM   10  C9  UNL     1      26.187   2.976  49.682  1.00  0.00     0.016 A 
HETATM   11  C10 UNL     1      26.953   4.172  49.337  1.00  0.00     0.022 A 
HETATM   12  C11 UNL     1      26.174   5.231  49.302  1.00  0.00     0.057 A 
HETATM   13  C12 UNL     1      24.775   4.843  49.629  1.00  0.00     0.098 A 
BRANCH  12  14
HETATM   14  S3  UNL     1      26.719   6.856  48.926  1.00  0.00     0.235 S 
HETATM   15  O2  UNL     1      25.825   7.398  47.849  1.00  0.00    -0.206 OA
HETATM   16  O3  UNL     1      28.155   6.801  48.502  1.00  0.00    -0.206 OA
BRANCH  14  17
HETATM   17  N3  UNL     1      26.532   7.809  50.351  1.00  0.00    -0.225 NA
HETATM   18  H8  UNL     1      26.974   8.758  50.211  1.00  0.00     0.136 HD
HETATM   19  H9  UNL     1      26.926   7.303  51.178  1.00  0.00     0.136 HD
ENDBRANCH  14  17
ENDBRANCH  12  14
ENDBRANCH   8   9
ENDBRANCH   5   8
BRANCH   7  20
HETATM   20  N5  UNL     1      22.482  -0.592  54.408  1.00  0.00    -0.231 N 
HETATM   21  H12 UNL     1      21.473  -0.314  54.496  1.00  0.00     0.174 HD
HETATM   22  H13 UNL     1      22.742  -1.351  55.074  1.00  0.00     0.174 HD
ENDBRANCH   7  20
BRANCH   1  23
HETATM   23  C5  UNL     1      26.871  -0.365  53.902  1.00  0.00     0.081 A 
HETATM   24  C2  UNL     1      27.721  -1.182  53.151  1.00  0.00    -0.039 A 
HETATM   25  C1  UNL     1      27.170  -2.370  52.447  1.00  0.00     0.050 C 
HETATM   26  C3  UNL     1      29.044  -0.834  53.101  1.00  0.00     0.015 A 
HETATM   27  C4  UNL     1      29.455   0.303  53.797  1.00  0.00     0.051 A 
HETATM   28  S1  UNL     1      27.894   0.943  54.583  1.00  0.00    -0.096 SA
ENDBRANCH   1  23
TORSDOF 6
ENDMDL
MODEL 2
REMARK VINA RESULT:      -7.6      1.814      2.016
REMARK  6 active torsions:
REMARK  status: ('A' for Active; 'I' for Inactive)
REMARK    1  A    between atoms: C5_6  and  C6_7 
REMARK       I    between atoms: C6_7  and  N1_9 
REMARK    2  A    between atoms: C7_11  and  S2_12 
REMARK    3  A    between atoms: S2_12  and  C8_13 
REMARK    4  A    between atoms: C11_16  and  S3_17 
REMARK    5  A    between atoms: S3_17  and  N3_18 
REMARK    6  A    between atoms: C13_23  and  N5_24 
ROOT
HETATM    1  C6  UNL     1      24.936  -0.488  54.226  1.00  0.00     0.302 C 
HETATM    2  O1  UNL     1      24.907  -1.234  55.233  1.00  0.00    -0.264 OA
HETATM    3  N1  UNL     1      23.778  -0.156  53.474  1.00  0.00    -0.020 N 
HETATM    4  N2  UNL     1      23.680   0.621  52.391  1.00  0.00    -0.121 NA
HETATM    5  C7  UNL     1      22.389   0.667  51.996  1.00  0.00     0.231 A 
HETATM    6  N4  UNL     1      21.692  -0.112  52.873  1.00  0.00    -0.035 NA
HETATM    7  C13 UNL     1      22.556  -0.616  53.783  1.00  0.00     0.726 A 
ENDROOT
BRANCH   5   8
HETATM    8  S2  UNL     1      21.657   1.528  50.633  1.00  0.00    -0.052 SA
BRANCH   8   9
HETATM    9  C8  UNL     1      22.700   2.881  50.076  1.00  0.00    -0.009 A 
HETATM   10  C9  UNL     1      23.405   3.065  48.952  1.00  0.00     0.016 A 
HETATM   11  C10 UNL     1      24.053   4.368  49.080  1.00  0.00     0.022 A 
HETATM   12  C11 UNL     1      23.745   4.932  50.227  1.00  0.00     0.057 A 
HETATM   13  C12 UNL     1      22.840   4.043  51.003  1.00  0.00     0.098 A 
BRANCH  12  14
HETATM   14  S3  UNL     1      24.326   6.503  50.752  1.00  0.00     0.235 S 
HETATM   15  O2  UNL     1      23.358   7.536  50.254  1.00  0.00    -0.206 OA
HETATM   16  O3  UNL     1      25.711   6.713  50.218  1.00  0.00    -0.206 OA
BRANCH  14  17
HETATM   17  N3  UNL     1      24.324   6.507  52.476  1.00  0.00    -0.225 NA
HETATM   18  H8  UNL     1      24.075   7.468  52.835  1.00  0.00     0.136 HD
HETATM   19  H9  UNL     1      25.246   6.171  52.840  1.00  0.00     0.136 HD
ENDBRANCH  14  17
ENDBRANCH  12  14
ENDBRANCH   8   9
ENDBRANCH   5   8
BRANCH   7  20
HETATM   20  N5  UNL     1      22.184  -1.485  54.871  1.00  0.00    -0.231 N 
HETATM   21  H12 UNL     1      21.155  -1.529  55.077  1.00  0.00     0.174 HD
HETATM   22  H13 UNL     1      22.740  -2.094  55.509  1.00  0.00     0.174 HD
ENDBRANCH   7  20
BRANCH   1  23
HETATM   23  C5  UNL     1      26.201   0.046  53.827  1.00  0.00     0.081 A 
HETATM   24  C2  UNL     1      27.234  -0.564  53.108  1.00  0.00    -0.039 A 
HETATM   25  C1  UNL     1      27.081  -1.970  52.648  1.00  0.00     0.050 C 
HETATM   26  C3  UNL     1      28.353   0.184  52.860  1.00  0.00     0.015 A 
HETATM   27  C4  UNL     1      28.392   1.494  53.336  1.00  0.00     0.051 A 
HETATM   28  S1  UNL     1      26.755   1.713  54.195  1.00  0.00    -0.096 SA
ENDBRANCH   1  23
TORSDOF 6
ENDMDL
MODEL 3
REMARK VINA RESULT:      -7.3      3.161      6.650
REMARK  6 active torsions:
REMARK  status: ('A' for Active; 'I' for Inactive)
REMARK    1  A    between atoms: C5_6  and  C6_7 
REMARK       I    between atoms: C6_7  and  N1_9 
REMARK    2  A    between atoms: C7_11  and  S2_12 
REMARK    3  A    between atoms: S2_12  and  C8_13 
REMARK    4  A    between atoms: C11_16  and  S3_17 
REMARK    5  A    between atoms: S3_17  and  N3_18 
REMARK    6  A    between atoms: C13_23  and  N5_24 
ROOT
HETATM    1  C6  UNL     1      22.297   3.727  49.659  1.00  0.00     0.302 C 
HETATM    2  O1  UNL     1      21.601   3.840  48.622  1.00  0.00    -0.264 OA
HETATM    3  N1  UNL     1      22.357   2.534  50.426  1.00  0.00    -0.020 N 
HETATM    4  N2  UNL     1      23.054   2.291  51.540  1.00  0.00    -0.121 NA
HETATM    5  C7  UNL     1      22.820   1.022  51.939  1.00  0.00     0.231 A 
HETATM    6  N4  UNL     1      21.952   0.488  51.033  1.00  0.00    -0.035 NA
HETATM    7  C13 UNL     1      21.670   1.428  50.101  1.00  0.00     0.726 A 
ENDROOT
BRANCH   5   8
HETATM    8  S2  UNL     1      23.461   0.144  53.337  1.00  0.00    -0.052 SA
BRANCH   8   9
HETATM    9  C8  UNL     1      25.234  -0.110  53.196  1.00  0.00    -0.009 A 
HETATM   10  C9  UNL     1      25.958  -1.109  52.676  1.00  0.00     0.016 A 
HETATM   11  C10 UNL     1      27.360  -0.742  52.859  1.00  0.00     0.022 A 
HETATM   12  C11 UNL     1      27.463   0.423  53.460  1.00  0.00     0.057 A 
HETATM   13  C12 UNL     1      26.109   0.967  53.749  1.00  0.00     0.098 A 
BRANCH  12  14
HETATM   14  S3  UNL     1      28.982   1.208  53.859  1.00  0.00     0.235 S 
HETATM   15  O2  UNL     1      30.093   0.324  53.372  1.00  0.00    -0.206 OA
HETATM   16  O3  UNL     1      29.039   1.434  55.339  1.00  0.00    -0.206 OA
BRANCH  14  17
HETATM   17  N3  UNL     1      29.032   2.705  53.004  1.00  0.00    -0.225 NA
HETATM   18  H8  UNL     1      30.033   3.018  52.882  1.00  0.00     0.136 HD
HETATM   19  H9  UNL     1      28.447   3.420  53.494  1.00  0.00     0.136 HD
ENDBRANCH  14  17
ENDBRANCH  12  14
ENDBRANCH   8   9
ENDBRANCH   5   8
BRANCH   7  20
HETATM   20  N5  UNL     1      20.786   1.229  48.979  1.00  0.00    -0.231 N 
HETATM   21  H12 UNL     1      19.817   1.614  49.101  1.00  0.00     0.174 HD
HETATM   22  H13 UNL     1      20.916   0.772  48.052  1.00  0.00     0.174 HD
ENDBRANCH   7  20
BRANCH   1  23
HETATM   23  C5  UNL     1      23.061   4.862  50.076  1.00  0.00     0.081 A 
HETATM   24  C2  UNL     1      24.433   5.099  49.956  1.00  0.00    -0.039 A 
HETATM   25  C1  UNL     1      25.304   4.081  49.311  1.00  0.00     0.050 C 
HETATM   26  C3  UNL     1      24.910   6.284  50.449  1.00  0.00     0.015 A 
HETATM   27  C4  UNL     1      24.006   7.170  51.034  1.00  0.00     0.051 A 
HETATM   28  S1  UNL     1      22.366   6.300  50.894  1.00  0.00    -0.096 SA
ENDBRANCH   1  23
TORSDOF 6
ENDMDL
MODEL 4
REMARK VINA RESULT:      -7.3      3.011      8.443
REMARK  6 active torsions:
REMARK  status: ('A' for Active; 'I' for Inactive)
REMARK    1  A    between atoms: C5_6  and  C6_7 
REMARK       I    between atoms: C6_7  and  N1_9 
REMARK    2  A    between atoms: C7_11  and  S2_12 
REMARK    3  A    between atoms: S2_12  and  C8_13 
REMARK    4  A    between atoms: C11_16  and  S3_17 
REMARK    5  A    between atoms: S3_17  and  N3_18 
REMARK    6  A    between atoms: C13_23  and  N5_24 
ROOT
HETATM    1  C6  UNL     1      26.325   8.414  49.529  1.00  0.00     0.302 C 
HETATM    2  O1  UNL     1      25.822   9.447  50.030  1.00  0.00    -0.264 OA
HETATM    3  N1  UNL     1      25.888   7.103  49.855  1.00  0.00    -0.020 N 
HETATM    4  N2  UNL     1      26.341   5.933  49.394  1.00  0.00    -0.121 NA
HETATM    5  C7  UNL     1      25.641   4.931  49.969  1.00  0.00     0.231 A 
HETATM    6  N4  UNL     1      24.739   5.524  50.805  1.00  0.00    -0.035 NA
HETATM    7  C13 UNL     1      24.898   6.865  50.729  1.00  0.00     0.726 A 
ENDROOT
BRANCH   5   8
HETATM    8  S2  UNL     1      25.790   3.181  49.750  1.00  0.00    -0.052 SA
BRANCH   8   9
HETATM    9  C8  UNL     1      25.607   2.306  51.308  1.00  0.00    -0.009 A 
HETATM   10  C9  UNL     1      24.543   2.076  52.088  1.00  0.00     0.016 A 
HETATM   11  C10 UNL     1      25.026   1.304  53.230  1.00  0.00     0.022 A 
HETATM   12  C11 UNL     1      26.319   1.085  53.132  1.00  0.00     0.057 A 
HETATM   13  C12 UNL     1      26.845   1.704  51.886  1.00  0.00     0.098 A 
BRANCH  12  14
HETATM   14  S3  UNL     1      27.270   0.194  54.308  1.00  0.00     0.235 S 
HETATM   15  O2  UNL     1      26.326  -0.347  55.342  1.00  0.00    -0.206 OA
HETATM   16  O3  UNL     1      28.298   1.111  54.897  1.00  0.00    -0.206 OA
BRANCH  14  17
HETATM   17  N3  UNL     1      28.019  -1.120  53.480  1.00  0.00    -0.225 NA
HETATM   18  H8  UNL     1      29.070  -1.036  53.545  1.00  0.00     0.136 HD
HETATM   19  H9  UNL     1      27.682  -1.163  52.490  1.00  0.00     0.136 HD
ENDBRANCH  14  17
ENDBRANCH  12  14
ENDBRANCH   8   9
ENDBRANCH   5   8
BRANCH   7  20
HETATM   20  N5  UNL     1      24.119   7.825  51.471  1.00  0.00    -0.231 N 
HETATM   21  H12 UNL     1      23.088   7.814  51.270  1.00  0.00     0.174 HD
HETATM   22  H13 UNL     1      24.376   8.542  52.182  1.00  0.00     0.174 HD
ENDBRANCH   7  20
BRANCH   1  23
HETATM   23  C5  UNL     1      27.389   8.579  48.588  1.00  0.00     0.081 A 
HETATM   24  C2  UNL     1      27.351   8.540  47.191  1.00  0.00    -0.039 A 
HETATM   25  C1  UNL     1      26.058   8.301  46.496  1.00  0.00     0.050 C 
HETATM   26  C3  UNL     1      28.531   8.730  46.526  1.00  0.00     0.015 A 
HETATM   27  C4  UNL     1      29.687   8.949  47.276  1.00  0.00     0.051 A 
HETATM   28  S1  UNL     1      29.098   8.886  49.041  1.00  0.00    -0.096 SA
ENDBRANCH   1  23
TORSDOF 6
ENDMDL
MODEL 5
REMARK VINA RESULT:      -6.9      3.199      4.649
REMARK  6 active torsions:
REMARK  status: ('A' for Active; 'I' for Inactive)
REMARK    1  A    between atoms: C5_6  and  C6_7 
REMARK       I    between atoms: C6_7  and  N1_9 
REMARK    2  A    between atoms: C7_11  and  S2_12 
REMARK    3  A    between atoms: S2_12  and  C8_13 
REMARK    4  A    between atoms: C11_16  and  S3_17 
REMARK    5  A    between atoms: S3_17  and  N3_18 
REMARK    6  A    between atoms: C13_23  and  N5_24 
ROOT
HETATM    1  C6  UNL     1      23.162   0.424  52.580  1.00  0.00     0.302 C 
HETATM    2  O1  UNL     1      23.907  -0.524  52.925  1.00  0.00    -0.264 OA
HETATM    3  N1  UNL     1      23.658   1.694  52.183  1.00  0.00    -0.020 N 
HETATM    4  N2  UNL     1      22.973   2.775  51.798  1.00  0.00    -0.121 NA
HETATM    5  C7  UNL     1      23.842   3.768  51.506  1.00  0.00     0.231 A 
HETATM    6  N4  UNL     1      25.090   3.262  51.726  1.00  0.00    -0.035 NA
HETATM    7  C13 UNL     1      24.968   1.981  52.144  1.00  0.00     0.726 A 
ENDROOT
BRANCH   5   8
HETATM    8  S2  UNL     1      23.522   5.417  50.948  1.00  0.00    -0.052 SA
BRANCH   8   9
HETATM    9  C8  UNL     1      24.904   6.069  50.003  1.00  0.00    -0.009 A 
HETATM   10  C9  UNL     1      25.537   5.618  48.913  1.00  0.00     0.016 A 
HETATM   11  C10 UNL     1      26.587   6.589  48.613  1.00  0.00     0.022 A 
HETATM   12  C11 UNL     1      26.576   7.573  49.485  1.00  0.00     0.057 A 
HETATM   13  C12 UNL     1      25.493   7.355  50.482  1.00  0.00     0.098 A 
BRANCH  12  14
HETATM   14  S3  UNL     1      27.683   8.935  49.464  1.00  0.00     0.235 S 
HETATM   15  O2  UNL     1      27.151   9.938  48.482  1.00  0.00    -0.206 OA
HETATM   16  O3  UNL     1      29.050   8.445  49.096  1.00  0.00    -0.206 OA
BRANCH  14  17
HETATM   17  N3  UNL     1      27.681   9.629  51.042  1.00  0.00    -0.225 NA
HETATM   18  H8  UNL     1      26.829  10.241  51.167  1.00  0.00     0.136 HD
HETATM   19  H9  UNL     1      28.573  10.148  51.210  1.00  0.00     0.136 HD
ENDBRANCH  14  17
ENDBRANCH  12  14
ENDBRANCH   8   9
ENDBRANCH   5   8
BRANCH   7  20
HETATM   20  N5  UNL     1      26.076   1.119  52.474  1.00  0.00    -0.231 N 
HETATM   21  H12 UNL     1      26.530   0.642  51.657  1.00  0.00     0.174 HD
HETATM   22  H13 UNL     1      26.528   0.868  53.379  1.00  0.00     0.174 HD
ENDBRANCH   7  20
BRANCH   1  23
HETATM   23  C5  UNL     1      21.750   0.202  52.595  1.00  0.00     0.081 A 
HETATM   24  C2  UNL     1      20.930  -0.229  53.642  1.00  0.00    -0.039 A 
HETATM   25  C1  UNL     1      21.527  -0.521  54.973  1.00  0.00     0.050 C 
HETATM   26  C3  UNL     1      19.594  -0.360  53.380  1.00  0.00     0.015 A 
HETATM   27  C4  UNL     1      19.138  -0.058  52.097  1.00  0.00     0.051 A 
HETATM   28  S1  UNL     1      20.676   0.446  51.178  1.00  0.00    -0.096 SA
ENDBRANCH   1  23
TORSDOF 6
ENDMDL
MODEL 6
REMARK VINA RESULT:      -6.8      3.274      7.195
REMARK  6 active torsions:
REMARK  status: ('A' for Active; 'I' for Inactive)
REMARK    1  A    between atoms: C5_6  and  C6_7 
REMARK       I    between atoms: C6_7  and  N1_9 
REMARK    2  A    between atoms: C7_11  and  S2_12 
REMARK    3  A    between atoms: S2_12  and  C8_13 
REMARK    4  A    between atoms: C11_16  and  S3_17 
REMARK    5  A    between atoms: S3_17  and  N3_18 
REMARK    6  A    between atoms: C13_23  and  N5_24 
ROOT
HETATM    1  C6  UNL     1      22.867   4.787  48.719  1.00  0.00     0.302 C 
HETATM    2  O1  UNL     1      22.781   4.873  47.472  1.00  0.00    -0.264 OA
HETATM    3  N1  UNL     1      22.317   3.709  49.461  1.00  0.00    -0.020 N 
HETATM    4  N2  UNL     1      22.341   3.505  50.782  1.00  0.00    -0.121 NA
HETATM    5  C7  UNL     1      21.697   2.351  51.063  1.00  0.00     0.231 A 
HETATM    6  N4  UNL     1      21.272   1.849  49.867  1.00  0.00    -0.035 NA
HETATM    7  C13 UNL     1      21.658   2.692  48.883  1.00  0.00     0.726 A 
ENDROOT
BRANCH   5   8
HETATM    8  S2  UNL     1      21.411   1.571  52.626  1.00  0.00    -0.052 SA
BRANCH   8   9
HETATM    9  C8  UNL     1      22.880   0.721  53.213  1.00  0.00    -0.009 A 
HETATM   10  C9  UNL     1      23.057  -0.488  53.763  1.00  0.00     0.016 A 
HETATM   11  C10 UNL     1      24.488  -0.615  54.032  1.00  0.00     0.022 A 
HETATM   12  C11 UNL     1      25.131   0.470  53.657  1.00  0.00     0.057 A 
HETATM   13  C12 UNL     1      24.174   1.456  53.088  1.00  0.00     0.098 A 
BRANCH  12  14
HETATM   14  S3  UNL     1      26.864   0.704  53.815  1.00  0.00     0.235 S 
HETATM   15  O2  UNL     1      27.500   0.271  52.526  1.00  0.00    -0.206 OA
HETATM   16  O3  UNL     1      27.356  -0.085  54.989  1.00  0.00    -0.206 OA
BRANCH  14  17
HETATM   17  N3  UNL     1      27.139   2.391  54.045  1.00  0.00    -0.225 NA
HETATM   18  H8  UNL     1      27.983   2.537  54.663  1.00  0.00     0.136 HD
HETATM   19  H9  UNL     1      26.280   2.849  54.427  1.00  0.00     0.136 HD
ENDBRANCH  14  17
ENDBRANCH  12  14
ENDBRANCH   8   9
ENDBRANCH   5   8
BRANCH   7  20
HETATM   20  N5  UNL     1      21.389   2.492  47.481  1.00  0.00    -0.231 N 
HETATM   21  H12 UNL     1      21.268   3.372  46.919  1.00  0.00     0.174 HD
HETATM   22  H13 UNL     1      21.287   1.635  46.898  1.00  0.00     0.174 HD
ENDBRANCH   7  20
BRANCH   1  23
HETATM   23  C5  UNL     1      23.554   5.831  49.415  1.00  0.00     0.081 A 
HETATM   24  C2  UNL     1      24.912   5.944  49.727  1.00  0.00    -0.039 A 
HETATM   25  C1  UNL     1      25.855   4.872  49.314  1.00  0.00     0.050 C 
HETATM   26  C3  UNL     1      25.307   7.062  50.411  1.00  0.00     0.015 A 
HETATM   27  C4  UNL     1      24.340   8.008  50.749  1.00  0.00     0.051 A 
HETATM   28  S1  UNL     1      22.757   7.299  50.071  1.00  0.00    -0.096 SA
ENDBRANCH   1  23
TORSDOF 6
ENDMDL
MODEL 7
REMARK VINA RESULT:      -6.8      2.957      7.825
REMARK  6 active torsions:
REMARK  status: ('A' for Active; 'I' for Inactive)
REMARK    1  A    between atoms: C5_6  and  C6_7 
REMARK       I    between atoms: C6_7  and  N1_9 
REMARK    2  A    between atoms: C7_11  and  S2_12 
REMARK    3  A    between atoms: S2_12  and  C8_13 
REMARK    4  A    between atoms: C11_16  and  S3_17 
REMARK    5  A    between atoms: S3_17  and  N3_18 
REMARK    6  A    between atoms: C13_23  and  N5_24 
ROOT
HETATM    1  C6  UNL     1      24.078   4.141  49.838  1.00  0.00     0.302 C 
HETATM    2  O1  UNL     1      24.352   5.132  49.121  1.00  0.00    -0.264 OA
HETATM    3  N1  UNL     1      25.069   3.326  50.445  1.00  0.00    -0.020 N 
HETATM    4  N2  UNL     1      24.906   2.252  51.223  1.00  0.00    -0.121 NA
HETATM    5  C7  UNL     1      26.119   1.780  51.586  1.00  0.00     0.231 A 
HETATM    6  N4  UNL     1      27.039   2.601  51.002  1.00  0.00    -0.035 NA
HETATM    7  C13 UNL     1      26.383   3.553  50.300  1.00  0.00     0.726 A 
ENDROOT
BRANCH   5   8
HETATM    8  S2  UNL     1      26.530   0.390  52.603  1.00  0.00    -0.052 SA
BRANCH   8   9
HETATM    9  C8  UNL     1      25.114  -0.167  53.556  1.00  0.00    -0.009 A 
HETATM   10  C9  UNL     1      25.018  -0.854  54.702  1.00  0.00     0.016 A 
HETATM   11  C10 UNL     1      23.591  -1.005  54.976  1.00  0.00     0.022 A 
HETATM   12  C11 UNL     1      22.872  -0.432  54.035  1.00  0.00     0.057 A 
HETATM   13  C12 UNL     1      23.765   0.173  53.011  1.00  0.00     0.098 A 
BRANCH  12  14
HETATM   14  S3  UNL     1      21.117  -0.397  54.005  1.00  0.00     0.235 S 
HETATM   15  O2  UNL     1      20.690  -0.195  52.580  1.00  0.00    -0.206 OA
HETATM   16  O3  UNL     1      20.637   0.700  54.906  1.00  0.00    -0.206 OA
BRANCH  14  17
HETATM   17  N3  UNL     1      20.558  -1.933  54.553  1.00  0.00    -0.225 NA
HETATM   18  H8  UNL     1      21.373  -2.513  54.894  1.00  0.00     0.136 HD
HETATM   19  H9  UNL     1      20.016  -2.412  53.797  1.00  0.00     0.136 HD
ENDBRANCH  14  17
ENDBRANCH  12  14
ENDBRANCH   8   9
ENDBRANCH   5   8
BRANCH   7  20
HETATM   20  N5  UNL     1      27.025   4.602  49.547  1.00  0.00    -0.231 N 
HETATM   21  H12 UNL     1      28.072   4.535  49.489  1.00  0.00     0.174 HD
HETATM   22  H13 UNL     1      26.654   5.432  49.036  1.00  0.00     0.174 HD
ENDBRANCH   7  20
BRANCH   1  23
HETATM   23  C5  UNL     1      22.698   3.828  50.044  1.00  0.00     0.081 A 
HETATM   24  C2  UNL     1      21.865   2.972  49.317  1.00  0.00    -0.039 A 
HETATM   25  C1  UNL     1      22.407   2.235  48.145  1.00  0.00     0.050 C 
HETATM   26  C3  UNL     1      20.567   2.855  49.736  1.00  0.00     0.015 A 
HETATM   27  C4  UNL     1      20.162   3.590  50.850  1.00  0.00     0.051 A 
HETATM   28  S1  UNL     1      21.693   4.517  51.361  1.00  0.00    -0.096 SA
ENDBRANCH   1  23
TORSDOF 6
ENDMDL
MODEL 8
REMARK VINA RESULT:      -6.8      3.642      6.760
REMARK  6 active torsions:
REMARK  status: ('A' for Active; 'I' for Inactive)
REMARK    1  A    between atoms: C5_6  and  C6_7 
REMARK       I    between atoms: C6_7  and  N1_9 
REMARK    2  A    between atoms: C7_11  and  S2_12 
REMARK    3  A    between atoms: S2_12  and  C8_13 
REMARK    4  A    between atoms: C11_16  and  S3_17 
REMARK    5  A    between atoms: S3_17  and  N3_18 
REMARK    6  A    between atoms: C13_23  and  N5_24 
ROOT
HETATM    1  C6  UNL     1      21.207   3.391  50.857  1.00  0.00     0.302 C 
HETATM    2  O1  UNL     1      20.356   4.221  50.460  1.00  0.00    -0.264 OA
HETATM    3  N1  UNL     1      20.870   2.239  51.616  1.00  0.00    -0.020 N 
HETATM    4  N2  UNL     1      21.678   1.288  52.094  1.00  0.00    -0.121 NA
HETATM    5  C7  UNL     1      20.938   0.374  52.760  1.00  0.00     0.231 A 
HETATM    6  N4  UNL     1      19.643   0.795  52.678  1.00  0.00    -0.035 NA
HETATM    7  C13 UNL     1      19.609   1.947  51.970  1.00  0.00     0.726 A 
ENDROOT
BRANCH   5   8
HETATM    8  S2  UNL     1      21.453  -1.097  53.600  1.00  0.00    -0.052 SA
BRANCH   8   9
HETATM    9  C8  UNL     1      23.102  -0.916  54.289  1.00  0.00    -0.009 A 
HETATM   10  C9  UNL     1      23.637  -1.312  55.452  1.00  0.00     0.016 A 
HETATM   11  C10 UNL     1      25.029  -0.870  55.438  1.00  0.00     0.022 A 
HETATM   12  C11 UNL     1      25.309  -0.240  54.318  1.00  0.00     0.057 A 
HETATM   13  C12 UNL     1      24.103  -0.195  53.448  1.00  0.00     0.098 A 
BRANCH  12  14
HETATM   14  S3  UNL     1      26.877   0.442  53.923  1.00  0.00     0.235 S 
HETATM   15  O2  UNL     1      26.834   1.905  54.254  1.00  0.00    -0.206 OA
HETATM   16  O3  UNL     1      27.164   0.192  52.473  1.00  0.00    -0.206 OA
BRANCH  14  17
HETATM   17  N3  UNL     1      28.046  -0.333  54.926  1.00  0.00    -0.225 NA
HETATM   18  H8  UNL     1      27.603  -0.625  55.838  1.00  0.00     0.136 HD
HETATM   19  H9  UNL     1      28.874   0.292  55.065  1.00  0.00     0.136 HD
ENDBRANCH  14  17
ENDBRANCH  12  14
ENDBRANCH   8   9
ENDBRANCH   5   8
BRANCH   7  20
HETATM   20  N5  UNL     1      18.410   2.691  51.674  1.00  0.00    -0.231 N 
HETATM   21  H12 UNL     1      17.555   2.389  52.204  1.00  0.00     0.174 HD
HETATM   22  H13 UNL     1      18.213   3.484  51.026  1.00  0.00     0.174 HD
ENDBRANCH   7  20
BRANCH   1  23
HETATM   23  C5  UNL     1      22.577   3.627  50.523  1.00  0.00     0.081 A 
HETATM   24  C2  UNL     1      23.302   3.208  49.403  1.00  0.00    -0.039 A 
HETATM   25  C1  UNL     1      22.632   2.396  48.353  1.00  0.00     0.050 C 
HETATM   26  C3  UNL     1      24.618   3.578  49.334  1.00  0.00     0.015 A 
HETATM   27  C4  UNL     1      25.147   4.342  50.373  1.00  0.00     0.051 A 
HETATM   28  S1  UNL     1      23.716   4.568  51.542  1.00  0.00    -0.096 SA
ENDBRANCH   1  23
TORSDOF 6
ENDMDL
MODEL 9
REMARK VINA RESULT:      -6.8      3.993      7.637
REMARK  6 active torsions:
REMARK  status: ('A' for Active; 'I' for Inactive)
REMARK    1  A    between atoms: C5_6  and  C6_7 
REMARK       I    between atoms: C6_7  and  N1_9 
REMARK    2  A    between atoms: C7_11  and  S2_12 
REMARK    3  A    between atoms: S2_12  and  C8_13 
REMARK    4  A    between atoms: C11_16  and  S3_17 
REMARK    5  A    between atoms: S3_17  and  N3_18 
REMARK    6  A    between atoms: C13_23  and  N5_24 
ROOT
HETATM    1  C6  UNL     1      21.241   4.795  50.951  1.00  0.00     0.302 C 
HETATM    2  O1  UNL     1      21.398   6.038  50.932  1.00  0.00    -0.264 OA
HETATM    3  N1  UNL     1      22.150   3.909  51.588  1.00  0.00    -0.020 N 
HETATM    4  N2  UNL     1      22.094   2.576  51.675  1.00  0.00    -0.121 NA
HETATM    5  C7  UNL     1      23.165   2.134  52.371  1.00  0.00     0.231 A 
HETATM    6  N4  UNL     1      23.886   3.242  52.710  1.00  0.00    -0.035 NA
HETATM    7  C13 UNL     1      23.253   4.334  52.222  1.00  0.00     0.726 A 
ENDROOT
BRANCH   5   8
HETATM    8  S2  UNL     1      23.624   0.480  52.803  1.00  0.00    -0.052 SA
BRANCH   8   9
HETATM    9  C8  UNL     1      25.206   0.439  53.652  1.00  0.00    -0.009 A 
HETATM   10  C9  UNL     1      25.618  -0.207  54.751  1.00  0.00     0.016 A 
HETATM   11  C10 UNL     1      27.018   0.160  54.946  1.00  0.00     0.022 A 
HETATM   12  C11 UNL     1      27.420   0.985  54.004  1.00  0.00     0.057 A 
HETATM   13  C12 UNL     1      26.303   1.262  53.062  1.00  0.00     0.098 A 
BRANCH  12  14
HETATM   14  S3  UNL     1      29.039   1.654  53.890  1.00  0.00     0.235 S 
HETATM   15  O2  UNL     1      29.441   2.111  55.262  1.00  0.00    -0.206 OA
HETATM   16  O3  UNL     1      29.034   2.773  52.894  1.00  0.00    -0.206 OA
BRANCH  14  17
HETATM   17  N3  UNL     1      30.090   0.384  53.384  1.00  0.00    -0.225 NA
HETATM   18  H8  UNL     1      29.680  -0.552  53.651  1.00  0.00     0.136 HD
HETATM   19  H9  UNL     1      31.048   0.528  53.780  1.00  0.00     0.136 HD
ENDBRANCH  14  17
ENDBRANCH  12  14
ENDBRANCH   8   9
ENDBRANCH   5   8
BRANCH   7  20
HETATM   20  N5  UNL     1      23.717   5.689  52.383  1.00  0.00    -0.231 N 
HETATM   21  H12 UNL     1      24.658   5.892  51.963  1.00  0.00     0.174 HD
HETATM   22  H13 UNL     1      23.301   6.528  52.841  1.00  0.00     0.174 HD
ENDBRANCH   7  20
BRANCH   1  23
HETATM   23  C5  UNL     1      20.089   4.257  50.295  1.00  0.00     0.081 A 
HETATM   24  C2  UNL     1      19.911   3.922  48.950  1.00  0.00    -0.039 A 
HETATM   25  C1  UNL     1      21.027   4.117  47.987  1.00  0.00     0.050 C 
HETATM   26  C3  UNL     1      18.691   3.421  48.585  1.00  0.00     0.015 A 
HETATM   27  C4  UNL     1      17.712   3.277  49.569  1.00  0.00     0.051 A 
HETATM   28  S1  UNL     1      18.541   3.883  51.122  1.00  0.00    -0.096 SA
ENDBRANCH   1  23
TORSDOF 6
ENDMDL
