MODEL 1
REMARK VINA RESULT:      -7.6      0.000      0.000
REMARK  5 active torsions:
REMARK  status: ('A' for Active; 'I' for Inactive)
REMARK    1  A    between atoms: O1_2  and  C2_3 
REMARK    2  A    between atoms: C8_9  and  C9_10 
REMARK    3  A    between atoms: C10_11  and  C11_12 
REMARK    4  A    between atoms: C11_12  and  O2_14 
REMARK    5  A    between atoms: O2_14  and  O3_15 
ROOT
HETATM    1  C2  UNL     1      27.827   0.228  54.120  1.00  0.00     0.048 A 
HETATM    2  C3  UNL     1      28.330  -0.845  53.559  1.00  0.00     0.032 A 
HETATM    3  C4  UNL     1      27.452  -1.597  52.672  1.00  0.00     0.001 A 
HETATM    4  C5  UNL     1      26.225  -1.130  52.512  1.00  0.00     0.009 A 
HETATM    5  C6  UNL     1      25.548   0.080  53.101  1.00  0.00     0.079 A 
HETATM    6  C7  UNL     1      24.349  -0.392  53.794  1.00  0.00     0.046 A 
HETATM    7  C8  UNL     1      23.082  -0.171  53.595  1.00  0.00     0.079 A 
HETATM    8  O4  UNL     1      22.844   0.668  52.525  1.00  0.00    -0.262 OA
HETATM    9  C13 UNL     1      23.838   1.211  51.753  1.00  0.00     0.367 A 
HETATM   10  O5  UNL     1      23.533   1.976  50.781  1.00  0.00    -0.238 OA
HETATM   11  N1  UNL     1      25.211   0.950  51.997  1.00  0.00    -0.320 N 
HETATM   12  C14 UNL     1      26.484   0.843  54.019  1.00  0.00     0.104 A 
HETATM   13  H15 UNL     1      25.935   1.382  51.389  1.00  0.00     0.166 HD
ENDROOT
BRANCH   7  14
HETATM   14  C9  UNL     1      22.070  -0.791  54.467  1.00  0.00     0.036 C 
HETATM   15  C10 UNL     1      20.760  -0.838  54.287  1.00  0.00     0.010 C 
BRANCH  15  16
HETATM   16  C11 UNL     1      19.563  -0.527  53.511  1.00  0.00     0.179 C 
HETATM   17  C12 UNL     1      19.846  -0.062  52.085  1.00  0.00     0.047 C 
BRANCH  16  18
HETATM   18  O2  UNL     1      18.680  -1.616  53.496  1.00  0.00    -0.234 OA
BRANCH  18  19
HETATM   19  O3  UNL     1      17.550  -1.177  54.003  1.00  0.00    -0.250 OA
HETATM   20  H14 UNL     1      17.637  -0.805  54.912  1.00  0.00     0.253 HD
ENDBRANCH  18  19
ENDBRANCH  16  18
ENDBRANCH  15  16
ENDBRANCH   7  14
BRANCH   1  21
HETATM   21  O1  UNL     1      28.629   0.994  54.986  1.00  0.00    -0.360 OA
HETATM   22  C1  UNL     1      29.467   2.028  54.554  1.00  0.00     0.209 C 
ENDBRANCH   1  21
TORSDOF 5
ENDMDL
MODEL 2
REMARK VINA RESULT:      -7.5      3.920      6.391
REMARK  5 active torsions:
REMARK  status: ('A' for Active; 'I' for Inactive)
REMARK    1  A    between atoms: O1_2  and  C2_3 
REMARK    2  A    between atoms: C8_9  and  C9_10 
REMARK    3  A    between atoms: C10_11  and  C11_12 
REMARK    4  A    between atoms: C11_12  and  O2_14 
REMARK    5  A    between atoms: O2_14  and  O3_15 
ROOT
HETATM    1  C2  UNL     1      27.714  -0.480  53.198  1.00  0.00     0.048 A 
HETATM    2  C3  UNL     1      28.657  -0.002  53.974  1.00  0.00     0.032 A 
HETATM    3  C4  UNL     1      28.717   1.445  54.122  1.00  0.00     0.001 A 
HETATM    4  C5  UNL     1      27.813   2.149  53.461  1.00  0.00     0.009 A 
HETATM    5  C6  UNL     1      26.696   1.709  52.551  1.00  0.00     0.079 A 
HETATM    6  C7  UNL     1      26.897   2.380  51.267  1.00  0.00     0.046 A 
HETATM    7  C8  UNL     1      26.182   3.252  50.616  1.00  0.00     0.079 A 
HETATM    8  O4  UNL     1      25.020   3.596  51.276  1.00  0.00    -0.262 OA
HETATM    9  C13 UNL     1      24.658   3.074  52.491  1.00  0.00     0.367 A 
HETATM   10  O5  UNL     1      23.567   3.446  53.035  1.00  0.00    -0.238 OA
HETATM   11  N1  UNL     1      25.460   2.126  53.176  1.00  0.00    -0.320 N 
HETATM   12  C14 UNL     1      26.658   0.199  52.415  1.00  0.00     0.104 A 
HETATM   13  H15 UNL     1      25.149   1.753  54.095  1.00  0.00     0.166 HD
ENDROOT
BRANCH   7  14
HETATM   14  C9  UNL     1      26.637   3.768  49.314  1.00  0.00     0.036 C 
HETATM   15  C10 UNL     1      26.690   5.027  48.911  1.00  0.00     0.010 C 
BRANCH  15  16
HETATM   16  C11 UNL     1      26.486   6.454  49.143  1.00  0.00     0.179 C 
HETATM   17  C12 UNL     1      26.626   7.317  47.891  1.00  0.00     0.047 C 
BRANCH  16  18
HETATM   18  O2  UNL     1      25.246   6.690  49.754  1.00  0.00    -0.234 OA
BRANCH  18  19
HETATM   19  O3  UNL     1      25.480   6.751  51.045  1.00  0.00    -0.250 OA
HETATM   20  H14 UNL     1      24.678   6.626  51.604  1.00  0.00     0.253 HD
ENDBRANCH  18  19
ENDBRANCH  16  18
ENDBRANCH  15  16
ENDBRANCH   7  14
BRANCH   1  21
HETATM   21  O1  UNL     1      27.609  -1.872  53.019  1.00  0.00    -0.360 OA
HETATM   22  C1  UNL     1      28.703  -2.743  53.053  1.00  0.00     0.209 C 
ENDBRANCH   1  21
TORSDOF 5
ENDMDL
MODEL 3
REMARK VINA RESULT:      -7.4      2.353      6.464
REMARK  5 active torsions:
REMARK  status: ('A' for Active; 'I' for Inactive)
REMARK    1  A    between atoms: O1_2  and  C2_3 
REMARK    2  A    between atoms: C8_9  and  C9_10 
REMARK    3  A    between atoms: C10_11  and  C11_12 
REMARK    4  A    between atoms: C11_12  and  O2_14 
REMARK    5  A    between atoms: O2_14  and  O3_15 
ROOT
HETATM    1  C2  UNL     1      23.377   3.762  51.831  1.00  0.00     0.048 A 
HETATM    2  C3  UNL     1      22.904   3.533  50.629  1.00  0.00     0.032 A 
HETATM    3  C4  UNL     1      22.748   2.140  50.237  1.00  0.00     0.001 A 
HETATM    4  C5  UNL     1      23.096   1.227  51.129  1.00  0.00     0.009 A 
HETATM    5  C6  UNL     1      23.644   1.374  52.525  1.00  0.00     0.079 A 
HETATM    6  C7  UNL     1      24.916   0.652  52.567  1.00  0.00     0.046 A 
HETATM    7  C8  UNL     1      25.306  -0.388  53.245  1.00  0.00     0.079 A 
HETATM    8  O4  UNL     1      24.324  -0.890  54.074  1.00  0.00    -0.262 OA
HETATM    9  C13 UNL     1      23.068  -0.349  54.173  1.00  0.00     0.367 A 
HETATM   10  O5  UNL     1      22.218  -0.874  54.964  1.00  0.00    -0.238 OA
HETATM   11  N1  UNL     1      22.673   0.785  53.419  1.00  0.00    -0.320 N 
HETATM   12  C14 UNL     1      23.797   2.835  52.906  1.00  0.00     0.104 A 
HETATM   13  H15 UNL     1      21.712   1.166  53.523  1.00  0.00     0.166 HD
ENDROOT
BRANCH   7  14
HETATM   14  C9  UNL     1      26.673  -0.914  53.085  1.00  0.00     0.036 C 
HETATM   15  C10 UNL     1      27.817  -0.270  53.249  1.00  0.00     0.010 C 
BRANCH  15  16
HETATM   16  C11 UNL     1      28.569   0.939  53.570  1.00  0.00     0.179 C 
HETATM   17  C12 UNL     1      27.943   2.226  53.037  1.00  0.00     0.047 C 
BRANCH  16  18
HETATM   18  O2  UNL     1      28.780   1.045  54.953  1.00  0.00    -0.234 OA
BRANCH  18  19
HETATM   19  O3  UNL     1      29.424   2.175  55.139  1.00  0.00    -0.250 OA
HETATM   20  H14 UNL     1      30.384   2.061  55.334  1.00  0.00     0.253 HD
ENDBRANCH  18  19
ENDBRANCH  16  18
ENDBRANCH  15  16
ENDBRANCH   7  14
BRANCH   1  21
HETATM   21  O1  UNL     1      23.548   5.090  52.264  1.00  0.00    -0.360 OA
HETATM   22  C1  UNL     1      23.756   6.167  51.396  1.00  0.00     0.209 C 
ENDBRANCH   1  21
TORSDOF 5
ENDMDL
MODEL 4
REMARK VINA RESULT:      -7.4      3.153      7.273
REMARK  5 active torsions:
REMARK  status: ('A' for Active; 'I' for Inactive)
REMARK    1  A    between atoms: O1_2  and  C2_3 
REMARK    2  A    between atoms: C8_9  and  C9_10 
REMARK    3  A    between atoms: C10_11  and  C11_12 
REMARK    4  A    between atoms: C11_12  and  O2_14 
REMARK    5  A    between atoms: O2_14  and  O3_15 
ROOT
HETATM    1  C2  UNL     1      21.602   2.587  50.962  1.00  0.00     0.048 A 
HETATM    2  C3  UNL     1      21.142   3.634  51.604  1.00  0.00     0.032 A 
HETATM    3  C4  UNL     1      22.103   4.404  52.382  1.00  0.00     0.001 A 
HETATM    4  C5  UNL     1      23.355   3.979  52.370  1.00  0.00     0.009 A 
HETATM    5  C6  UNL     1      23.989   2.803  51.675  1.00  0.00     0.079 A 
HETATM    6  C7  UNL     1      24.632   1.988  52.706  1.00  0.00     0.046 A 
HETATM    7  C8  UNL     1      25.877   1.676  52.920  1.00  0.00     0.079 A 
HETATM    8  O4  UNL     1      26.738   2.224  51.992  1.00  0.00    -0.262 OA
HETATM    9  C13 UNL     1      26.324   3.016  50.952  1.00  0.00     0.367 A 
HETATM   10  O5  UNL     1      27.184   3.485  50.137  1.00  0.00    -0.238 OA
HETATM   11  N1  UNL     1      24.958   3.339  50.746  1.00  0.00    -0.320 N 
HETATM   12  C14 UNL     1      22.966   2.019  50.874  1.00  0.00     0.104 A 
HETATM   13  H15 UNL     1      24.685   3.942  49.945  1.00  0.00     0.166 HD
ENDROOT
BRANCH   7  14
HETATM   14  C9  UNL     1      26.246   0.819  54.061  1.00  0.00     0.036 C 
HETATM   15  C10 UNL     1      27.446   0.638  54.588  1.00  0.00     0.010 C 
BRANCH  15  16
HETATM   16  C11 UNL     1      28.880   0.907  54.625  1.00  0.00     0.179 C 
HETATM   17  C12 UNL     1      29.684   0.158  53.565  1.00  0.00     0.047 C 
BRANCH  16  18
HETATM   18  O2  UNL     1      29.134   2.283  54.539  1.00  0.00    -0.234 OA
BRANCH  18  19
HETATM   19  O3  UNL     1      29.294   2.546  53.262  1.00  0.00    -0.250 OA
HETATM   20  H14 UNL     1      28.802   3.343  52.953  1.00  0.00     0.253 HD
ENDBRANCH  18  19
ENDBRANCH  16  18
ENDBRANCH  15  16
ENDBRANCH   7  14
BRANCH   1  21
HETATM   21  O1  UNL     1      20.719   1.806  50.194  1.00  0.00    -0.360 OA
HETATM   22  C1  UNL     1      21.036   1.294  48.931  1.00  0.00     0.209 C 
ENDBRANCH   1  21
TORSDOF 5
ENDMDL
MODEL 5
REMARK VINA RESULT:      -7.2      1.595      2.247
REMARK  5 active torsions:
REMARK  status: ('A' for Active; 'I' for Inactive)
REMARK    1  A    between atoms: O1_2  and  C2_3 
REMARK    2  A    between atoms: C8_9  and  C9_10 
REMARK    3  A    between atoms: C10_11  and  C11_12 
REMARK    4  A    between atoms: C11_12  and  O2_14 
REMARK    5  A    between atoms: O2_14  and  O3_15 
ROOT
HETATM    1  C2  UNL     1      28.049   0.598  53.946  1.00  0.00     0.048 A 
HETATM    2  C3  UNL     1      28.167  -0.655  53.580  1.00  0.00     0.032 A 
HETATM    3  C4  UNL     1      27.310  -1.107  52.492  1.00  0.00     0.001 A 
HETATM    4  C5  UNL     1      26.488  -0.211  51.971  1.00  0.00     0.009 A 
HETATM    5  C6  UNL     1      26.271   1.240  52.310  1.00  0.00     0.079 A 
HETATM    6  C7  UNL     1      24.853   1.400  52.633  1.00  0.00     0.046 A 
HETATM    7  C8  UNL     1      23.901   2.083  52.067  1.00  0.00     0.079 A 
HETATM    8  O4  UNL     1      24.326   2.782  50.957  1.00  0.00    -0.262 OA
HETATM    9  C13 UNL     1      25.617   2.759  50.497  1.00  0.00     0.367 A 
HETATM   10  O5  UNL     1      25.929   3.433  49.462  1.00  0.00    -0.238 OA
HETATM   11  N1  UNL     1      26.633   2.003  51.136  1.00  0.00    -0.320 N 
HETATM   12  C14 UNL     1      27.175   1.683  53.445  1.00  0.00     0.104 A 
HETATM   13  H15 UNL     1      27.600   2.012  50.757  1.00  0.00     0.166 HD
ENDROOT
BRANCH   7  14
HETATM   14  C9  UNL     1      22.535   2.059  52.619  1.00  0.00     0.036 C 
HETATM   15  C10 UNL     1      21.860   1.017  53.076  1.00  0.00     0.010 C 
BRANCH  15  16
HETATM   16  C11 UNL     1      21.754  -0.408  53.371  1.00  0.00     0.179 C 
HETATM   17  C12 UNL     1      22.850  -0.939  54.293  1.00  0.00     0.047 C 
BRANCH  16  18
HETATM   18  O2  UNL     1      20.491  -0.718  53.898  1.00  0.00    -0.234 OA
BRANCH  18  19
HETATM   19  O3  UNL     1      20.683  -1.694  54.756  1.00  0.00    -0.250 OA
HETATM   20  H14 UNL     1      20.944  -1.389  55.657  1.00  0.00     0.253 HD
ENDBRANCH  18  19
ENDBRANCH  16  18
ENDBRANCH  15  16
ENDBRANCH   7  14
BRANCH   1  21
HETATM   21  O1  UNL     1      28.853   1.090  54.992  1.00  0.00    -0.360 OA
HETATM   22  C1  UNL     1      29.789   2.117  54.832  1.00  0.00     0.209 C 
ENDBRANCH   1  21
TORSDOF 5
ENDMDL
MODEL 6
REMARK VINA RESULT:      -7.0      2.414      5.076
REMARK  5 active torsions:
REMARK  status: ('A' for Active; 'I' for Inactive)
REMARK    1  A    between atoms: O1_2  and  C2_3 
REMARK    2  A    between atoms: C8_9  and  C9_10 
REMARK    3  A    between atoms: C10_11  and  C11_12 
REMARK    4  A    between atoms: C11_12  and  O2_14 
REMARK    5  A    between atoms: O2_14  and  O3_15 
ROOT
HETATM    1  C2  UNL     1      23.270   3.427  50.463  1.00  0.00     0.048 A 
HETATM    2  C3  UNL     1      22.717   4.353  51.208  1.00  0.00     0.032 A 
HETATM    3  C4  UNL     1      23.207   4.479  52.574  1.00  0.00     0.001 A 
HETATM    4  C5  UNL     1      24.167   3.647  52.941  1.00  0.00     0.009 A 
HETATM    5  C6  UNL     1      24.869   2.555  52.176  1.00  0.00     0.079 A 
HETATM    6  C7  UNL     1      24.693   1.316  52.934  1.00  0.00     0.046 A 
HETATM    7  C8  UNL     1      25.542   0.526  53.524  1.00  0.00     0.079 A 
HETATM    8  O4  UNL     1      26.848   0.952  53.401  1.00  0.00    -0.262 OA
HETATM    9  C13 UNL     1      27.214   2.090  52.729  1.00  0.00     0.367 A 
HETATM   10  O5  UNL     1      28.444   2.414  52.664  1.00  0.00    -0.238 OA
HETATM   11  N1  UNL     1      26.263   2.931  52.097  1.00  0.00    -0.320 N 
HETATM   12  C14 UNL     1      24.339   2.447  50.759  1.00  0.00     0.104 A 
HETATM   13  H15 UNL     1      26.581   3.784  51.596  1.00  0.00     0.166 HD
ENDROOT
BRANCH   7  14
HETATM   14  C9  UNL     1      25.074  -0.680  54.228  1.00  0.00     0.036 C 
HETATM   15  C10 UNL     1      23.832  -1.014  54.533  1.00  0.00     0.010 C 
BRANCH  15  16
HETATM   16  C11 UNL     1      22.397  -0.744  54.529  1.00  0.00     0.179 C 
HETATM   17  C12 UNL     1      21.783  -0.648  53.134  1.00  0.00     0.047 C 
BRANCH  16  18
HETATM   18  O2  UNL     1      21.706  -1.695  55.294  1.00  0.00    -0.234 OA
BRANCH  18  19
HETATM   19  O3  UNL     1      20.545  -1.867  54.702  1.00  0.00    -0.250 OA
HETATM   20  H14 UNL     1      20.399  -2.782  54.365  1.00  0.00     0.253 HD
ENDBRANCH  18  19
ENDBRANCH  16  18
ENDBRANCH  15  16
ENDBRANCH   7  14
BRANCH   1  21
HETATM   21  O1  UNL     1      22.836   3.260  49.134  1.00  0.00    -0.360 OA
HETATM   22  C1  UNL     1      21.900   4.095  48.515  1.00  0.00     0.209 C 
ENDBRANCH   1  21
TORSDOF 5
ENDMDL
MODEL 7
REMARK VINA RESULT:      -6.9      2.803      5.868
REMARK  5 active torsions:
REMARK  status: ('A' for Active; 'I' for Inactive)
REMARK    1  A    between atoms: O1_2  and  C2_3 
REMARK    2  A    between atoms: C8_9  and  C9_10 
REMARK    3  A    between atoms: C10_11  and  C11_12 
REMARK    4  A    between atoms: C11_12  and  O2_14 
REMARK    5  A    between atoms: O2_14  and  O3_15 
ROOT
HETATM    1  C2  UNL     1      23.768   4.586  51.380  1.00  0.00     0.048 A 
HETATM    2  C3  UNL     1      24.126   4.344  50.142  1.00  0.00     0.032 A 
HETATM    3  C4  UNL     1      23.956   2.979  49.662  1.00  0.00     0.001 A 
HETATM    4  C5  UNL     1      23.455   2.105  50.518  1.00  0.00     0.009 A 
HETATM    5  C6  UNL     1      23.013   2.271  51.949  1.00  0.00     0.079 A 
HETATM    6  C7  UNL     1      23.777   1.313  52.749  1.00  0.00     0.046 A 
HETATM    7  C8  UNL     1      23.414   0.286  53.461  1.00  0.00     0.079 A 
HETATM    8  O4  UNL     1      22.051   0.075  53.446  1.00  0.00    -0.262 OA
HETATM    9  C13 UNL     1      21.170   0.865  52.753  1.00  0.00     0.367 A 
HETATM   10  O5  UNL     1      19.924   0.601  52.791  1.00  0.00    -0.238 OA
HETATM   11  N1  UNL     1      21.598   1.979  51.986  1.00  0.00    -0.320 N 
HETATM   12  C14 UNL     1      23.202   3.700  52.422  1.00  0.00     0.104 A 
HETATM   13  H15 UNL     1      20.898   2.554  51.476  1.00  0.00     0.166 HD
ENDROOT
BRANCH   7  14
HETATM   14  C9  UNL     1      24.419  -0.518  54.178  1.00  0.00     0.036 C 
HETATM   15  C10 UNL     1      25.627  -0.865  53.767  1.00  0.00     0.010 C 
BRANCH  15  16
HETATM   16  C11 UNL     1      26.688  -0.860  52.765  1.00  0.00     0.179 C 
HETATM   17  C12 UNL     1      27.123   0.535  52.323  1.00  0.00     0.047 C 
BRANCH  16  18
HETATM   18  O2  UNL     1      27.799  -1.592  53.207  1.00  0.00    -0.234 OA
BRANCH  18  19
HETATM   19  O3  UNL     1      27.544  -2.850  52.924  1.00  0.00    -0.250 OA
HETATM   20  H14 UNL     1      28.062  -3.494  53.461  1.00  0.00     0.253 HD
ENDBRANCH  18  19
ENDBRANCH  16  18
ENDBRANCH  15  16
ENDBRANCH   7  14
BRANCH   1  21
HETATM   21  O1  UNL     1      23.910   5.887  51.897  1.00  0.00    -0.360 OA
HETATM   22  C1  UNL     1      24.068   7.025  51.099  1.00  0.00     0.209 C 
ENDBRANCH   1  21
TORSDOF 5
ENDMDL
MODEL 8
REMARK VINA RESULT:      -6.9      2.240      2.980
REMARK  5 active torsions:
REMARK  status: ('A' for Active; 'I' for Inactive)
REMARK    1  A    between atoms: O1_2  and  C2_3 
REMARK    2  A    between atoms: C8_9  and  C9_10 
REMARK    3  A    between atoms: C10_11  and  C11_12 
REMARK    4  A    between atoms: C11_12  and  O2_14 
REMARK    5  A    between atoms: O2_14  and  O3_15 
ROOT
HETATM    1  C2  UNL     1      26.475   1.796  53.370  1.00  0.00     0.048 A 
HETATM    2  C3  UNL     1      27.300   1.839  52.352  1.00  0.00     0.032 A 
HETATM    3  C4  UNL     1      26.746   2.264  51.074  1.00  0.00     0.001 A 
HETATM    4  C5  UNL     1      25.460   2.569  51.054  1.00  0.00     0.009 A 
HETATM    5  C6  UNL     1      24.428   2.556  52.151  1.00  0.00     0.079 A 
HETATM    6  C7  UNL     1      23.342   1.680  51.711  1.00  0.00     0.046 A 
HETATM    7  C8  UNL     1      22.087   1.909  51.452  1.00  0.00     0.079 A 
HETATM    8  O4  UNL     1      21.732   3.230  51.633  1.00  0.00    -0.262 OA
HETATM    9  C13 UNL     1      22.611   4.200  52.041  1.00  0.00     0.367 A 
HETATM   10  O5  UNL     1      22.203   5.399  52.183  1.00  0.00    -0.238 OA
HETATM   11  N1  UNL     1      23.974   3.918  52.315  1.00  0.00    -0.320 N 
HETATM   12  C14 UNL     1      25.031   2.109  53.469  1.00  0.00     0.104 A 
HETATM   13  H15 UNL     1      24.607   4.682  52.624  1.00  0.00     0.166 HD
ENDROOT
BRANCH   7  14
HETATM   14  C9  UNL     1      21.202   0.815  51.016  1.00  0.00     0.036 C 
HETATM   15  C10 UNL     1      20.313   0.152  51.736  1.00  0.00     0.010 C 
BRANCH  15  16
HETATM   16  C11 UNL     1      19.619  -0.101  52.995  1.00  0.00     0.179 C 
HETATM   17  C12 UNL     1      18.326  -0.900  52.847  1.00  0.00     0.047 C 
BRANCH  16  18
HETATM   18  O2  UNL     1      20.469  -0.728  53.918  1.00  0.00    -0.234 OA
BRANCH  18  19
HETATM   19  O3  UNL     1      20.586   0.102  54.930  1.00  0.00    -0.250 OA
HETATM   20  H14 UNL     1      20.979   0.974  54.689  1.00  0.00     0.253 HD
ENDBRANCH  18  19
ENDBRANCH  16  18
ENDBRANCH  15  16
ENDBRANCH   7  14
BRANCH   1  21
HETATM   21  O1  UNL     1      26.955   1.393  54.630  1.00  0.00    -0.360 OA
HETATM   22  C1  UNL     1      27.793   0.289  54.824  1.00  0.00     0.209 C 
ENDBRANCH   1  21
TORSDOF 5
ENDMDL
MODEL 9
REMARK VINA RESULT:      -6.8      2.896      5.962
REMARK  5 active torsions:
REMARK  status: ('A' for Active; 'I' for Inactive)
REMARK    1  A    between atoms: O1_2  and  C2_3 
REMARK    2  A    between atoms: C8_9  and  C9_10 
REMARK    3  A    between atoms: C10_11  and  C11_12 
REMARK    4  A    between atoms: C11_12  and  O2_14 
REMARK    5  A    between atoms: O2_14  and  O3_15 
ROOT
HETATM    1  C2  UNL     1      24.433   4.717  50.377  1.00  0.00     0.048 A 
HETATM    2  C3  UNL     1      24.314   4.388  49.113  1.00  0.00     0.032 A 
HETATM    3  C4  UNL     1      23.584   3.163  48.818  1.00  0.00     0.001 A 
HETATM    4  C5  UNL     1      23.104   2.492  49.852  1.00  0.00     0.009 A 
HETATM    5  C6  UNL     1      23.180   2.774  51.330  1.00  0.00     0.079 A 
HETATM    6  C7  UNL     1      23.797   1.607  51.960  1.00  0.00     0.046 A 
HETATM    7  C8  UNL     1      23.351   0.748  52.830  1.00  0.00     0.079 A 
HETATM    8  O4  UNL     1      22.051   0.999  53.218  1.00  0.00    -0.262 OA
HETATM    9  C13 UNL     1      21.307   2.046  52.737  1.00  0.00     0.367 A 
HETATM   10  O5  UNL     1      20.111   2.209  53.146  1.00  0.00    -0.238 OA
HETATM   11  N1  UNL     1      21.823   2.966  51.789  1.00  0.00    -0.320 N 
HETATM   12  C14 UNL     1      23.946   4.054  51.607  1.00  0.00     0.104 A 
HETATM   13  H15 UNL     1      21.227   3.747  51.450  1.00  0.00     0.166 HD
ENDROOT
BRANCH   7  14
HETATM   14  C9  UNL     1      24.210  -0.353  53.300  1.00  0.00     0.036 C 
HETATM   15  C10 UNL     1      25.457  -0.283  53.735  1.00  0.00     0.010 C 
BRANCH  15  16
HETATM   16  C11 UNL     1      26.660   0.480  54.051  1.00  0.00     0.179 C 
HETATM   17  C12 UNL     1      27.553   0.766  52.846  1.00  0.00     0.047 C 
BRANCH  16  18
HETATM   18  O2  UNL     1      26.337   1.678  54.704  1.00  0.00    -0.234 OA
BRANCH  18  19
HETATM   19  O3  UNL     1      26.718   2.647  53.903  1.00  0.00    -0.250 OA
HETATM   20  H14 UNL     1      27.212   3.370  54.355  1.00  0.00     0.253 HD
ENDBRANCH  18  19
ENDBRANCH  16  18
ENDBRANCH  15  16
ENDBRANCH   7  14
BRANCH   1  21
HETATM   21  O1  UNL     1      25.129   5.891  50.721  1.00  0.00    -0.360 OA
HETATM   22  C1  UNL     1      24.521   7.146  50.836  1.00  0.00     0.209 C 
ENDBRANCH   1  21
TORSDOF 5
ENDMDL
