MODEL 1
REMARK VINA RESULT:      -8.2      0.000      0.000
REMARK  9 active torsions:
REMARK  status: ('A' for Active; 'I' for Inactive)
REMARK    1  A    between atoms: C2_3  and  C3_4 
REMARK    2  A    between atoms: C3_4  and  N2_5 
REMARK    3  A    between atoms: N2_5  and  C4_6 
REMARK    4  A    between atoms: N4_12  and  C9_13 
REMARK    5  A    between atoms: C9_13  and  N5_14 
REMARK    6  A    between atoms: N5_14  and  C10_15 
REMARK    7  A    between atoms: C13_18  and  O1_19 
REMARK    8  A    between atoms: O1_19  and  C14_20 
REMARK    9  A    between atoms: C14_20  and  C15_21 
ROOT
HETATM    1  N1  UNL     1      25.069  -0.998  55.157  1.00  0.00    -0.197 NA
HETATM    2  C1  UNL     1      23.935  -1.165  55.064  1.00  0.00     0.067 C 
HETATM    3  C2  UNL     1      22.519  -1.350  54.948  1.00  0.00     0.139 C 
ENDROOT
BRANCH   3   4
HETATM    4  C3  UNL     1      21.617  -0.445  54.605  1.00  0.00     0.154 C 
BRANCH   4   5
HETATM    5  N2  UNL     1      20.472   0.340  54.433  1.00  0.00    -0.277 NA
BRANCH   5   6
HETATM    6  C4  UNL     1      19.646   0.004  53.455  1.00  0.00     0.097 A 
HETATM    7  C5  UNL     1      18.656  -1.033  53.398  1.00  0.00     0.149 A 
HETATM    8  N3  UNL     1      17.990  -1.093  52.290  1.00  0.00    -0.271 NA
HETATM    9  C6  UNL     1      18.263  -0.162  51.225  1.00  0.00     0.118 A 
HETATM   10  C7  UNL     1      19.174   0.816  51.237  1.00  0.00     0.053 A 
HETATM   11  C8  UNL     1      20.043   1.050  52.421  1.00  0.00     0.084 A 
HETATM   12  N4  UNL     1      20.893   1.978  52.426  1.00  0.00    -0.268 NA
BRANCH  12  13
HETATM   13  C9  UNL     1      21.047   2.797  51.257  1.00  0.00     0.271 C 
BRANCH  13  14
HETATM   14  N5  UNL     1      22.067   3.791  51.571  1.00  0.00    -0.372 N 
HETATM   15  H8  UNL     1      21.823   4.767  51.752  1.00  0.00     0.161 HD
BRANCH  14  16
HETATM   16  C10 UNL     1      23.437   3.413  51.634  1.00  0.00     0.031 A 
HETATM   17  C11 UNL     1      23.986   2.732  52.702  1.00  0.00     0.032 A 
HETATM   18  C12 UNL     1      25.325   2.336  52.824  1.00  0.00     0.041 A 
HETATM   19  C13 UNL     1      26.171   2.670  51.758  1.00  0.00     0.091 A 
HETATM   20  C21 UNL     1      25.678   3.345  50.675  1.00  0.00     0.069 A 
HETATM   21 CL1  UNL     1      26.811   3.711  49.398  1.00  0.00    -0.081 Cl
HETATM   22  C22 UNL     1      24.348   3.694  50.639  1.00  0.00     0.056 A 
BRANCH  19  23
HETATM   23  O1  UNL     1      27.478   2.242  51.960  1.00  0.00    -0.345 OA
BRANCH  23  24
HETATM   24  C14 UNL     1      28.029   1.840  53.183  1.00  0.00     0.214 C 
BRANCH  24  25
HETATM   25  C15 UNL     1      28.402   0.417  53.213  1.00  0.00    -0.034 A 
HETATM   26  C16 UNL     1      29.703   0.077  53.617  1.00  0.00     0.009 A 
HETATM   27  C17 UNL     1      30.046  -1.243  53.648  1.00  0.00     0.001 A 
HETATM   28  C18 UNL     1      29.184  -2.297  53.302  1.00  0.00     0.000 A 
HETATM   29  C19 UNL     1      27.914  -1.955  52.908  1.00  0.00     0.001 A 
HETATM   30  C20 UNL     1      27.572  -0.618  52.879  1.00  0.00     0.009 A 
ENDBRANCH  24  25
ENDBRANCH  23  24
ENDBRANCH  19  23
ENDBRANCH  14  16
ENDBRANCH  13  14
ENDBRANCH  12  13
ENDBRANCH   5   6
ENDBRANCH   4   5
ENDBRANCH   3   4
TORSDOF 9
ENDMDL
MODEL 2
REMARK VINA RESULT:      -7.5      5.881      9.838
REMARK  9 active torsions:
REMARK  status: ('A' for Active; 'I' for Inactive)
REMARK    1  A    between atoms: C2_3  and  C3_4 
REMARK    2  A    between atoms: C3_4  and  N2_5 
REMARK    3  A    between atoms: N2_5  and  C4_6 
REMARK    4  A    between atoms: N4_12  and  C9_13 
REMARK    5  A    between atoms: C9_13  and  N5_14 
REMARK    6  A    between atoms: N5_14  and  C10_15 
REMARK    7  A    between atoms: C13_18  and  O1_19 
REMARK    8  A    between atoms: O1_19  and  C14_20 
REMARK    9  A    between atoms: C14_20  and  C15_21 
ROOT
HETATM    1  N1  UNL     1      32.042   0.212  46.687  1.00  0.00    -0.197 NA
HETATM    2  C1  UNL     1      32.431   1.272  46.900  1.00  0.00     0.067 C 
HETATM    3  C2  UNL     1      32.896   2.602  47.162  1.00  0.00     0.139 C 
ENDROOT
BRANCH   3   4
HETATM    4  C3  UNL     1      32.167   3.654  47.495  1.00  0.00     0.154 C 
BRANCH   4   5
HETATM    5  N2  UNL     1      31.257   4.716  47.563  1.00  0.00    -0.277 NA
BRANCH   5   6
HETATM    6  C4  UNL     1      31.690   5.855  48.079  1.00  0.00     0.097 A 
HETATM    7  C5  UNL     1      33.029   6.328  48.281  1.00  0.00     0.149 A 
HETATM    8  N3  UNL     1      33.120   7.509  48.799  1.00  0.00    -0.271 NA
HETATM    9  C6  UNL     1      31.931   8.253  49.130  1.00  0.00     0.118 A 
HETATM   10  C7  UNL     1      30.668   7.851  48.960  1.00  0.00     0.053 A 
HETATM   11  C8  UNL     1      30.351   6.519  48.376  1.00  0.00     0.084 A 
HETATM   12  N4  UNL     1      29.159   6.153  48.212  1.00  0.00    -0.268 NA
BRANCH  12  13
HETATM   13  C9  UNL     1      28.093   7.019  48.628  1.00  0.00     0.271 C 
BRANCH  13  14
HETATM   14  N5  UNL     1      26.847   6.380  48.217  1.00  0.00    -0.372 N 
HETATM   15  H8  UNL     1      26.451   6.532  47.287  1.00  0.00     0.161 HD
BRANCH  14  16
HETATM   16  C10 UNL     1      26.155   5.523  49.116  1.00  0.00     0.031 A 
HETATM   17  C11 UNL     1      26.611   4.269  49.469  1.00  0.00     0.032 A 
HETATM   18  C12 UNL     1      25.974   3.378  50.344  1.00  0.00     0.041 A 
HETATM   19  C13 UNL     1      24.765   3.813  50.902  1.00  0.00     0.091 A 
HETATM   20  C21 UNL     1      24.267   5.048  50.586  1.00  0.00     0.069 A 
HETATM   21 CL1  UNL     1      22.756   5.499  51.336  1.00  0.00    -0.081 Cl
HETATM   22  C22 UNL     1      24.960   5.858  49.716  1.00  0.00     0.056 A 
BRANCH  19  23
HETATM   23  O1  UNL     1      24.201   2.871  51.754  1.00  0.00    -0.345 OA
BRANCH  23  24
HETATM   24  C14 UNL     1      23.378   1.806  51.370  1.00  0.00     0.214 C 
BRANCH  24  25
HETATM   25  C15 UNL     1      22.969   0.951  52.495  1.00  0.00    -0.034 A 
HETATM   26  C16 UNL     1      23.926   0.099  53.068  1.00  0.00     0.009 A 
HETATM   27  C17 UNL     1      23.546  -0.690  54.114  1.00  0.00     0.001 A 
HETATM   28  C18 UNL     1      22.253  -0.712  54.664  1.00  0.00     0.000 A 
HETATM   29  C19 UNL     1      21.324   0.124  54.097  1.00  0.00     0.001 A 
HETATM   30  C20 UNL     1      21.713   0.921  53.040  1.00  0.00     0.009 A 
ENDBRANCH  24  25
ENDBRANCH  23  24
ENDBRANCH  19  23
ENDBRANCH  14  16
ENDBRANCH  13  14
ENDBRANCH  12  13
ENDBRANCH   5   6
ENDBRANCH   4   5
ENDBRANCH   3   4
TORSDOF 9
ENDMDL
MODEL 3
REMARK VINA RESULT:      -7.2      2.853      5.327
REMARK  9 active torsions:
REMARK  status: ('A' for Active; 'I' for Inactive)
REMARK    1  A    between atoms: C2_3  and  C3_4 
REMARK    2  A    between atoms: C3_4  and  N2_5 
REMARK    3  A    between atoms: N2_5  and  C4_6 
REMARK    4  A    between atoms: N4_12  and  C9_13 
REMARK    5  A    between atoms: C9_13  and  N5_14 
REMARK    6  A    between atoms: N5_14  and  C10_15 
REMARK    7  A    between atoms: C13_18  and  O1_19 
REMARK    8  A    between atoms: O1_19  and  C14_20 
REMARK    9  A    between atoms: C14_20  and  C15_21 
ROOT
HETATM    1  N1  UNL     1      26.380   5.696  49.280  1.00  0.00    -0.197 NA
HETATM    2  C1  UNL     1      25.742   4.754  49.440  1.00  0.00     0.067 C 
HETATM    3  C2  UNL     1      24.929   3.589  49.630  1.00  0.00     0.139 C 
ENDROOT
BRANCH   3   4
HETATM    4  C3  UNL     1      23.790   3.299  49.023  1.00  0.00     0.154 C 
BRANCH   4   5
HETATM    5  N2  UNL     1      22.465   3.218  48.577  1.00  0.00    -0.277 NA
BRANCH   5   6
HETATM    6  C4  UNL     1      21.692   4.273  48.772  1.00  0.00     0.097 A 
HETATM    7  C5  UNL     1      21.752   5.582  48.189  1.00  0.00     0.149 A 
HETATM    8  N3  UNL     1      20.827   6.398  48.579  1.00  0.00    -0.271 NA
HETATM    9  C6  UNL     1      19.834   5.971  49.531  1.00  0.00     0.118 A 
HETATM   10  C7  UNL     1      19.742   4.764  50.098  1.00  0.00     0.053 A 
HETATM   11  C8  UNL     1      20.713   3.683  49.779  1.00  0.00     0.084 A 
HETATM   12  N4  UNL     1      20.614   2.548  50.313  1.00  0.00    -0.268 NA
BRANCH  12  13
HETATM   13  C9  UNL     1      19.569   2.307  51.266  1.00  0.00     0.271 C 
BRANCH  13  14
HETATM   14  N5  UNL     1      20.171   2.432  52.589  1.00  0.00    -0.372 N 
HETATM   15  H8  UNL     1      19.774   3.049  53.301  1.00  0.00     0.161 HD
BRANCH  14  16
HETATM   16  C10 UNL     1      21.337   1.685  52.917  1.00  0.00     0.031 A 
HETATM   17  C11 UNL     1      22.613   2.084  52.574  1.00  0.00     0.032 A 
HETATM   18  C12 UNL     1      23.796   1.393  52.863  1.00  0.00     0.041 A 
HETATM   19  C13 UNL     1      23.656   0.188  53.565  1.00  0.00     0.091 A 
HETATM   20  C21 UNL     1      22.414  -0.254  53.930  1.00  0.00     0.069 A 
HETATM   21 CL1  UNL     1      22.346  -1.764  54.804  1.00  0.00    -0.081 Cl
HETATM   22  C22 UNL     1      21.305   0.491  53.603  1.00  0.00     0.056 A 
BRANCH  19  23
HETATM   23  O1  UNL     1      24.876  -0.432  53.809  1.00  0.00    -0.345 OA
BRANCH  23  24
HETATM   24  C14 UNL     1      25.746  -0.943  52.838  1.00  0.00     0.214 C 
BRANCH  24  25
HETATM   25  C15 UNL     1      27.163  -0.674  53.127  1.00  0.00    -0.034 A 
HETATM   26  C16 UNL     1      27.528   0.621  53.528  1.00  0.00     0.009 A 
HETATM   27  C17 UNL     1      28.843   0.867  53.799  1.00  0.00     0.001 A 
HETATM   28  C18 UNL     1      29.867  -0.091  53.705  1.00  0.00     0.000 A 
HETATM   29  C19 UNL     1      29.500  -1.354  53.313  1.00  0.00     0.001 A 
HETATM   30  C20 UNL     1      28.169  -1.598  53.040  1.00  0.00     0.009 A 
ENDBRANCH  24  25
ENDBRANCH  23  24
ENDBRANCH  19  23
ENDBRANCH  14  16
ENDBRANCH  13  14
ENDBRANCH  12  13
ENDBRANCH   5   6
ENDBRANCH   4   5
ENDBRANCH   3   4
TORSDOF 9
ENDMDL
MODEL 4
REMARK VINA RESULT:      -7.2      3.993      7.280
REMARK  9 active torsions:
REMARK  status: ('A' for Active; 'I' for Inactive)
REMARK    1  A    between atoms: C2_3  and  C3_4 
REMARK    2  A    between atoms: C3_4  and  N2_5 
REMARK    3  A    between atoms: N2_5  and  C4_6 
REMARK    4  A    between atoms: N4_12  and  C9_13 
REMARK    5  A    between atoms: C9_13  and  N5_14 
REMARK    6  A    between atoms: N5_14  and  C10_15 
REMARK    7  A    between atoms: C13_18  and  O1_19 
REMARK    8  A    between atoms: O1_19  and  C14_20 
REMARK    9  A    between atoms: C14_20  and  C15_21 
ROOT
HETATM    1  N1  UNL     1      29.657   8.198  48.573  1.00  0.00    -0.197 NA
HETATM    2  C1  UNL     1      29.010   7.258  48.443  1.00  0.00     0.067 C 
HETATM    3  C2  UNL     1      28.188   6.094  48.294  1.00  0.00     0.139 C 
ENDROOT
BRANCH   3   4
HETATM    4  C3  UNL     1      26.900   5.981  48.574  1.00  0.00     0.154 C 
BRANCH   4   5
HETATM    5  N2  UNL     1      25.511   6.121  48.684  1.00  0.00    -0.277 NA
BRANCH   5   6
HETATM    6  C4  UNL     1      25.001   7.318  48.448  1.00  0.00     0.097 A 
HETATM    7  C5  UNL     1      25.563   8.442  47.756  1.00  0.00     0.149 A 
HETATM    8  N3  UNL     1      24.792   9.478  47.678  1.00  0.00    -0.271 NA
HETATM    9  C6  UNL     1      23.475   9.451  48.260  1.00  0.00     0.118 A 
HETATM   10  C7  UNL     1      22.914   8.428  48.912  1.00  0.00     0.053 A 
HETATM   11  C8  UNL     1      23.639   7.144  49.108  1.00  0.00     0.084 A 
HETATM   12  N4  UNL     1      23.099   6.183  49.717  1.00  0.00    -0.268 NA
BRANCH  12  13
HETATM   13  C9  UNL     1      21.779   6.346  50.257  1.00  0.00     0.271 C 
BRANCH  13  14
HETATM   14  N5  UNL     1      21.844   5.934  51.655  1.00  0.00    -0.372 N 
HETATM   15  H8  UNL     1      21.458   6.517  52.401  1.00  0.00     0.161 HD
BRANCH  14  16
HETATM   16  C10 UNL     1      22.453   4.699  52.009  1.00  0.00     0.031 A 
HETATM   17  C11 UNL     1      23.549   4.606  52.842  1.00  0.00     0.032 A 
HETATM   18  C12 UNL     1      24.195   3.423  53.224  1.00  0.00     0.041 A 
HETATM   19  C13 UNL     1      23.669   2.233  52.703  1.00  0.00     0.091 A 
HETATM   20  C21 UNL     1      22.583   2.267  51.872  1.00  0.00     0.069 A 
HETATM   21 CL1  UNL     1      22.001   0.732  51.279  1.00  0.00    -0.081 Cl
HETATM   22  C22 UNL     1      22.012   3.476  51.550  1.00  0.00     0.056 A 
BRANCH  19  23
HETATM   23  O1  UNL     1      24.367   1.109  53.130  1.00  0.00    -0.345 OA
BRANCH  23  24
HETATM   24  C14 UNL     1      25.472   0.537  52.487  1.00  0.00     0.214 C 
BRANCH  24  25
HETATM   25  C15 UNL     1      26.753   0.858  53.134  1.00  0.00    -0.034 A 
HETATM   26  C16 UNL     1      27.323  -0.094  53.995  1.00  0.00     0.009 A 
HETATM   27  C17 UNL     1      28.513   0.205  54.591  1.00  0.00     0.001 A 
HETATM   28  C18 UNL     1      29.217   1.406  54.404  1.00  0.00     0.000 A 
HETATM   29  C19 UNL     1      28.652   2.330  53.560  1.00  0.00     0.001 A 
HETATM   30  C20 UNL     1      27.449   2.024  52.959  1.00  0.00     0.009 A 
ENDBRANCH  24  25
ENDBRANCH  23  24
ENDBRANCH  19  23
ENDBRANCH  14  16
ENDBRANCH  13  14
ENDBRANCH  12  13
ENDBRANCH   5   6
ENDBRANCH   4   5
ENDBRANCH   3   4
TORSDOF 9
ENDMDL
MODEL 5
REMARK VINA RESULT:      -7.1      3.840      6.340
REMARK  9 active torsions:
REMARK  status: ('A' for Active; 'I' for Inactive)
REMARK    1  A    between atoms: C2_3  and  C3_4 
REMARK    2  A    between atoms: C3_4  and  N2_5 
REMARK    3  A    between atoms: N2_5  and  C4_6 
REMARK    4  A    between atoms: N4_12  and  C9_13 
REMARK    5  A    between atoms: C9_13  and  N5_14 
REMARK    6  A    between atoms: N5_14  and  C10_15 
REMARK    7  A    between atoms: C13_18  and  O1_19 
REMARK    8  A    between atoms: O1_19  and  C14_20 
REMARK    9  A    between atoms: C14_20  and  C15_21 
ROOT
HETATM    1  N1  UNL     1      29.576  -0.468  53.903  1.00  0.00    -0.197 NA
HETATM    2  C1  UNL     1      29.139   0.579  53.722  1.00  0.00     0.067 C 
HETATM    3  C2  UNL     1      28.580   1.877  53.482  1.00  0.00     0.139 C 
ENDROOT
BRANCH   3   4
HETATM    4  C3  UNL     1      27.443   2.159  52.869  1.00  0.00     0.154 C 
BRANCH   4   5
HETATM    5  N2  UNL     1      26.111   2.385  52.504  1.00  0.00    -0.277 NA
BRANCH   5   6
HETATM    6  C4  UNL     1      25.236   1.431  52.775  1.00  0.00     0.097 A 
HETATM    7  C5  UNL     1      25.445   0.042  53.066  1.00  0.00     0.149 A 
HETATM    8  N3  UNL     1      24.370  -0.635  53.309  1.00  0.00    -0.271 NA
HETATM    9  C6  UNL     1      23.082   0.009  53.278  1.00  0.00     0.118 A 
HETATM   10  C7  UNL     1      22.842   1.297  53.011  1.00  0.00     0.053 A 
HETATM   11  C8  UNL     1      23.949   2.243  52.706  1.00  0.00     0.084 A 
HETATM   12  N4  UNL     1      23.714   3.456  52.464  1.00  0.00    -0.268 NA
BRANCH  12  13
HETATM   13  C9  UNL     1      22.357   3.920  52.449  1.00  0.00     0.271 C 
BRANCH  13  14
HETATM   14  N5  UNL     1      22.407   5.361  52.224  1.00  0.00    -0.372 N 
HETATM   15  H8  UNL     1      21.914   6.014  52.836  1.00  0.00     0.161 HD
BRANCH  14  16
HETATM   16  C10 UNL     1      23.156   5.887  51.136  1.00  0.00     0.031 A 
HETATM   17  C11 UNL     1      24.345   6.570  51.295  1.00  0.00     0.032 A 
HETATM   18  C12 UNL     1      25.125   7.114  50.266  1.00  0.00     0.041 A 
HETATM   19  C13 UNL     1      24.639   6.945  48.962  1.00  0.00     0.091 A 
HETATM   20  C21 UNL     1      23.465   6.276  48.748  1.00  0.00     0.069 A 
HETATM   21 CL1  UNL     1      22.947   6.114  47.088  1.00  0.00    -0.081 Cl
HETATM   22  C22 UNL     1      22.764   5.773  49.819  1.00  0.00     0.056 A 
BRANCH  19  23
HETATM   23  O1  UNL     1      25.470   7.514  48.005  1.00  0.00    -0.345 OA
BRANCH  23  24
HETATM   24  C14 UNL     1      26.621   8.270  48.263  1.00  0.00     0.214 C 
BRANCH  24  25
HETATM   25  C15 UNL     1      27.865   7.494  48.146  1.00  0.00    -0.034 A 
HETATM   26  C16 UNL     1      29.066   8.189  47.929  1.00  0.00     0.009 A 
HETATM   27  C17 UNL     1      30.220   7.468  47.824  1.00  0.00     0.001 A 
HETATM   28  C18 UNL     1      30.294   6.068  47.920  1.00  0.00     0.000 A 
HETATM   29  C19 UNL     1      29.115   5.398  48.133  1.00  0.00     0.001 A 
HETATM   30  C20 UNL     1      27.951   6.131  48.238  1.00  0.00     0.009 A 
ENDBRANCH  24  25
ENDBRANCH  23  24
ENDBRANCH  19  23
ENDBRANCH  14  16
ENDBRANCH  13  14
ENDBRANCH  12  13
ENDBRANCH   5   6
ENDBRANCH   4   5
ENDBRANCH   3   4
TORSDOF 9
ENDMDL
MODEL 6
REMARK VINA RESULT:      -7.0      5.870      8.446
REMARK  9 active torsions:
REMARK  status: ('A' for Active; 'I' for Inactive)
REMARK    1  A    between atoms: C2_3  and  C3_4 
REMARK    2  A    between atoms: C3_4  and  N2_5 
REMARK    3  A    between atoms: N2_5  and  C4_6 
REMARK    4  A    between atoms: N4_12  and  C9_13 
REMARK    5  A    between atoms: C9_13  and  N5_14 
REMARK    6  A    between atoms: N5_14  and  C10_15 
REMARK    7  A    between atoms: C13_18  and  O1_19 
REMARK    8  A    between atoms: O1_19  and  C14_20 
REMARK    9  A    between atoms: C14_20  and  C15_21 
ROOT
HETATM    1  N1  UNL     1      29.128  -1.703  53.754  1.00  0.00    -0.197 NA
HETATM    2  C1  UNL     1      29.095  -0.556  53.807  1.00  0.00     0.067 C 
HETATM    3  C2  UNL     1      29.042   0.876  53.854  1.00  0.00     0.139 C 
ENDROOT
BRANCH   3   4
HETATM    4  C3  UNL     1      28.274   1.674  53.131  1.00  0.00     0.154 C 
BRANCH   4   5
HETATM    5  N2  UNL     1      27.484   2.283  52.149  1.00  0.00    -0.277 NA
BRANCH   5   6
HETATM    6  C4  UNL     1      26.181   2.064  52.195  1.00  0.00     0.097 A 
HETATM    7  C5  UNL     1      25.416   1.216  53.063  1.00  0.00     0.149 A 
HETATM    8  N3  UNL     1      24.139   1.236  52.862  1.00  0.00    -0.271 NA
HETATM    9  C6  UNL     1      23.577   2.069  51.830  1.00  0.00     0.118 A 
HETATM   10  C7  UNL     1      24.250   2.872  51.001  1.00  0.00     0.053 A 
HETATM   11  C8  UNL     1      25.732   2.990  51.071  1.00  0.00     0.084 A 
HETATM   12  N4  UNL     1      26.356   3.755  50.291  1.00  0.00    -0.268 NA
BRANCH  12  13
HETATM   13  C9  UNL     1      25.630   4.495  49.299  1.00  0.00     0.271 C 
BRANCH  13  14
HETATM   14  N5  UNL     1      26.066   5.883  49.406  1.00  0.00    -0.372 N 
HETATM   15  H8  UNL     1      25.640   6.526  50.076  1.00  0.00     0.161 HD
BRANCH  14  16
HETATM   16  C10 UNL     1      27.108   6.370  48.569  1.00  0.00     0.031 A 
HETATM   17  C11 UNL     1      26.956   7.450  47.723  1.00  0.00     0.032 A 
HETATM   18  C12 UNL     1      27.940   7.974  46.874  1.00  0.00     0.041 A 
HETATM   19  C13 UNL     1      29.185   7.332  46.896  1.00  0.00     0.091 A 
HETATM   20  C21 UNL     1      29.390   6.257  47.716  1.00  0.00     0.069 A 
HETATM   21 CL1  UNL     1      30.976   5.529  47.673  1.00  0.00    -0.081 Cl
HETATM   22  C22 UNL     1      28.366   5.809  48.518  1.00  0.00     0.056 A 
BRANCH  19  23
HETATM   23  O1  UNL     1      30.100   7.914  46.026  1.00  0.00    -0.345 OA
BRANCH  23  24
HETATM   24  C14 UNL     1      31.193   8.707  46.395  1.00  0.00     0.214 C 
BRANCH  24  25
HETATM   25  C15 UNL     1      30.820   9.864  47.223  1.00  0.00    -0.034 A 
HETATM   26  C16 UNL     1      31.104   9.820  48.598  1.00  0.00     0.009 A 
HETATM   27  C17 UNL     1      30.760  10.895  49.363  1.00  0.00     0.001 A 
HETATM   28  C18 UNL     1      30.137  12.055  48.871  1.00  0.00     0.000 A 
HETATM   29  C19 UNL     1      29.864  12.089  47.527  1.00  0.00     0.001 A 
HETATM   30  C20 UNL     1      30.214  10.999  46.756  1.00  0.00     0.009 A 
ENDBRANCH  24  25
ENDBRANCH  23  24
ENDBRANCH  19  23
ENDBRANCH  14  16
ENDBRANCH  13  14
ENDBRANCH  12  13
ENDBRANCH   5   6
ENDBRANCH   4   5
ENDBRANCH   3   4
TORSDOF 9
ENDMDL
MODEL 7
REMARK VINA RESULT:      -7.0      4.410      8.458
REMARK  9 active torsions:
REMARK  status: ('A' for Active; 'I' for Inactive)
REMARK    1  A    between atoms: C2_3  and  C3_4 
REMARK    2  A    between atoms: C3_4  and  N2_5 
REMARK    3  A    between atoms: N2_5  and  C4_6 
REMARK    4  A    between atoms: N4_12  and  C9_13 
REMARK    5  A    between atoms: C9_13  and  N5_14 
REMARK    6  A    between atoms: N5_14  and  C10_15 
REMARK    7  A    between atoms: C13_18  and  O1_19 
REMARK    8  A    between atoms: O1_19  and  C14_20 
REMARK    9  A    between atoms: C14_20  and  C15_21 
ROOT
HETATM    1  N1  UNL     1      31.067   8.795  49.232  1.00  0.00    -0.197 NA
HETATM    2  C1  UNL     1      29.972   9.133  49.137  1.00  0.00     0.067 C 
HETATM    3  C2  UNL     1      28.601   9.536  49.029  1.00  0.00     0.139 C 
ENDROOT
BRANCH   3   4
HETATM    4  C3  UNL     1      27.572   9.069  49.715  1.00  0.00     0.154 C 
BRANCH   4   5
HETATM    5  N2  UNL     1      26.404   8.439  50.162  1.00  0.00    -0.277 NA
BRANCH   5   6
HETATM    6  C4  UNL     1      25.421   8.292  49.289  1.00  0.00     0.097 A 
HETATM    7  C5  UNL     1      24.693   9.278  48.543  1.00  0.00     0.149 A 
HETATM    8  N3  UNL     1      23.790   8.805  47.747  1.00  0.00    -0.271 NA
HETATM    9  C6  UNL     1      23.573   7.384  47.654  1.00  0.00     0.118 A 
HETATM   10  C7  UNL     1      24.226   6.434  48.329  1.00  0.00     0.053 A 
HETATM   11  C8  UNL     1      25.305   6.773  49.296  1.00  0.00     0.084 A 
HETATM   12  N4  UNL     1      25.919   5.870  49.921  1.00  0.00    -0.268 NA
BRANCH  12  13
HETATM   13  C9  UNL     1      25.548   4.498  49.721  1.00  0.00     0.271 C 
BRANCH  13  14
HETATM   14  N5  UNL     1      26.514   3.690  50.457  1.00  0.00    -0.372 N 
HETATM   15  H8  UNL     1      27.521   3.814  50.331  1.00  0.00     0.161 HD
BRANCH  14  16
HETATM   16  C10 UNL     1      26.065   2.704  51.378  1.00  0.00     0.031 A 
HETATM   17  C11 UNL     1      25.038   2.917  52.275  1.00  0.00     0.032 A 
HETATM   18  C12 UNL     1      24.554   1.990  53.207  1.00  0.00     0.041 A 
HETATM   19  C13 UNL     1      25.179   0.736  53.218  1.00  0.00     0.091 A 
HETATM   20  C21 UNL     1      26.202   0.471  52.349  1.00  0.00     0.069 A 
HETATM   21 CL1  UNL     1      26.913  -1.121  52.439  1.00  0.00    -0.081 Cl
HETATM   22  C22 UNL     1      26.614   1.442  51.467  1.00  0.00     0.056 A 
BRANCH  19  23
HETATM   23  O1  UNL     1      24.640  -0.121  54.170  1.00  0.00    -0.345 OA
BRANCH  23  24
HETATM   24  C14 UNL     1      23.616  -1.051  53.950  1.00  0.00     0.214 C 
BRANCH  24  25
HETATM   25  C15 UNL     1      22.366  -0.438  53.474  1.00  0.00    -0.034 A 
HETATM   26  C16 UNL     1      21.455   0.045  54.427  1.00  0.00     0.009 A 
HETATM   27  C17 UNL     1      20.298   0.616  53.984  1.00  0.00     0.001 A 
HETATM   28  C18 UNL     1      19.949   0.758  52.630  1.00  0.00     0.000 A 
HETATM   29  C19 UNL     1      20.846   0.283  51.706  1.00  0.00     0.001 A 
HETATM   30  C20 UNL     1      22.015  -0.293  52.159  1.00  0.00     0.009 A 
ENDBRANCH  24  25
ENDBRANCH  23  24
ENDBRANCH  19  23
ENDBRANCH  14  16
ENDBRANCH  13  14
ENDBRANCH  12  13
ENDBRANCH   5   6
ENDBRANCH   4   5
ENDBRANCH   3   4
TORSDOF 9
ENDMDL
MODEL 8
REMARK VINA RESULT:      -6.8      3.505      7.913
REMARK  9 active torsions:
REMARK  status: ('A' for Active; 'I' for Inactive)
REMARK    1  A    between atoms: C2_3  and  C3_4 
REMARK    2  A    between atoms: C3_4  and  N2_5 
REMARK    3  A    between atoms: N2_5  and  C4_6 
REMARK    4  A    between atoms: N4_12  and  C9_13 
REMARK    5  A    between atoms: C9_13  and  N5_14 
REMARK    6  A    between atoms: N5_14  and  C10_15 
REMARK    7  A    between atoms: C13_18  and  O1_19 
REMARK    8  A    between atoms: O1_19  and  C14_20 
REMARK    9  A    between atoms: C14_20  and  C15_21 
ROOT
HETATM    1  N1  UNL     1      26.458   6.015  48.918  1.00  0.00    -0.197 NA
HETATM    2  C1  UNL     1      26.426   4.901  49.198  1.00  0.00     0.067 C 
HETATM    3  C2  UNL     1      26.381   3.517  49.567  1.00  0.00     0.139 C 
ENDROOT
BRANCH   3   4
HETATM    4  C3  UNL     1      25.778   2.987  50.618  1.00  0.00     0.154 C 
BRANCH   4   5
HETATM    5  N2  UNL     1      25.393   2.543  51.889  1.00  0.00    -0.277 NA
BRANCH   5   6
HETATM    6  C4  UNL     1      25.882   1.385  52.301  1.00  0.00     0.097 A 
HETATM    7  C5  UNL     1      27.227   0.887  52.272  1.00  0.00     0.149 A 
HETATM    8  N3  UNL     1      27.385  -0.294  52.776  1.00  0.00    -0.271 NA
HETATM    9  C6  UNL     1      26.258  -1.012  53.314  1.00  0.00     0.118 A 
HETATM   10  C7  UNL     1      24.992  -0.587  53.360  1.00  0.00     0.053 A 
HETATM   11  C8  UNL     1      24.603   0.748  52.831  1.00  0.00     0.084 A 
HETATM   12  N4  UNL     1      23.410   1.142  52.886  1.00  0.00    -0.268 NA
BRANCH  12  13
HETATM   13  C9  UNL     1      22.407   0.275  53.436  1.00  0.00     0.271 C 
BRANCH  13  14
HETATM   14  N5  UNL     1      21.578  -0.169  52.320  1.00  0.00    -0.372 N 
HETATM   15  H8  UNL     1      21.317  -1.151  52.208  1.00  0.00     0.161 HD
BRANCH  14  16
HETATM   16  C10 UNL     1      21.112   0.769  51.359  1.00  0.00     0.031 A 
HETATM   17  C11 UNL     1      21.499   0.751  50.034  1.00  0.00     0.032 A 
HETATM   18  C12 UNL     1      21.079   1.647  49.042  1.00  0.00     0.041 A 
HETATM   19  C13 UNL     1      20.186   2.648  49.447  1.00  0.00     0.091 A 
HETATM   20  C21 UNL     1      19.770   2.712  50.749  1.00  0.00     0.069 A 
HETATM   21 CL1  UNL     1      18.654   3.992  51.153  1.00  0.00    -0.081 Cl
HETATM   22  C22 UNL     1      20.234   1.789  51.657  1.00  0.00     0.056 A 
BRANCH  19  23
HETATM   23  O1  UNL     1      19.822   3.492  48.404  1.00  0.00    -0.345 OA
BRANCH  23  24
HETATM   24  C14 UNL     1      20.642   4.457  47.806  1.00  0.00     0.214 C 
BRANCH  24  25
HETATM   25  C15 UNL     1      21.221   5.407  48.768  1.00  0.00    -0.034 A 
HETATM   26  C16 UNL     1      20.423   6.471  49.217  1.00  0.00     0.009 A 
HETATM   27  C17 UNL     1      20.960   7.349  50.112  1.00  0.00     0.001 A 
HETATM   28  C18 UNL     1      22.266   7.264  50.623  1.00  0.00     0.000 A 
HETATM   29  C19 UNL     1      23.039   6.220  50.179  1.00  0.00     0.001 A 
HETATM   30  C20 UNL     1      22.491   5.335  49.274  1.00  0.00     0.009 A 
ENDBRANCH  24  25
ENDBRANCH  23  24
ENDBRANCH  19  23
ENDBRANCH  14  16
ENDBRANCH  13  14
ENDBRANCH  12  13
ENDBRANCH   5   6
ENDBRANCH   4   5
ENDBRANCH   3   4
TORSDOF 9
ENDMDL
MODEL 9
REMARK VINA RESULT:      -6.6      6.911     10.868
REMARK  9 active torsions:
REMARK  status: ('A' for Active; 'I' for Inactive)
REMARK    1  A    between atoms: C2_3  and  C3_4 
REMARK    2  A    between atoms: C3_4  and  N2_5 
REMARK    3  A    between atoms: N2_5  and  C4_6 
REMARK    4  A    between atoms: N4_12  and  C9_13 
REMARK    5  A    between atoms: C9_13  and  N5_14 
REMARK    6  A    between atoms: N5_14  and  C10_15 
REMARK    7  A    between atoms: C13_18  and  O1_19 
REMARK    8  A    between atoms: O1_19  and  C14_20 
REMARK    9  A    between atoms: C14_20  and  C15_21 
ROOT
HETATM    1  N1  UNL     1      26.452  14.506  45.191  1.00  0.00    -0.197 NA
HETATM    2  C1  UNL     1      26.452  14.457  46.339  1.00  0.00     0.067 C 
HETATM    3  C2  UNL     1      26.461  14.377  47.770  1.00  0.00     0.139 C 
ENDROOT
BRANCH   3   4
HETATM    4  C3  UNL     1      27.160  13.542  48.521  1.00  0.00     0.154 C 
BRANCH   4   5
HETATM    5  N2  UNL     1      28.018  12.563  49.035  1.00  0.00    -0.277 NA
BRANCH   5   6
HETATM    6  C4  UNL     1      28.503  11.673  48.184  1.00  0.00     0.097 A 
HETATM    7  C5  UNL     1      29.263  11.862  46.983  1.00  0.00     0.149 A 
HETATM    8  N3  UNL     1      29.607  10.773  46.375  1.00  0.00    -0.271 NA
HETATM    9  C6  UNL     1      29.229   9.490  46.911  1.00  0.00     0.118 A 
HETATM   10  C7  UNL     1      28.523   9.269  48.024  1.00  0.00     0.053 A 
HETATM   11  C8  UNL     1      28.033  10.394  48.866  1.00  0.00     0.084 A 
HETATM   12  N4  UNL     1      27.375  10.176  49.916  1.00  0.00    -0.268 NA
BRANCH  12  13
HETATM   13  C9  UNL     1      27.066   8.824  50.284  1.00  0.00     0.271 C 
BRANCH  13  14
HETATM   14  N5  UNL     1      25.611   8.723  50.330  1.00  0.00    -0.372 N 
HETATM   15  H8  UNL     1      25.018   9.555  50.313  1.00  0.00     0.161 HD
BRANCH  14  16
HETATM   16  C10 UNL     1      24.986   7.447  50.397  1.00  0.00     0.031 A 
HETATM   17  C11 UNL     1      23.721   7.251  50.915  1.00  0.00     0.032 A 
HETATM   18  C12 UNL     1      23.054   6.023  51.013  1.00  0.00     0.041 A 
HETATM   19  C13 UNL     1      23.746   4.900  50.539  1.00  0.00     0.091 A 
HETATM   20  C21 UNL     1      25.003   5.039  50.015  1.00  0.00     0.069 A 
HETATM   21 CL1  UNL     1      25.780   3.582  49.448  1.00  0.00    -0.081 Cl
HETATM   22  C22 UNL     1      25.582   6.285  49.958  1.00  0.00     0.056 A 
BRANCH  19  23
HETATM   23  O1  UNL     1      23.015   3.726  50.673  1.00  0.00    -0.345 OA
BRANCH  23  24
HETATM   24  C14 UNL     1      22.785   3.036  51.870  1.00  0.00     0.214 C 
BRANCH  24  25
HETATM   25  C15 UNL     1      23.972   2.324  52.369  1.00  0.00    -0.034 A 
HETATM   26  C16 UNL     1      24.753   2.941  53.358  1.00  0.00     0.009 A 
HETATM   27  C17 UNL     1      25.851   2.278  53.822  1.00  0.00     0.001 A 
HETATM   28  C18 UNL     1      26.260   1.009  53.378  1.00  0.00     0.000 A 
HETATM   29  C19 UNL     1      25.490   0.413  52.411  1.00  0.00     0.001 A 
HETATM   30  C20 UNL     1      24.380   1.088  51.945  1.00  0.00     0.009 A 
ENDBRANCH  24  25
ENDBRANCH  23  24
ENDBRANCH  19  23
ENDBRANCH  14  16
ENDBRANCH  13  14
ENDBRANCH  12  13
ENDBRANCH   5   6
ENDBRANCH   4   5
ENDBRANCH   3   4
TORSDOF 9
ENDMDL
