MODEL 1
REMARK VINA RESULT:      -8.7      0.000      0.000
REMARK  7 active torsions:
REMARK  status: ('A' for Active; 'I' for Inactive)
REMARK    1  A    between atoms: C7_7  and  N1_8 
REMARK    2  A    between atoms: N1_8  and  C8_9 
REMARK    3  A    between atoms: C8_9  and  C9_10 
REMARK    4  A    between atoms: C11_12  and  O1_13 
REMARK    5  A    between atoms: O1_13  and  C12_14 
REMARK    6  A    between atoms: C12_14  and  C13_15 
REMARK    7  A    between atoms: C13_15  and  O2_16 
ROOT
HETATM    1  C1  UNL     1      31.084   5.794  47.576  1.00  0.00     0.018 C 
HETATM    2  C2  UNL     1      29.901   5.825  47.881  1.00  0.00    -0.078 C 
HETATM    3  C3  UNL     1      28.492   5.849  48.231  1.00  0.00     0.019 A 
HETATM    4  C4  UNL     1      27.849   7.057  48.064  1.00  0.00     0.021 A 
HETATM    5  C5  UNL     1      26.491   7.069  48.404  1.00  0.00     0.004 A 
HETATM    6  C6  UNL     1      25.904   5.890  48.873  1.00  0.00     0.029 A 
HETATM    7  C7  UNL     1      26.620   4.724  49.009  1.00  0.00     0.029 A 
HETATM    8  C22 UNL     1      27.957   4.663  48.689  1.00  0.00     0.049 A 
ENDROOT
BRANCH   7   9
HETATM    9  N1  UNL     1      25.980   3.549  49.491  1.00  0.00    -0.386 N 
HETATM   10  H5  UNL     1      26.223   2.604  49.123  1.00  0.00     0.160 HD
BRANCH   9  11
HETATM   11  C8  UNL     1      24.953   3.613  50.521  1.00  0.00     0.161 C 
BRANCH  11  12
HETATM   12  C9  UNL     1      24.969   2.448  51.407  1.00  0.00    -0.009 A 
HETATM   13  C10 UNL     1      26.046   1.782  51.933  1.00  0.00     0.050 A 
HETATM   14  C11 UNL     1      26.000   0.694  52.766  1.00  0.00     0.102 A 
HETATM   15  C15 UNL     1      24.781   0.185  53.139  1.00  0.00     0.104 A 
HETATM   16  C16 UNL     1      23.835   1.006  52.493  1.00  0.00     0.072 A 
HETATM   17  O4  UNL     1      24.220  -0.865  53.944  1.00  0.00    -0.346 OA
HETATM   18  C17 UNL     1      23.677   2.090  51.662  1.00  0.00     0.069 A 
HETATM   19  N2  UNL     1      22.357   2.492  51.365  1.00  0.00    -0.244 NA
HETATM   20  C18 UNL     1      21.328   2.104  52.059  1.00  0.00     0.204 C 
HETATM   21  N3  UNL     1      20.874   1.325  53.167  1.00  0.00    -0.363 N 
HETATM   22  C19 UNL     1      20.302   0.208  53.771  1.00  0.00     0.291 C 
HETATM   23  H18 UNL     1      21.238   2.190  53.680  1.00  0.00     0.162 HD
HETATM   24  O3  UNL     1      20.673  -1.043  53.797  1.00  0.00    -0.370 OA
HETATM   25  C20 UNL     1      21.796  -1.574  54.398  1.00  0.00     0.196 C 
HETATM   26  C21 UNL     1      22.858  -0.831  53.811  1.00  0.00     0.202 C 
BRANCH  14  27
HETATM   27  O1  UNL     1      26.856  -0.118  53.406  1.00  0.00    -0.346 OA
BRANCH  27  28
HETATM   28  C12 UNL     1      27.530   0.174  54.583  1.00  0.00     0.201 C 
BRANCH  28  29
HETATM   29  C13 UNL     1      28.803   0.961  54.391  1.00  0.00     0.193 C 
BRANCH  29  30
HETATM   30  O2  UNL     1      29.627   0.431  53.407  1.00  0.00    -0.394 OA
HETATM   31  C14 UNL     1      29.987  -0.873  53.684  1.00  0.00     0.201 C 
ENDBRANCH  29  30
ENDBRANCH  28  29
ENDBRANCH  27  28
ENDBRANCH  14  27
ENDBRANCH  11  12
ENDBRANCH   9  11
ENDBRANCH   7   9
TORSDOF 7
ENDMDL
MODEL 2
REMARK VINA RESULT:      -8.4      1.455      1.761
REMARK  7 active torsions:
REMARK  status: ('A' for Active; 'I' for Inactive)
REMARK    1  A    between atoms: C7_7  and  N1_8 
REMARK    2  A    between atoms: N1_8  and  C8_9 
REMARK    3  A    between atoms: C8_9  and  C9_10 
REMARK    4  A    between atoms: C11_12  and  O1_13 
REMARK    5  A    between atoms: O1_13  and  C12_14 
REMARK    6  A    between atoms: C12_14  and  C13_15 
REMARK    7  A    between atoms: C13_15  and  O2_16 
ROOT
HETATM    1  C1  UNL     1      30.622   7.243  46.741  1.00  0.00     0.018 C 
HETATM    2  C2  UNL     1      29.485   7.107  47.166  1.00  0.00    -0.078 C 
HETATM    3  C3  UNL     1      28.133   6.928  47.664  1.00  0.00     0.019 A 
HETATM    4  C4  UNL     1      27.180   7.776  47.141  1.00  0.00     0.021 A 
HETATM    5  C5  UNL     1      25.880   7.594  47.628  1.00  0.00     0.004 A 
HETATM    6  C6  UNL     1      25.650   6.596  48.580  1.00  0.00     0.029 A 
HETATM    7  C7  UNL     1      26.661   5.791  49.048  1.00  0.00     0.029 A 
HETATM    8  C22 UNL     1      27.955   5.931  48.601  1.00  0.00     0.049 A 
ENDROOT
BRANCH   7   9
HETATM    9  N1  UNL     1      26.380   4.788  50.017  1.00  0.00    -0.386 N 
HETATM   10  H5  UNL     1      26.063   5.033  50.980  1.00  0.00     0.160 HD
BRANCH   9  11
HETATM   11  C8  UNL     1      26.523   3.373  49.708  1.00  0.00     0.161 C 
BRANCH  11  12
HETATM   12  C9  UNL     1      25.862   2.511  50.689  1.00  0.00    -0.009 A 
HETATM   13  C10 UNL     1      26.406   1.524  51.472  1.00  0.00     0.050 A 
HETATM   14  C11 UNL     1      25.735   0.748  52.382  1.00  0.00     0.102 A 
HETATM   15  C15 UNL     1      24.388   0.940  52.563  1.00  0.00     0.104 A 
HETATM   16  C16 UNL     1      24.049   1.979  51.674  1.00  0.00     0.072 A 
HETATM   17  O4  UNL     1      23.294   0.432  53.345  1.00  0.00    -0.346 OA
HETATM   18  C17 UNL     1      24.540   2.846  50.728  1.00  0.00     0.069 A 
HETATM   19  N2  UNL     1      23.631   3.757  50.148  1.00  0.00    -0.244 NA
HETATM   20  C18 UNL     1      22.469   4.022  50.668  1.00  0.00     0.204 C 
HETATM   21  N3  UNL     1      21.563   3.752  51.739  1.00  0.00    -0.363 N 
HETATM   22  C19 UNL     1      20.451   3.156  52.329  1.00  0.00     0.291 C 
HETATM   23  H18 UNL     1      22.239   4.423  52.227  1.00  0.00     0.162 HD
HETATM   24  O3  UNL     1      20.158   1.903  52.546  1.00  0.00    -0.370 OA
HETATM   25  C20 UNL     1      20.798   1.025  53.397  1.00  0.00     0.196 C 
HETATM   26  C21 UNL     1      22.149   1.072  52.953  1.00  0.00     0.202 C 
BRANCH  14  27
HETATM   27  O1  UNL     1      26.002  -0.242  53.248  1.00  0.00    -0.346 OA
BRANCH  27  28
HETATM   28  C12 UNL     1      26.508  -0.088  54.530  1.00  0.00     0.201 C 
BRANCH  28  29
HETATM   29  C13 UNL     1      27.914   0.458  54.581  1.00  0.00     0.193 C 
BRANCH  29  30
HETATM   30  O2  UNL     1      28.867  -0.520  54.835  1.00  0.00    -0.394 OA
HETATM   31  C14 UNL     1      29.628  -0.799  53.716  1.00  0.00     0.201 C 
ENDBRANCH  29  30
ENDBRANCH  28  29
ENDBRANCH  27  28
ENDBRANCH  14  27
ENDBRANCH  11  12
ENDBRANCH   9  11
ENDBRANCH   7   9
TORSDOF 7
ENDMDL
MODEL 3
REMARK VINA RESULT:      -8.2      2.367      2.825
REMARK  7 active torsions:
REMARK  status: ('A' for Active; 'I' for Inactive)
REMARK    1  A    between atoms: C7_7  and  N1_8 
REMARK    2  A    between atoms: N1_8  and  C8_9 
REMARK    3  A    between atoms: C8_9  and  C9_10 
REMARK    4  A    between atoms: C11_12  and  O1_13 
REMARK    5  A    between atoms: O1_13  and  C12_14 
REMARK    6  A    between atoms: C12_14  and  C13_15 
REMARK    7  A    between atoms: C13_15  and  O2_16 
ROOT
HETATM    1  C1  UNL     1      22.469   6.409  45.990  1.00  0.00     0.018 C 
HETATM    2  C2  UNL     1      22.989   6.567  47.084  1.00  0.00    -0.078 C 
HETATM    3  C3  UNL     1      23.594   6.744  48.392  1.00  0.00     0.019 A 
HETATM    4  C4  UNL     1      23.665   8.041  48.854  1.00  0.00     0.021 A 
HETATM    5  C5  UNL     1      24.249   8.200  50.116  1.00  0.00     0.004 A 
HETATM    6  C6  UNL     1      24.704   7.066  50.796  1.00  0.00     0.029 A 
HETATM    7  C7  UNL     1      24.593   5.804  50.261  1.00  0.00     0.029 A 
HETATM    8  C22 UNL     1      24.027   5.597  49.024  1.00  0.00     0.049 A 
ENDROOT
BRANCH   7   9
HETATM    9  N1  UNL     1      25.071   4.680  50.990  1.00  0.00    -0.386 N 
HETATM   10  H5  UNL     1      25.330   4.751  51.997  1.00  0.00     0.160 HD
BRANCH   9  11
HETATM   11  C8  UNL     1      25.221   3.376  50.360  1.00  0.00     0.161 C 
BRANCH  11  12
HETATM   12  C9  UNL     1      25.101   2.271  51.313  1.00  0.00    -0.009 A 
HETATM   13  C10 UNL     1      26.096   1.572  51.949  1.00  0.00     0.050 A 
HETATM   14  C11 UNL     1      25.922   0.545  52.840  1.00  0.00     0.102 A 
HETATM   15  C15 UNL     1      24.650   0.140  53.159  1.00  0.00     0.104 A 
HETATM   16  C16 UNL     1      23.805   0.978  52.404  1.00  0.00     0.072 A 
HETATM   17  O4  UNL     1      23.969  -0.818  53.986  1.00  0.00    -0.346 OA
HETATM   18  C17 UNL     1      23.775   2.014  51.501  1.00  0.00     0.069 A 
HETATM   19  N2  UNL     1      22.507   2.481  51.093  1.00  0.00    -0.244 NA
HETATM   20  C18 UNL     1      21.412   2.206  51.737  1.00  0.00     0.204 C 
HETATM   21  N3  UNL     1      20.836   1.530  52.856  1.00  0.00    -0.363 N 
HETATM   22  C19 UNL     1      20.152   0.493  53.487  1.00  0.00     0.291 C 
HETATM   23  H18 UNL     1      21.226   2.400  53.341  1.00  0.00     0.162 HD
HETATM   24  O3  UNL     1      20.433  -0.775  53.612  1.00  0.00    -0.370 OA
HETATM   25  C20 UNL     1      21.477  -1.339  54.317  1.00  0.00     0.196 C 
HETATM   26  C21 UNL     1      22.623  -0.704  53.760  1.00  0.00     0.202 C 
BRANCH  14  27
HETATM   27  O1  UNL     1      26.678  -0.279  53.583  1.00  0.00    -0.346 OA
BRANCH  27  28
HETATM   28  C12 UNL     1      27.271   0.035  54.797  1.00  0.00     0.201 C 
BRANCH  28  29
HETATM   29  C13 UNL     1      28.751   0.314  54.712  1.00  0.00     0.193 C 
BRANCH  29  30
HETATM   30  O2  UNL     1      29.069   1.643  54.962  1.00  0.00    -0.394 OA
HETATM   31  C14 UNL     1      29.011   2.410  53.815  1.00  0.00     0.201 C 
ENDBRANCH  29  30
ENDBRANCH  28  29
ENDBRANCH  27  28
ENDBRANCH  14  27
ENDBRANCH  11  12
ENDBRANCH   9  11
ENDBRANCH   7   9
TORSDOF 7
ENDMDL
MODEL 4
REMARK VINA RESULT:      -8.2      2.971      8.689
REMARK  7 active torsions:
REMARK  status: ('A' for Active; 'I' for Inactive)
REMARK    1  A    between atoms: C7_7  and  N1_8 
REMARK    2  A    between atoms: N1_8  and  C8_9 
REMARK    3  A    between atoms: C8_9  and  C9_10 
REMARK    4  A    between atoms: C11_12  and  O1_13 
REMARK    5  A    between atoms: O1_13  and  C12_14 
REMARK    6  A    between atoms: C12_14  and  C13_15 
REMARK    7  A    between atoms: C13_15  and  O2_16 
ROOT
HETATM    1  C1  UNL     1      15.887  -5.374  53.977  1.00  0.00     0.018 C 
HETATM    2  C2  UNL     1      16.373  -4.302  53.650  1.00  0.00    -0.078 C 
HETATM    3  C3  UNL     1      16.952  -3.023  53.280  1.00  0.00     0.019 A 
HETATM    4  C4  UNL     1      16.193  -2.238  52.438  1.00  0.00     0.021 A 
HETATM    5  C5  UNL     1      16.760  -1.007  52.088  1.00  0.00     0.004 A 
HETATM    6  C6  UNL     1      18.017  -0.674  52.602  1.00  0.00     0.029 A 
HETATM    7  C7  UNL     1      18.708  -1.518  53.439  1.00  0.00     0.029 A 
HETATM    8  C22 UNL     1      18.193  -2.738  53.811  1.00  0.00     0.049 A 
ENDROOT
BRANCH   7   9
HETATM    9  N1  UNL     1      19.984  -1.136  53.937  1.00  0.00    -0.386 N 
HETATM   10  H5  UNL     1      20.667  -1.841  54.289  1.00  0.00     0.160 HD
BRANCH   9  11
HETATM   11  C8  UNL     1      20.395   0.260  53.979  1.00  0.00     0.161 C 
BRANCH  11  12
HETATM   12  C9  UNL     1      21.774   0.457  53.528  1.00  0.00    -0.009 A 
HETATM   13  C10 UNL     1      22.913  -0.189  53.936  1.00  0.00     0.050 A 
HETATM   14  C11 UNL     1      24.183   0.035  53.472  1.00  0.00     0.102 A 
HETATM   15  C15 UNL     1      24.387   0.987  52.505  1.00  0.00     0.104 A 
HETATM   16  C16 UNL     1      23.106   1.514  52.244  1.00  0.00     0.072 A 
HETATM   17  O4  UNL     1      25.448   1.565  51.728  1.00  0.00    -0.346 OA
HETATM   18  C17 UNL     1      21.775   1.435  52.577  1.00  0.00     0.069 A 
HETATM   19  N2  UNL     1      20.882   2.285  51.889  1.00  0.00    -0.244 NA
HETATM   20  C18 UNL     1      21.195   2.889  50.780  1.00  0.00     0.204 C 
HETATM   21  N3  UNL     1      22.208   3.104  49.796  1.00  0.00    -0.363 N 
HETATM   22  C19 UNL     1      23.228   3.820  49.173  1.00  0.00     0.291 C 
HETATM   23  H18 UNL     1      21.849   2.144  49.491  1.00  0.00     0.162 HD
HETATM   24  O3  UNL     1      24.392   4.218  49.609  1.00  0.00    -0.370 OA
HETATM   25  C20 UNL     1      25.469   3.432  49.967  1.00  0.00     0.196 C 
HETATM   26  C21 UNL     1      24.922   2.565  50.954  1.00  0.00     0.202 C 
BRANCH  14  27
HETATM   27  O1  UNL     1      25.425  -0.431  53.679  1.00  0.00    -0.346 OA
BRANCH  27  28
HETATM   28  C12 UNL     1      26.313   0.018  54.645  1.00  0.00     0.201 C 
BRANCH  28  29
HETATM   29  C13 UNL     1      27.759   0.005  54.216  1.00  0.00     0.193 C 
BRANCH  29  30
HETATM   30  O2  UNL     1      28.535   0.938  54.891  1.00  0.00    -0.394 OA
HETATM   31  C14 UNL     1      28.959   1.954  54.058  1.00  0.00     0.201 C 
ENDBRANCH  29  30
ENDBRANCH  28  29
ENDBRANCH  27  28
ENDBRANCH  14  27
ENDBRANCH  11  12
ENDBRANCH   9  11
ENDBRANCH   7   9
TORSDOF 7
ENDMDL
MODEL 5
REMARK VINA RESULT:      -8.0      2.883      8.078
REMARK  7 active torsions:
REMARK  status: ('A' for Active; 'I' for Inactive)
REMARK    1  A    between atoms: C7_7  and  N1_8 
REMARK    2  A    between atoms: N1_8  and  C8_9 
REMARK    3  A    between atoms: C8_9  and  C9_10 
REMARK    4  A    between atoms: C11_12  and  O1_13 
REMARK    5  A    between atoms: O1_13  and  C12_14 
REMARK    6  A    between atoms: C12_14  and  C13_15 
REMARK    7  A    between atoms: C13_15  and  O2_16 
ROOT
HETATM    1  C1  UNL     1      16.386   0.059  50.225  1.00  0.00     0.018 C 
HETATM    2  C2  UNL     1      17.336  -0.029  50.987  1.00  0.00    -0.078 C 
HETATM    3  C3  UNL     1      18.477  -0.140  51.878  1.00  0.00     0.019 A 
HETATM    4  C4  UNL     1      18.360  -1.060  52.898  1.00  0.00     0.021 A 
HETATM    5  C5  UNL     1      19.465  -1.158  53.751  1.00  0.00     0.004 A 
HETATM    6  C6  UNL     1      20.575  -0.341  53.513  1.00  0.00     0.029 A 
HETATM    7  C7  UNL     1      20.609   0.552  52.469  1.00  0.00     0.029 A 
HETATM    8  C22 UNL     1      19.547   0.686  51.604  1.00  0.00     0.049 A 
ENDROOT
BRANCH   7   9
HETATM    9  N1  UNL     1      21.760   1.363  52.266  1.00  0.00    -0.386 N 
HETATM   10  H5  UNL     1      22.111   2.008  53.006  1.00  0.00     0.160 HD
BRANCH   9  11
HETATM   11  C8  UNL     1      22.500   1.331  51.012  1.00  0.00     0.161 C 
BRANCH  11  12
HETATM   12  C9  UNL     1      23.881   1.792  51.160  1.00  0.00    -0.009 A 
HETATM   13  C10 UNL     1      24.525   2.807  50.498  1.00  0.00     0.050 A 
HETATM   14  C11 UNL     1      25.826   3.199  50.682  1.00  0.00     0.102 A 
HETATM   15  C15 UNL     1      26.599   2.544  51.608  1.00  0.00     0.104 A 
HETATM   16  C16 UNL     1      25.752   1.559  52.154  1.00  0.00     0.072 A 
HETATM   17  O4  UNL     1      27.929   2.567  52.153  1.00  0.00    -0.346 OA
HETATM   18  C17 UNL     1      24.486   1.027  52.114  1.00  0.00     0.069 A 
HETATM   19  N2  UNL     1      24.199  -0.033  53.001  1.00  0.00    -0.244 NA
HETATM   20  C18 UNL     1      24.942  -0.311  54.031  1.00  0.00     0.204 C 
HETATM   21  N3  UNL     1      26.107   0.040  54.779  1.00  0.00    -0.363 N 
HETATM   22  C19 UNL     1      27.433  -0.096  55.186  1.00  0.00     0.291 C 
HETATM   23  H18 UNL     1      25.425   0.787  55.129  1.00  0.00     0.162 HD
HETATM   24  O3  UNL     1      28.551  -0.012  54.520  1.00  0.00    -0.370 OA
HETATM   25  C20 UNL     1      29.089   1.107  53.916  1.00  0.00     0.196 C 
HETATM   26  C21 UNL     1      28.047   1.537  53.049  1.00  0.00     0.202 C 
BRANCH  14  27
HETATM   27  O1  UNL     1      26.676   4.119  50.200  1.00  0.00    -0.346 OA
BRANCH  27  28
HETATM   28  C12 UNL     1      26.702   4.601  48.900  1.00  0.00     0.201 C 
BRANCH  28  29
HETATM   29  C13 UNL     1      27.022   6.071  48.788  1.00  0.00     0.193 C 
BRANCH  29  30
HETATM   30  O2  UNL     1      25.893   6.862  48.615  1.00  0.00    -0.394 OA
HETATM   31  C14 UNL     1      25.711   7.736  49.668  1.00  0.00     0.201 C 
ENDBRANCH  29  30
ENDBRANCH  28  29
ENDBRANCH  27  28
ENDBRANCH  14  27
ENDBRANCH  11  12
ENDBRANCH   9  11
ENDBRANCH   7   9
TORSDOF 7
ENDMDL
MODEL 6
REMARK VINA RESULT:      -8.0      2.818      5.412
REMARK  7 active torsions:
REMARK  status: ('A' for Active; 'I' for Inactive)
REMARK    1  A    between atoms: C7_7  and  N1_8 
REMARK    2  A    between atoms: N1_8  and  C8_9 
REMARK    3  A    between atoms: C8_9  and  C9_10 
REMARK    4  A    between atoms: C11_12  and  O1_13 
REMARK    5  A    between atoms: O1_13  and  C12_14 
REMARK    6  A    between atoms: C12_14  and  C13_15 
REMARK    7  A    between atoms: C13_15  and  O2_16 
ROOT
HETATM    1  C1  UNL     1      22.402   7.057  46.020  1.00  0.00     0.018 C 
HETATM    2  C2  UNL     1      23.122   7.167  47.001  1.00  0.00    -0.078 C 
HETATM    3  C3  UNL     1      23.966   7.285  48.176  1.00  0.00     0.019 A 
HETATM    4  C4  UNL     1      24.048   8.542  48.737  1.00  0.00     0.021 A 
HETATM    5  C5  UNL     1      24.864   8.644  49.869  1.00  0.00     0.004 A 
HETATM    6  C6  UNL     1      25.518   7.499  50.335  1.00  0.00     0.029 A 
HETATM    7  C7  UNL     1      25.380   6.280  49.714  1.00  0.00     0.029 A 
HETATM    8  C22 UNL     1      24.590   6.129  48.598  1.00  0.00     0.049 A 
ENDROOT
BRANCH   7   9
HETATM    9  N1  UNL     1      26.065   5.142  50.224  1.00  0.00    -0.386 N 
HETATM   10  H5  UNL     1      26.673   5.204  51.068  1.00  0.00     0.160 HD
BRANCH   9  11
HETATM   11  C8  UNL     1      25.948   3.838  49.587  1.00  0.00     0.161 C 
BRANCH  11  12
HETATM   12  C9  UNL     1      25.182   2.884  50.390  1.00  0.00    -0.009 A 
HETATM   13  C10 UNL     1      23.883   2.474  50.230  1.00  0.00     0.050 A 
HETATM   14  C11 UNL     1      23.215   1.569  51.015  1.00  0.00     0.102 A 
HETATM   15  C15 UNL     1      23.868   0.989  52.074  1.00  0.00     0.104 A 
HETATM   16  C16 UNL     1      25.162   1.547  52.049  1.00  0.00     0.072 A 
HETATM   17  O4  UNL     1      23.639   0.040  53.128  1.00  0.00    -0.346 OA
HETATM   18  C17 UNL     1      25.990   2.420  51.386  1.00  0.00     0.069 A 
HETATM   19  N2  UNL     1      27.312   2.550  51.865  1.00  0.00    -0.244 NA
HETATM   20  C18 UNL     1      27.858   1.689  52.671  1.00  0.00     0.204 C 
HETATM   21  N3  UNL     1      27.681   0.475  53.403  1.00  0.00    -0.363 N 
HETATM   22  C19 UNL     1      27.437  -0.283  54.546  1.00  0.00     0.291 C 
HETATM   23  H18 UNL     1      27.857   0.082  52.424  1.00  0.00     0.162 HD
HETATM   24  O3  UNL     1      26.400  -0.342  55.335  1.00  0.00    -0.370 OA
HETATM   25  C20 UNL     1      25.137  -0.809  55.031  1.00  0.00     0.196 C 
HETATM   26  C21 UNL     1      24.766  -0.024  53.905  1.00  0.00     0.202 C 
BRANCH  14  27
HETATM   27  O1  UNL     1      21.999   1.004  51.085  1.00  0.00    -0.346 OA
BRANCH  27  28
HETATM   28  C12 UNL     1      20.786   1.675  51.045  1.00  0.00     0.201 C 
BRANCH  28  29
HETATM   29  C13 UNL     1      20.228   2.033  52.400  1.00  0.00     0.193 C 
BRANCH  29  30
HETATM   30  O2  UNL     1      19.813   3.356  52.485  1.00  0.00    -0.394 OA
HETATM   31  C14 UNL     1      20.494   4.167  51.598  1.00  0.00     0.201 C 
ENDBRANCH  29  30
ENDBRANCH  28  29
ENDBRANCH  27  28
ENDBRANCH  14  27
ENDBRANCH  11  12
ENDBRANCH   9  11
ENDBRANCH   7   9
TORSDOF 7
ENDMDL
MODEL 7
REMARK VINA RESULT:      -7.8      1.264      2.092
REMARK  7 active torsions:
REMARK  status: ('A' for Active; 'I' for Inactive)
REMARK    1  A    between atoms: C7_7  and  N1_8 
REMARK    2  A    between atoms: N1_8  and  C8_9 
REMARK    3  A    between atoms: C8_9  and  C9_10 
REMARK    4  A    between atoms: C11_12  and  O1_13 
REMARK    5  A    between atoms: O1_13  and  C12_14 
REMARK    6  A    between atoms: C12_14  and  C13_15 
REMARK    7  A    between atoms: C13_15  and  O2_16 
ROOT
HETATM    1  C1  UNL     1      26.570   9.978  48.256  1.00  0.00     0.018 C 
HETATM    2  C2  UNL     1      27.132   8.894  48.220  1.00  0.00    -0.078 C 
HETATM    3  C3  UNL     1      27.798   7.604  48.195  1.00  0.00     0.019 A 
HETATM    4  C4  UNL     1      29.098   7.604  47.736  1.00  0.00     0.021 A 
HETATM    5  C5  UNL     1      29.731   6.356  47.717  1.00  0.00     0.004 A 
HETATM    6  C6  UNL     1      29.019   5.233  48.152  1.00  0.00     0.029 A 
HETATM    7  C7  UNL     1      27.721   5.322  48.596  1.00  0.00     0.029 A 
HETATM    8  C22 UNL     1      27.057   6.526  48.633  1.00  0.00     0.049 A 
ENDROOT
BRANCH   7   9
HETATM    9  N1  UNL     1      27.037   4.152  49.028  1.00  0.00    -0.386 N 
HETATM   10  H5  UNL     1      27.434   3.200  48.878  1.00  0.00     0.160 HD
BRANCH   9  11
HETATM   11  C8  UNL     1      25.747   4.231  49.699  1.00  0.00     0.161 C 
BRANCH  11  12
HETATM   12  C9  UNL     1      25.517   3.112  50.613  1.00  0.00    -0.009 A 
HETATM   13  C10 UNL     1      26.436   2.295  51.222  1.00  0.00     0.050 A 
HETATM   14  C11 UNL     1      26.160   1.259  52.077  1.00  0.00     0.102 A 
HETATM   15  C15 UNL     1      24.853   0.973  52.386  1.00  0.00     0.104 A 
HETATM   16  C16 UNL     1      24.097   1.918  51.662  1.00  0.00     0.072 A 
HETATM   17  O4  UNL     1      24.079   0.060  53.180  1.00  0.00    -0.346 OA
HETATM   18  C17 UNL     1      24.171   2.982  50.797  1.00  0.00     0.069 A 
HETATM   19  N2  UNL     1      22.956   3.588  50.408  1.00  0.00    -0.244 NA
HETATM   20  C18 UNL     1      21.839   3.401  51.046  1.00  0.00     0.204 C 
HETATM   21  N3  UNL     1      21.198   2.747  52.142  1.00  0.00    -0.363 N 
HETATM   22  C19 UNL     1      20.413   1.763  52.738  1.00  0.00     0.291 C 
HETATM   23  H18 UNL     1      21.673   3.557  52.655  1.00  0.00     0.162 HD
HETATM   24  O3  UNL     1      20.566   0.470  52.818  1.00  0.00    -0.370 OA
HETATM   25  C20 UNL     1      21.548  -0.220  53.500  1.00  0.00     0.196 C 
HETATM   26  C21 UNL     1      22.751   0.316  52.962  1.00  0.00     0.202 C 
BRANCH  14  27
HETATM   27  O1  UNL     1      26.829   0.339  52.789  1.00  0.00    -0.346 OA
BRANCH  27  28
HETATM   28  C12 UNL     1      27.207   0.455  54.118  1.00  0.00     0.201 C 
BRANCH  28  29
HETATM   29  C13 UNL     1      28.698   0.438  54.344  1.00  0.00     0.193 C 
BRANCH  29  30
HETATM   30  O2  UNL     1      29.192  -0.831  54.618  1.00  0.00    -0.394 OA
HETATM   31  C14 UNL     1      29.650  -1.462  53.478  1.00  0.00     0.201 C 
ENDBRANCH  29  30
ENDBRANCH  28  29
ENDBRANCH  27  28
ENDBRANCH  14  27
ENDBRANCH  11  12
ENDBRANCH   9  11
ENDBRANCH   7   9
TORSDOF 7
ENDMDL
MODEL 8
REMARK VINA RESULT:      -7.8      1.930      4.821
REMARK  7 active torsions:
REMARK  status: ('A' for Active; 'I' for Inactive)
REMARK    1  A    between atoms: C7_7  and  N1_8 
REMARK    2  A    between atoms: N1_8  and  C8_9 
REMARK    3  A    between atoms: C8_9  and  C9_10 
REMARK    4  A    between atoms: C11_12  and  O1_13 
REMARK    5  A    between atoms: O1_13  and  C12_14 
REMARK    6  A    between atoms: C12_14  and  C13_15 
REMARK    7  A    between atoms: C13_15  and  O2_16 
ROOT
HETATM    1  C1  UNL     1      26.331   9.710  47.659  1.00  0.00     0.018 C 
HETATM    2  C2  UNL     1      26.764   8.585  47.859  1.00  0.00    -0.078 C 
HETATM    3  C3  UNL     1      27.272   7.250  48.114  1.00  0.00     0.019 A 
HETATM    4  C4  UNL     1      28.631   7.080  47.953  1.00  0.00     0.021 A 
HETATM    5  C5  UNL     1      29.110   5.789  48.203  1.00  0.00     0.004 A 
HETATM    6  C6  UNL     1      28.204   4.795  48.586  1.00  0.00     0.029 A 
HETATM    7  C7  UNL     1      26.860   5.051  48.725  1.00  0.00     0.029 A 
HETATM    8  C22 UNL     1      26.341   6.304  48.490  1.00  0.00     0.049 A 
ENDROOT
BRANCH   7   9
HETATM    9  N1  UNL     1      25.976   4.009  49.117  1.00  0.00    -0.386 N 
HETATM   10  H5  UNL     1      26.187   3.008  48.915  1.00  0.00     0.160 HD
BRANCH   9  11
HETATM   11  C8  UNL     1      24.731   4.293  49.817  1.00  0.00     0.161 C 
BRANCH  11  12
HETATM   12  C9  UNL     1      24.221   3.136  50.554  1.00  0.00    -0.009 A 
HETATM   13  C10 UNL     1      22.997   2.525  50.456  1.00  0.00     0.050 A 
HETATM   14  C11 UNL     1      22.574   1.435  51.173  1.00  0.00     0.102 A 
HETATM   15  C15 UNL     1      23.422   0.864  52.088  1.00  0.00     0.104 A 
HETATM   16  C16 UNL     1      24.597   1.638  52.023  1.00  0.00     0.072 A 
HETATM   17  O4  UNL     1      23.466  -0.223  53.027  1.00  0.00    -0.346 OA
HETATM   18  C17 UNL     1      25.197   2.712  51.409  1.00  0.00     0.069 A 
HETATM   19  N2  UNL     1      26.523   3.017  51.784  1.00  0.00    -0.244 NA
HETATM   20  C18 UNL     1      27.286   2.180  52.422  1.00  0.00     0.204 C 
HETATM   21  N3  UNL     1      27.388   0.880  53.005  1.00  0.00    -0.363 N 
HETATM   22  C19 UNL     1      27.395  -0.032  54.058  1.00  0.00     0.291 C 
HETATM   23  H18 UNL     1      27.521   0.636  51.972  1.00  0.00     0.162 HD
HETATM   24  O3  UNL     1      26.472  -0.361  54.920  1.00  0.00    -0.370 OA
HETATM   25  C20 UNL     1      25.277  -1.004  54.669  1.00  0.00     0.196 C 
HETATM   26  C21 UNL     1      24.664  -0.175  53.688  1.00  0.00     0.202 C 
BRANCH  14  27
HETATM   27  O1  UNL     1      21.481   0.662  51.275  1.00  0.00    -0.346 OA
BRANCH  27  28
HETATM   28  C12 UNL     1      20.297   1.006  51.907  1.00  0.00     0.201 C 
BRANCH  28  29
HETATM   29  C13 UNL     1      19.682  -0.104  52.723  1.00  0.00     0.193 C 
BRANCH  29  30
HETATM   30  O2  UNL     1      20.236  -0.218  53.991  1.00  0.00    -0.394 OA
HETATM   31  C14 UNL     1      20.733  -1.486  54.223  1.00  0.00     0.201 C 
ENDBRANCH  29  30
ENDBRANCH  28  29
ENDBRANCH  27  28
ENDBRANCH  14  27
ENDBRANCH  11  12
ENDBRANCH   9  11
ENDBRANCH   7   9
TORSDOF 7
ENDMDL
MODEL 9
REMARK VINA RESULT:      -7.6      2.727      4.281
REMARK  7 active torsions:
REMARK  status: ('A' for Active; 'I' for Inactive)
REMARK    1  A    between atoms: C7_7  and  N1_8 
REMARK    2  A    between atoms: N1_8  and  C8_9 
REMARK    3  A    between atoms: C8_9  and  C9_10 
REMARK    4  A    between atoms: C11_12  and  O1_13 
REMARK    5  A    between atoms: O1_13  and  C12_14 
REMARK    6  A    between atoms: C12_14  and  C13_15 
REMARK    7  A    between atoms: C13_15  and  O2_16 
ROOT
HETATM    1  C1  UNL     1      30.661  11.340  48.927  1.00  0.00     0.018 C 
HETATM    2  C2  UNL     1      30.496  10.159  48.663  1.00  0.00    -0.078 C 
HETATM    3  C3  UNL     1      30.299   8.752  48.367  1.00  0.00     0.019 A 
HETATM    4  C4  UNL     1      31.316   8.133  47.671  1.00  0.00     0.021 A 
HETATM    5  C5  UNL     1      31.116   6.776  47.391  1.00  0.00     0.004 A 
HETATM    6  C6  UNL     1      29.935   6.165  47.825  1.00  0.00     0.029 A 
HETATM    7  C7  UNL     1      28.970   6.858  48.516  1.00  0.00     0.029 A 
HETATM    8  C22 UNL     1      29.120   8.193  48.815  1.00  0.00     0.049 A 
ENDROOT
BRANCH   7   9
HETATM    9  N1  UNL     1      27.784   6.194  48.937  1.00  0.00    -0.386 N 
HETATM   10  H5  UNL     1      27.063   6.678  49.514  1.00  0.00     0.160 HD
BRANCH   9  11
HETATM   11  C8  UNL     1      27.525   4.806  48.583  1.00  0.00     0.161 C 
BRANCH  11  12
HETATM   12  C9  UNL     1      26.595   4.153  49.504  1.00  0.00    -0.009 A 
HETATM   13  C10 UNL     1      26.792   3.038  50.279  1.00  0.00     0.050 A 
HETATM   14  C11 UNL     1      25.881   2.470  51.132  1.00  0.00     0.102 A 
HETATM   15  C15 UNL     1      24.637   3.036  51.258  1.00  0.00     0.104 A 
HETATM   16  C16 UNL     1      24.655   4.145  50.388  1.00  0.00     0.072 A 
HETATM   17  O4  UNL     1      23.403   2.849  51.972  1.00  0.00    -0.346 OA
HETATM   18  C17 UNL     1      25.422   4.851  49.493  1.00  0.00     0.069 A 
HETATM   19  N2  UNL     1      24.843   5.995  48.902  1.00  0.00    -0.244 NA
HETATM   20  C18 UNL     1      23.779   6.571  49.377  1.00  0.00     0.204 C 
HETATM   21  N3  UNL     1      22.778   6.554  50.396  1.00  0.00    -0.363 N 
HETATM   22  C19 UNL     1      21.512   6.290  50.915  1.00  0.00     0.291 C 
HETATM   23  H18 UNL     1      23.590   6.994  50.935  1.00  0.00     0.162 HD
HETATM   24  O3  UNL     1      20.864   5.170  51.078  1.00  0.00    -0.370 OA
HETATM   25  C20 UNL     1      21.180   4.130  51.928  1.00  0.00     0.196 C 
HETATM   26  C21 UNL     1      22.510   3.797  51.549  1.00  0.00     0.202 C 
BRANCH  14  27
HETATM   27  O1  UNL     1      25.808   1.430  51.977  1.00  0.00    -0.346 OA
BRANCH  27  28
HETATM   28  C12 UNL     1      26.876   0.666  52.421  1.00  0.00     0.201 C 
BRANCH  28  29
HETATM   29  C13 UNL     1      26.479  -0.610  53.121  1.00  0.00     0.193 C 
BRANCH  29  30
HETATM   30  O2  UNL     1      27.271  -0.892  54.227  1.00  0.00    -0.394 OA
HETATM   31  C14 UNL     1      28.288   0.029  54.381  1.00  0.00     0.201 C 
ENDBRANCH  29  30
ENDBRANCH  28  29
ENDBRANCH  27  28
ENDBRANCH  14  27
ENDBRANCH  11  12
ENDBRANCH   9  11
ENDBRANCH   7   9
TORSDOF 7
ENDMDL
