MODEL 1
REMARK VINA RESULT:      -8.9      0.000      0.000
REMARK  3 active torsions:
REMARK  status: ('A' for Active; 'I' for Inactive)
REMARK    1  A    between atoms: N3_9  and  C6_10 
REMARK    2  A    between atoms: N4_11  and  C7_12 
REMARK    3  A    between atoms: C10_15  and  O2_16 
ROOT
HETATM    1  O1  UNL     1      20.147   3.269  52.758  1.00  0.00    -0.247 OA
HETATM    2  C1  UNL     1      21.082   2.684  52.345  1.00  0.00     0.321 C 
HETATM    3  N1  UNL     1      20.526   2.355  51.085  1.00  0.00    -0.330 N 
HETATM    4  C2  UNL     1      20.604   0.830  50.994  1.00  0.00     0.158 A 
HETATM    5  C3  UNL     1      21.809   1.180  49.891  1.00  0.00     0.056 A 
HETATM    6  C4  UNL     1      21.457   0.740  48.671  1.00  0.00     0.696 A 
HETATM    7  N2  UNL     1      21.808   2.003  48.198  1.00  0.00     0.073 NA
HETATM    8  C5  UNL     1      22.248   2.919  49.133  1.00  0.00     0.277 A 
HETATM    9  N3  UNL     1      21.983   1.837  49.591  1.00  0.00     0.000 N 
HETATM   10  C6  UNL     1      22.146   1.604  51.064  1.00  0.00     0.093 A 
HETATM   11  N4  UNL     1      22.388   2.124  52.352  1.00  0.00    -0.315 N 
HETATM   12  N5  UNL     1      22.535   4.130  49.616  1.00  0.00    -0.313 N 
HETATM   13  C12 UNL     1      23.856   4.594  49.653  1.00  0.00     0.043 A 
HETATM   14  C13 UNL     1      24.691   3.576  49.285  1.00  0.00     0.030 A 
HETATM   15  C14 UNL     1      26.030   3.973  49.302  1.00  0.00     0.002 A 
HETATM   16  C15 UNL     1      26.420   5.266  49.659  1.00  0.00     0.001 A 
HETATM   17  C16 UNL     1      25.461   6.198  50.009  1.00  0.00     0.010 A 
HETATM   18  C17 UNL     1      24.110   5.880  50.017  1.00  0.00    -0.028 A 
HETATM   19  C18 UNL     1      23.243   7.026  50.405  1.00  0.00     0.067 C 
HETATM   20  C19 UNL     1      21.989   6.516  50.971  1.00  0.00    -0.024 C 
HETATM   21  C20 UNL     1      21.098   5.545  50.863  1.00  0.00    -0.003 C 
HETATM   22  C21 UNL     1      21.133   4.414  49.889  1.00  0.00     0.132 C 
HETATM   23  C22 UNL     1      20.134   3.373  50.159  1.00  0.00     0.157 C 
ENDROOT
BRANCH  11  24
HETATM   24  C7  UNL     1      23.565   1.868  53.016  1.00  0.00     0.092 C 
HETATM   25  C8  UNL     1      24.347   0.744  52.352  1.00  0.00     0.028 C 
HETATM   26  C9  UNL     1      25.714   0.822  52.986  1.00  0.00     0.034 C 
HETATM   27  C10 UNL     1      25.712   2.093  53.830  1.00  0.00     0.120 C 
HETATM   28  C11 UNL     1      24.648   2.929  53.064  1.00  0.00     0.057 C 
BRANCH  27  29
HETATM   29  O2  UNL     1      26.920   2.744  53.833  1.00  0.00    -0.396 OA
HETATM   30  H10 UNL     1      27.271   2.655  52.904  1.00  0.00     0.210 HD
ENDBRANCH  27  29
ENDBRANCH  11  24
TORSDOF 3
ENDMDL
MODEL 2
REMARK VINA RESULT:      -8.0      8.542     11.912
REMARK  3 active torsions:
REMARK  status: ('A' for Active; 'I' for Inactive)
REMARK    1  A    between atoms: N3_9  and  C6_10 
REMARK    2  A    between atoms: N4_11  and  C7_12 
REMARK    3  A    between atoms: C10_15  and  O2_16 
ROOT
HETATM    1  O1  UNL     1      32.108  10.244  47.575  1.00  0.00    -0.247 OA
HETATM    2  C1  UNL     1      31.634   9.374  46.937  1.00  0.00     0.321 C 
HETATM    3  N1  UNL     1      32.363   9.626  45.750  1.00  0.00    -0.330 N 
HETATM    4  C2  UNL     1      31.306   9.844  44.666  1.00  0.00     0.158 A 
HETATM    5  C3  UNL     1      31.835   8.341  44.162  1.00  0.00     0.056 A 
HETATM    6  C4  UNL     1      32.391   8.435  42.942  1.00  0.00     0.696 A 
HETATM    7  N2  UNL     1      33.466   7.717  43.461  1.00  0.00     0.073 NA
HETATM    8  C5  UNL     1      33.395   7.365  44.795  1.00  0.00     0.277 A 
HETATM    9  N3  UNL     1      32.430   7.961  44.391  1.00  0.00     0.000 N 
HETATM   10  C6  UNL     1      31.300   8.252  45.335  1.00  0.00     0.093 A 
HETATM   11  N4  UNL     1      30.796   8.263  46.652  1.00  0.00    -0.315 N 
HETATM   12  N5  UNL     1      33.866   6.974  45.982  1.00  0.00    -0.313 N 
HETATM   13  C12 UNL     1      33.733   5.646  46.405  1.00  0.00     0.043 A 
HETATM   14  C13 UNL     1      32.957   4.972  45.504  1.00  0.00     0.030 A 
HETATM   15  C14 UNL     1      32.783   3.635  45.868  1.00  0.00     0.002 A 
HETATM   16  C15 UNL     1      33.355   3.097  47.024  1.00  0.00     0.001 A 
HETATM   17  C16 UNL     1      34.122   3.900  47.846  1.00  0.00     0.010 A 
HETATM   18  C17 UNL     1      34.340   5.238  47.552  1.00  0.00    -0.028 A 
HETATM   19  C18 UNL     1      35.207   5.921  48.551  1.00  0.00     0.067 C 
HETATM   20  C19 UNL     1      34.912   7.359  48.548  1.00  0.00    -0.024 C 
HETATM   21  C20 UNL     1      34.584   8.368  47.760  1.00  0.00    -0.003 C 
HETATM   22  C21 UNL     1      34.367   8.308  46.284  1.00  0.00     0.132 C 
HETATM   23  C22 UNL     1      33.790   9.536  45.722  1.00  0.00     0.157 C 
ENDROOT
BRANCH  11  24
HETATM   24  C7  UNL     1      29.811   7.387  47.046  1.00  0.00     0.092 C 
HETATM   25  C8  UNL     1      30.400   6.115  47.638  1.00  0.00     0.028 C 
HETATM   26  C9  UNL     1      29.226   5.439  48.302  1.00  0.00     0.034 C 
HETATM   27  C10 UNL     1      28.074   6.438  48.230  1.00  0.00     0.120 C 
HETATM   28  C11 UNL     1      28.871   7.772  48.172  1.00  0.00     0.057 C 
BRANCH  27  29
HETATM   29  O2  UNL     1      27.264   6.412  49.339  1.00  0.00    -0.396 OA
HETATM   30  H10 UNL     1      27.494   5.566  49.814  1.00  0.00     0.210 HD
ENDBRANCH  27  29
ENDBRANCH  11  24
TORSDOF 3
ENDMDL
MODEL 3
REMARK VINA RESULT:      -7.8      1.840      4.762
REMARK  3 active torsions:
REMARK  status: ('A' for Active; 'I' for Inactive)
REMARK    1  A    between atoms: N3_9  and  C6_10 
REMARK    2  A    between atoms: N4_11  and  C7_12 
REMARK    3  A    between atoms: C10_15  and  O2_16 
ROOT
HETATM    1  O1  UNL     1      25.645   3.868  48.916  1.00  0.00    -0.247 OA
HETATM    2  C1  UNL     1      25.154   3.997  49.978  1.00  0.00     0.321 C 
HETATM    3  N1  UNL     1      24.412   5.164  49.675  1.00  0.00    -0.330 N 
HETATM    4  C2  UNL     1      24.863   6.207  50.700  1.00  0.00     0.158 A 
HETATM    5  C3  UNL     1      23.341   5.922  51.328  1.00  0.00     0.056 A 
HETATM    6  C4  UNL     1      22.597   7.039  51.256  1.00  0.00     0.696 A 
HETATM    7  N2  UNL     1      21.601   6.246  50.689  1.00  0.00     0.073 NA
HETATM    8  C5  UNL     1      21.895   4.909  50.507  1.00  0.00     0.277 A 
HETATM    9  N3  UNL     1      22.781   5.542  51.023  1.00  0.00     0.000 N 
HETATM   10  C6  UNL     1      24.057   4.848  51.397  1.00  0.00     0.093 A 
HETATM   11  N4  UNL     1      24.871   3.698  51.339  1.00  0.00    -0.315 N 
HETATM   12  N5  UNL     1      21.755   3.687  49.989  1.00  0.00    -0.313 N 
HETATM   13  C12 UNL     1      21.118   2.670  50.711  1.00  0.00     0.043 A 
HETATM   14  C13 UNL     1      20.861   3.121  51.975  1.00  0.00     0.030 A 
HETATM   15  C14 UNL     1      20.224   2.151  52.752  1.00  0.00     0.002 A 
HETATM   16  C15 UNL     1      19.908   0.885  52.252  1.00  0.00     0.001 A 
HETATM   17  C16 UNL     1      20.228   0.565  50.947  1.00  0.00     0.010 A 
HETATM   18  C17 UNL     1      20.861   1.475  50.112  1.00  0.00    -0.028 A 
HETATM   19  C18 UNL     1      21.100   0.943  48.743  1.00  0.00     0.067 C 
HETATM   20  C19 UNL     1      22.242   1.642  48.142  1.00  0.00    -0.024 C 
HETATM   21  C20 UNL     1      22.841   2.818  48.069  1.00  0.00    -0.003 C 
HETATM   22  C21 UNL     1      22.413   4.077  48.750  1.00  0.00     0.132 C 
HETATM   23  C22 UNL     1      23.401   5.159  48.663  1.00  0.00     0.157 C 
ENDROOT
BRANCH  11  24
HETATM   24  C7  UNL     1      25.085   2.918  52.451  1.00  0.00     0.092 C 
HETATM   25  C8  UNL     1      24.200   1.680  52.442  1.00  0.00     0.028 C 
HETATM   26  C9  UNL     1      24.784   0.801  53.521  1.00  0.00     0.034 C 
HETATM   27  C10 UNL     1      26.078   1.481  53.957  1.00  0.00     0.120 C 
HETATM   28  C11 UNL     1      26.433   2.257  52.658  1.00  0.00     0.057 C 
BRANCH  27  29
HETATM   29  O2  UNL     1      27.078   0.594  54.274  1.00  0.00    -0.396 OA
HETATM   30  H10 UNL     1      26.777   0.146  55.113  1.00  0.00     0.210 HD
ENDBRANCH  27  29
ENDBRANCH  11  24
TORSDOF 3
ENDMDL
MODEL 4
REMARK VINA RESULT:      -7.7      2.156      4.988
REMARK  3 active torsions:
REMARK  status: ('A' for Active; 'I' for Inactive)
REMARK    1  A    between atoms: N3_9  and  C6_10 
REMARK    2  A    between atoms: N4_11  and  C7_12 
REMARK    3  A    between atoms: C10_15  and  O2_16 
ROOT
HETATM    1  O1  UNL     1      23.979   2.908  48.718  1.00  0.00    -0.247 OA
HETATM    2  C1  UNL     1      24.061   2.730  49.879  1.00  0.00     0.321 C 
HETATM    3  N1  UNL     1      23.559   3.993  50.275  1.00  0.00    -0.330 N 
HETATM    4  C2  UNL     1      24.652   4.603  51.155  1.00  0.00     0.158 A 
HETATM    5  C3  UNL     1      23.552   4.266  52.367  1.00  0.00     0.056 A 
HETATM    6  C4  UNL     1      23.140   5.408  52.944  1.00  0.00     0.696 A 
HETATM    7  N2  UNL     1      21.841   4.933  52.777  1.00  0.00     0.073 NA
HETATM    8  C5  UNL     1      21.700   3.706  52.159  1.00  0.00     0.277 A 
HETATM    9  N3  UNL     1      22.843   4.057  52.301  1.00  0.00     0.000 N 
HETATM   10  C6  UNL     1      23.949   3.169  51.811  1.00  0.00     0.093 A 
HETATM   11  N4  UNL     1      24.355   2.033  51.082  1.00  0.00    -0.315 N 
HETATM   12  N5  UNL     1      21.059   2.735  51.504  1.00  0.00    -0.313 N 
HETATM   13  C12 UNL     1      20.594   1.599  52.178  1.00  0.00     0.043 A 
HETATM   14  C13 UNL     1      21.043   1.638  53.469  1.00  0.00     0.030 A 
HETATM   15  C14 UNL     1      20.614   0.530  54.201  1.00  0.00     0.002 A 
HETATM   16  C15 UNL     1      19.820  -0.473  53.639  1.00  0.00     0.001 A 
HETATM   17  C16 UNL     1      19.437  -0.381  52.314  1.00  0.00     0.010 A 
HETATM   18  C17 UNL     1      19.824   0.691  51.521  1.00  0.00    -0.028 A 
HETATM   19  C18 UNL     1      19.293   0.611  50.133  1.00  0.00     0.067 C 
HETATM   20  C19 UNL     1      20.174   1.363  49.232  1.00  0.00    -0.024 C 
HETATM   21  C20 UNL     1      20.934   2.441  49.154  1.00  0.00    -0.003 C 
HETATM   22  C21 UNL     1      21.165   3.445  50.236  1.00  0.00     0.132 C 
HETATM   23  C22 UNL     1      22.233   4.405  49.933  1.00  0.00     0.157 C 
ENDROOT
BRANCH  11  24
HETATM   24  C7  UNL     1      24.854   0.918  51.717  1.00  0.00     0.092 C 
HETATM   25  C8  UNL     1      26.375   0.921  51.733  1.00  0.00     0.028 C 
HETATM   26  C9  UNL     1      26.734  -0.159  52.724  1.00  0.00     0.034 C 
HETATM   27  C10 UNL     1      25.419  -0.589  53.368  1.00  0.00     0.120 C 
HETATM   28  C11 UNL     1      24.590   0.714  53.196  1.00  0.00     0.057 C 
BRANCH  27  29
HETATM   29  O2  UNL     1      25.544  -0.905  54.698  1.00  0.00    -0.396 OA
HETATM   30  H10 UNL     1      25.313  -1.873  54.762  1.00  0.00     0.210 HD
ENDBRANCH  27  29
ENDBRANCH  11  24
TORSDOF 3
ENDMDL
MODEL 5
REMARK VINA RESULT:      -7.6      2.390      3.767
REMARK  3 active torsions:
REMARK  status: ('A' for Active; 'I' for Inactive)
REMARK    1  A    between atoms: N3_9  and  C6_10 
REMARK    2  A    between atoms: N4_11  and  C7_12 
REMARK    3  A    between atoms: C10_15  and  O2_16 
ROOT
HETATM    1  O1  UNL     1      23.371   4.261  52.228  1.00  0.00    -0.247 OA
HETATM    2  C1  UNL     1      23.619   4.011  51.104  1.00  0.00     0.321 C 
HETATM    3  N1  UNL     1      22.472   3.220  50.855  1.00  0.00    -0.330 N 
HETATM    4  C2  UNL     1      23.010   1.869  50.381  1.00  0.00     0.158 A 
HETATM    5  C3  UNL     1      22.430   2.406  48.908  1.00  0.00     0.056 A 
HETATM    6  C4  UNL     1      21.440   1.603  48.483  1.00  0.00     0.696 A 
HETATM    7  N2  UNL     1      20.701   2.762  48.256  1.00  0.00     0.073 NA
HETATM    8  C5  UNL     1      21.307   3.961  48.578  1.00  0.00     0.277 A 
HETATM    9  N3  UNL     1      21.998   2.993  48.770  1.00  0.00     0.000 N 
HETATM   10  C6  UNL     1      23.382   3.178  49.319  1.00  0.00     0.093 A 
HETATM   11  N4  UNL     1      24.354   4.025  49.888  1.00  0.00    -0.315 N 
HETATM   12  N5  UNL     1      21.360   5.262  48.871  1.00  0.00    -0.313 N 
HETATM   13  C12 UNL     1      21.736   6.202  47.903  1.00  0.00     0.043 A 
HETATM   14  C13 UNL     1      22.147   5.537  46.781  1.00  0.00     0.030 A 
HETATM   15  C14 UNL     1      22.538   6.419  45.771  1.00  0.00     0.002 A 
HETATM   16  C15 UNL     1      22.497   7.806  45.935  1.00  0.00     0.001 A 
HETATM   17  C16 UNL     1      22.055   8.341  47.130  1.00  0.00     0.010 A 
HETATM   18  C17 UNL     1      21.650   7.530  48.181  1.00  0.00    -0.028 A 
HETATM   19  C18 UNL     1      21.194   8.301  49.370  1.00  0.00     0.067 C 
HETATM   20  C19 UNL     1      21.366   7.482  50.575  1.00  0.00    -0.024 C 
HETATM   21  C20 UNL     1      21.294   6.242  51.029  1.00  0.00    -0.003 C 
HETATM   22  C21 UNL     1      20.926   5.028  50.242  1.00  0.00     0.132 C 
HETATM   23  C22 UNL     1      21.155   3.768  50.959  1.00  0.00     0.157 C 
ENDROOT
BRANCH  11  24
HETATM   24  C7  UNL     1      25.472   4.405  49.182  1.00  0.00     0.092 C 
HETATM   25  C8  UNL     1      25.476   5.901  48.906  1.00  0.00     0.028 C 
HETATM   26  C9  UNL     1      26.882   6.185  48.437  1.00  0.00     0.034 C 
HETATM   27  C10 UNL     1      27.663   4.893  48.651  1.00  0.00     0.120 C 
HETATM   28  C11 UNL     1      26.844   4.265  49.814  1.00  0.00     0.057 C 
BRANCH  27  29
HETATM   29  O2  UNL     1      28.963   5.102  49.040  1.00  0.00    -0.396 OA
HETATM   30  H10 UNL     1      29.522   4.770  48.283  1.00  0.00     0.210 HD
ENDBRANCH  27  29
ENDBRANCH  11  24
TORSDOF 3
ENDMDL
MODEL 6
REMARK VINA RESULT:      -7.5      2.684      6.602
REMARK  3 active torsions:
REMARK  status: ('A' for Active; 'I' for Inactive)
REMARK    1  A    between atoms: N3_9  and  C6_10 
REMARK    2  A    between atoms: N4_11  and  C7_12 
REMARK    3  A    between atoms: C10_15  and  O2_16 
ROOT
HETATM    1  O1  UNL     1      22.055   4.204  52.291  1.00  0.00    -0.247 OA
HETATM    2  C1  UNL     1      21.199   3.989  51.512  1.00  0.00     0.321 C 
HETATM    3  N1  UNL     1      22.007   3.322  50.559  1.00  0.00    -0.330 N 
HETATM    4  C2  UNL     1      21.825   4.104  49.258  1.00  0.00     0.158 A 
HETATM    5  C3  UNL     1      20.949   2.748  48.826  1.00  0.00     0.056 A 
HETATM    6  C4  UNL     1      21.542   2.128  47.791  1.00  0.00     0.696 A 
HETATM    7  N2  UNL     1      21.420   0.951  48.527  1.00  0.00     0.073 NA
HETATM    8  C5  UNL     1      20.849   1.054  49.780  1.00  0.00     0.277 A 
HETATM    9  N3  UNL     1      20.907   2.096  49.178  1.00  0.00     0.000 N 
HETATM   10  C6  UNL     1      20.381   3.345  49.822  1.00  0.00     0.093 A 
HETATM   11  N4  UNL     1      19.885   3.999  50.968  1.00  0.00    -0.315 N 
HETATM   12  N5  UNL     1      20.559   0.671  51.026  1.00  0.00    -0.313 N 
HETATM   13  C12 UNL     1      19.311   0.117  51.334  1.00  0.00     0.043 A 
HETATM   14  C13 UNL     1      18.504   0.208  50.234  1.00  0.00     0.030 A 
HETATM   15  C14 UNL     1      17.237  -0.329  50.474  1.00  0.00     0.002 A 
HETATM   16  C15 UNL     1      16.884  -0.882  51.708  1.00  0.00     0.001 A 
HETATM   17  C16 UNL     1      17.807  -0.908  52.736  1.00  0.00     0.010 A 
HETATM   18  C17 UNL     1      19.086  -0.394  52.575  1.00  0.00    -0.028 A 
HETATM   19  C18 UNL     1      19.930  -0.536  53.793  1.00  0.00     0.067 C 
HETATM   20  C19 UNL     1      20.967   0.502  53.789  1.00  0.00    -0.024 C 
HETATM   21  C20 UNL     1      21.773   1.187  52.996  1.00  0.00    -0.003 C 
HETATM   22  C21 UNL     1      21.876   1.061  51.512  1.00  0.00     0.132 C 
HETATM   23  C22 UNL     1      22.692   2.109  50.886  1.00  0.00     0.157 C 
ENDROOT
BRANCH  11  24
HETATM   24  C7  UNL     1      18.567   4.382  51.058  1.00  0.00     0.092 C 
HETATM   25  C8  UNL     1      17.928   4.506  49.683  1.00  0.00     0.028 C 
HETATM   26  C9  UNL     1      16.449   4.601  49.972  1.00  0.00     0.034 C 
HETATM   27  C10 UNL     1      16.298   4.333  51.466  1.00  0.00     0.120 C 
HETATM   28  C11 UNL     1      17.560   3.462  51.719  1.00  0.00     0.057 C 
BRANCH  27  29
HETATM   29  O2  UNL     1      15.160   3.631  51.779  1.00  0.00    -0.396 OA
HETATM   30  H10 UNL     1      14.552   3.752  50.998  1.00  0.00     0.210 HD
ENDBRANCH  27  29
ENDBRANCH  11  24
TORSDOF 3
ENDMDL
MODEL 7
REMARK VINA RESULT:      -7.2      2.599      4.994
REMARK  3 active torsions:
REMARK  status: ('A' for Active; 'I' for Inactive)
REMARK    1  A    between atoms: N3_9  and  C6_10 
REMARK    2  A    between atoms: N4_11  and  C7_12 
REMARK    3  A    between atoms: C10_15  and  O2_16 
ROOT
HETATM    1  O1  UNL     1      21.436   0.255  50.543  1.00  0.00    -0.247 OA
HETATM    2  C1  UNL     1      20.823   1.080  49.968  1.00  0.00     0.321 C 
HETATM    3  N1  UNL     1      19.782   1.205  50.920  1.00  0.00    -0.330 N 
HETATM    4  C2  UNL     1      18.493   0.924  50.146  1.00  0.00     0.158 A 
HETATM    5  C3  UNL     1      18.283   2.571  50.338  1.00  0.00     0.056 A 
HETATM    6  C4  UNL     1      17.195   2.811  51.089  1.00  0.00     0.696 A 
HETATM    7  N2  UNL     1      17.997   3.667  51.840  1.00  0.00     0.073 NA
HETATM    8  C5  UNL     1      19.322   3.770  51.465  1.00  0.00     0.277 A 
HETATM    9  N3  UNL     1      18.669   3.038  50.768  1.00  0.00     0.000 N 
HETATM   10  C6  UNL     1      19.330   2.339  49.616  1.00  0.00     0.093 A 
HETATM   11  N4  UNL     1      20.510   1.995  48.926  1.00  0.00    -0.315 N 
HETATM   12  N5  UNL     1      20.616   4.061  51.619  1.00  0.00    -0.313 N 
HETATM   13  C12 UNL     1      21.158   5.233  51.077  1.00  0.00     0.043 A 
HETATM   14  C13 UNL     1      20.207   5.844  50.308  1.00  0.00     0.030 A 
HETATM   15  C14 UNL     1      20.684   7.025  49.734  1.00  0.00     0.002 A 
HETATM   16  C15 UNL     1      21.984   7.486  49.950  1.00  0.00     0.001 A 
HETATM   17  C16 UNL     1      22.842   6.763  50.757  1.00  0.00     0.010 A 
HETATM   18  C17 UNL     1      22.442   5.579  51.363  1.00  0.00    -0.028 A 
HETATM   19  C18 UNL     1      23.506   4.966  52.204  1.00  0.00     0.067 C 
HETATM   20  C19 UNL     1      23.276   3.520  52.299  1.00  0.00    -0.024 C 
HETATM   21  C20 UNL     1      22.326   2.604  52.378  1.00  0.00    -0.003 C 
HETATM   22  C21 UNL     1      20.853   2.852  52.395  1.00  0.00     0.132 C 
HETATM   23  C22 UNL     1      20.048   1.632  52.259  1.00  0.00     0.157 C 
ENDROOT
BRANCH  11  24
HETATM   24  C7  UNL     1      20.802   2.537  47.696  1.00  0.00     0.092 C 
HETATM   25  C8  UNL     1      19.572   3.165  47.057  1.00  0.00     0.028 C 
HETATM   26  C9  UNL     1      20.126   3.977  45.912  1.00  0.00     0.034 C 
HETATM   27  C10 UNL     1      21.643   3.935  46.066  1.00  0.00     0.120 C 
HETATM   28  C11 UNL     1      21.757   3.710  47.600  1.00  0.00     0.057 C 
BRANCH  27  29
HETATM   29  O2  UNL     1      22.257   5.110  45.707  1.00  0.00    -0.396 OA
HETATM   30  H10 UNL     1      23.198   5.024  46.027  1.00  0.00     0.210 HD
ENDBRANCH  27  29
ENDBRANCH  11  24
TORSDOF 3
ENDMDL
MODEL 8
REMARK VINA RESULT:      -7.2      8.554     11.661
REMARK  3 active torsions:
REMARK  status: ('A' for Active; 'I' for Inactive)
REMARK    1  A    between atoms: N3_9  and  C6_10 
REMARK    2  A    between atoms: N4_11  and  C7_12 
REMARK    3  A    between atoms: C10_15  and  O2_16 
ROOT
HETATM    1  O1  UNL     1      28.310  10.084  45.304  1.00  0.00    -0.247 OA
HETATM    2  C1  UNL     1      29.436  10.214  45.621  1.00  0.00     0.321 C 
HETATM    3  N1  UNL     1      29.188  10.938  46.813  1.00  0.00    -0.330 N 
HETATM    4  C2  UNL     1      29.969  12.244  46.662  1.00  0.00     0.158 A 
HETATM    5  C3  UNL     1      30.952  11.529  47.810  1.00  0.00     0.056 A 
HETATM    6  C4  UNL     1      30.932  12.249  48.944  1.00  0.00     0.696 A 
HETATM    7  N2  UNL     1      30.691  11.049  49.610  1.00  0.00     0.073 NA
HETATM    8  C5  UNL     1      30.589   9.913  48.833  1.00  0.00     0.277 A 
HETATM    9  N3  UNL     1      30.823  10.917  48.209  1.00  0.00     0.000 N 
HETATM   10  C6  UNL     1      30.969  10.837  46.718  1.00  0.00     0.093 A 
HETATM   11  N4  UNL     1      30.849  10.089  45.529  1.00  0.00    -0.315 N 
HETATM   12  N5  UNL     1      30.247   8.654  48.547  1.00  0.00    -0.313 N 
HETATM   13  C12 UNL     1      31.196   7.626  48.586  1.00  0.00     0.043 A 
HETATM   14  C13 UNL     1      32.431   8.174  48.792  1.00  0.00     0.030 A 
HETATM   15  C14 UNL     1      33.430   7.198  48.841  1.00  0.00     0.002 A 
HETATM   16  C15 UNL     1      33.150   5.837  48.692  1.00  0.00     0.001 A 
HETATM   17  C16 UNL     1      31.846   5.424  48.491  1.00  0.00     0.010 A 
HETATM   18  C17 UNL     1      30.799   6.334  48.430  1.00  0.00    -0.028 A 
HETATM   19  C18 UNL     1      29.475   5.686  48.226  1.00  0.00     0.067 C 
HETATM   20  C19 UNL     1      28.562   6.639  47.584  1.00  0.00    -0.024 C 
HETATM   21  C20 UNL     1      28.233   7.918  47.536  1.00  0.00    -0.003 C 
HETATM   22  C21 UNL     1      28.857   9.025  48.320  1.00  0.00     0.132 C 
HETATM   23  C22 UNL     1      28.437  10.364  47.887  1.00  0.00     0.157 C 
ENDROOT
BRANCH  11  24
HETATM   24  C7  UNL     1      31.960   9.668  44.836  1.00  0.00     0.092 C 
HETATM   25  C8  UNL     1      33.175  10.527  45.154  1.00  0.00     0.028 C 
HETATM   26  C9  UNL     1      34.336   9.747  44.588  1.00  0.00     0.034 C 
HETATM   27  C10 UNL     1      33.763   8.402  44.153  1.00  0.00     0.120 C 
HETATM   28  C11 UNL     1      32.545   8.298  45.114  1.00  0.00     0.057 C 
BRANCH  27  29
HETATM   29  O2  UNL     1      34.625   7.353  44.356  1.00  0.00    -0.396 OA
HETATM   30  H10 UNL     1      35.078   7.210  43.479  1.00  0.00     0.210 HD
ENDBRANCH  27  29
ENDBRANCH  11  24
TORSDOF 3
ENDMDL
MODEL 9
REMARK VINA RESULT:      -7.2      2.224      5.352
REMARK  3 active torsions:
REMARK  status: ('A' for Active; 'I' for Inactive)
REMARK    1  A    between atoms: N3_9  and  C6_10 
REMARK    2  A    between atoms: N4_11  and  C7_12 
REMARK    3  A    between atoms: C10_15  and  O2_16 
ROOT
HETATM    1  O1  UNL     1      21.998   6.620  50.334  1.00  0.00    -0.247 OA
HETATM    2  C1  UNL     1      21.338   5.688  50.046  1.00  0.00     0.321 C 
HETATM    3  N1  UNL     1      22.086   5.302  48.908  1.00  0.00    -0.330 N 
HETATM    4  C2  UNL     1      21.085   5.292  47.752  1.00  0.00     0.158 A 
HETATM    5  C3  UNL     1      21.268   3.637  47.901  1.00  0.00     0.056 A 
HETATM    6  C4  UNL     1      21.813   3.132  46.781  1.00  0.00     0.696 A 
HETATM    7  N2  UNL     1      22.715   2.470  47.611  1.00  0.00     0.073 NA
HETATM    8  C5  UNL     1      22.590   2.688  48.969  1.00  0.00     0.277 A 
HETATM    9  N3  UNL     1      21.770   3.264  48.301  1.00  0.00     0.000 N 
HETATM   10  C6  UNL     1      20.745   4.124  48.978  1.00  0.00     0.093 A 
HETATM   11  N4  UNL     1      20.275   4.750  50.150  1.00  0.00    -0.315 N 
HETATM   12  N5  UNL     1      22.982   2.703  50.245  1.00  0.00    -0.313 N 
HETATM   13  C12 UNL     1      22.572   1.703  51.135  1.00  0.00     0.043 A 
HETATM   14  C13 UNL     1      21.655   0.906  50.509  1.00  0.00     0.030 A 
HETATM   15  C14 UNL     1      21.201  -0.117  51.345  1.00  0.00     0.002 A 
HETATM   16  C15 UNL     1      21.660  -0.267  52.656  1.00  0.00     0.001 A 
HETATM   17  C16 UNL     1      22.595   0.617  53.160  1.00  0.00     0.010 A 
HETATM   18  C17 UNL     1      23.094   1.660  52.391  1.00  0.00    -0.028 A 
HETATM   19  C18 UNL     1      24.102   2.485  53.110  1.00  0.00     0.067 C 
HETATM   20  C19 UNL     1      24.126   3.834  52.535  1.00  0.00    -0.024 C 
HETATM   21  C20 UNL     1      24.012   4.501  51.399  1.00  0.00    -0.003 C 
HETATM   22  C21 UNL     1      23.764   3.916  50.047  1.00  0.00     0.132 C 
HETATM   23  C22 UNL     1      23.459   4.917  49.018  1.00  0.00     0.157 C 
ENDROOT
BRANCH  11  24
HETATM   24  C7  UNL     1      19.130   4.320  50.780  1.00  0.00     0.092 C 
HETATM   25  C8  UNL     1      17.882   4.732  50.012  1.00  0.00     0.028 C 
HETATM   26  C9  UNL     1      16.778   3.919  50.640  1.00  0.00     0.034 C 
HETATM   27  C10 UNL     1      17.465   2.947  51.594  1.00  0.00     0.120 C 
HETATM   28  C11 UNL     1      18.859   2.834  50.914  1.00  0.00     0.057 C 
BRANCH  27  29
HETATM   29  O2  UNL     1      16.858   1.716  51.646  1.00  0.00    -0.396 OA
HETATM   30  H10 UNL     1      17.578   1.077  51.905  1.00  0.00     0.210 HD
ENDBRANCH  27  29
ENDBRANCH  11  24
TORSDOF 3
ENDMDL
