MODEL 1
REMARK VINA RESULT:      -7.5      0.000      0.000
REMARK  6 active torsions:
REMARK  status: ('A' for Active; 'I' for Inactive)
REMARK    1  A    between atoms: C1_2  and  C2_3 
REMARK    2  A    between atoms: C6_8  and  N2_9 
REMARK    3  A    between atoms: N2_9  and  C7_10 
REMARK    4  A    between atoms: C7_10  and  N3_11 
REMARK    5  A    between atoms: N3_11  and  S1_12 
REMARK    6  A    between atoms: S1_12  and  C8_15 
ROOT
HETATM    1  C7  UNL     1      26.355   2.359  51.381  1.00  0.00     0.226 C 
ENDROOT
BRANCH   1   2
HETATM    2  N2  UNL     1      25.349   3.279  51.893  1.00  0.00    -0.375 N 
HETATM    3  H5  UNL     1      25.598   4.259  52.140  1.00  0.00     0.161 HD
BRANCH   2   4
HETATM    4  C6  UNL     1      24.033   2.830  52.054  1.00  0.00     0.060 A 
HETATM    5  C2  UNL     1      22.887   3.590  52.009  1.00  0.00     0.106 A 
HETATM    6  N1  UNL     1      21.627   3.198  52.157  1.00  0.00    -0.257 NA
HETATM    7  C3  UNL     1      21.364   1.885  52.385  1.00  0.00     0.117 A 
HETATM    8  C4  UNL     1      22.444   1.029  52.448  1.00  0.00     0.022 A 
HETATM    9  C5  UNL     1      23.753   1.483  52.288  1.00  0.00     0.033 A 
BRANCH   5  10
HETATM   10  C1  UNL     1      23.037   5.005  51.774  1.00  0.00     0.412 C 
HETATM   11  O1  UNL     1      23.861   5.944  51.768  1.00  0.00    -0.404 OA
ENDBRANCH   5  10
ENDBRANCH   2   4
ENDBRANCH   1   2
BRANCH   1  12
HETATM   12  N3  UNL     1      27.631   2.700  51.980  1.00  0.00    -0.199 NA
HETATM   13  H8  UNL     1      27.746   3.718  52.067  1.00  0.00     0.141 HD
BRANCH  12  14
HETATM   14  S1  UNL     1      27.695   1.962  53.544  1.00  0.00     0.242 S 
HETATM   15  O2  UNL     1      26.458   2.205  54.349  1.00  0.00    -0.206 OA
HETATM   16  O3  UNL     1      28.902   2.555  54.257  1.00  0.00    -0.206 OA
BRANCH  14  17
HETATM   17  C8  UNL     1      27.997   0.247  53.303  1.00  0.00     0.074 A 
HETATM   18  C9  UNL     1      27.077  -0.672  52.853  1.00  0.00     0.025 A 
HETATM   19  C10 UNL     1      27.471  -1.979  52.718  1.00  0.00     0.002 A 
HETATM   20  C11 UNL     1      28.746  -2.381  53.017  1.00  0.00     0.000 A 
HETATM   21  C12 UNL     1      29.684  -1.453  53.474  1.00  0.00     0.002 A 
HETATM   22  C13 UNL     1      29.293  -0.136  53.613  1.00  0.00     0.025 A 
ENDBRANCH  14  17
ENDBRANCH  12  14
ENDBRANCH   1  12
TORSDOF 6
ENDMDL
MODEL 2
REMARK VINA RESULT:      -7.4      1.856      2.501
REMARK  6 active torsions:
REMARK  status: ('A' for Active; 'I' for Inactive)
REMARK    1  A    between atoms: C1_2  and  C2_3 
REMARK    2  A    between atoms: C6_8  and  N2_9 
REMARK    3  A    between atoms: N2_9  and  C7_10 
REMARK    4  A    between atoms: C7_10  and  N3_11 
REMARK    5  A    between atoms: N3_11  and  S1_12 
REMARK    6  A    between atoms: S1_12  and  C8_15 
ROOT
HETATM    1  C7  UNL     1      25.185   2.437  53.222  1.00  0.00     0.226 C 
ENDROOT
BRANCH   1   2
HETATM    2  N2  UNL     1      24.491   1.370  52.514  1.00  0.00    -0.375 N 
HETATM    3  H5  UNL     1      24.770   1.102  51.546  1.00  0.00     0.161 HD
BRANCH   2   4
HETATM    4  C6  UNL     1      23.438   0.702  53.148  1.00  0.00     0.060 A 
HETATM    5  C2  UNL     1      22.102   1.025  53.097  1.00  0.00     0.106 A 
HETATM    6  N1  UNL     1      21.080   0.415  53.685  1.00  0.00    -0.257 NA
HETATM    7  C3  UNL     1      21.314  -0.681  54.453  1.00  0.00     0.117 A 
HETATM    8  C4  UNL     1      22.624  -1.096  54.573  1.00  0.00     0.022 A 
HETATM    9  C5  UNL     1      23.669  -0.425  53.938  1.00  0.00     0.033 A 
BRANCH   5  10
HETATM   10  C1  UNL     1      21.725   2.175  52.312  1.00  0.00     0.412 C 
HETATM   11  O1  UNL     1      22.175   3.140  51.658  1.00  0.00    -0.404 OA
ENDBRANCH   5  10
ENDBRANCH   2   4
ENDBRANCH   1   2
BRANCH   1  12
HETATM   12  N3  UNL     1      26.130   1.834  54.141  1.00  0.00    -0.199 NA
HETATM   13  H8  UNL     1      25.853   0.876  54.393  1.00  0.00     0.141 HD
BRANCH  12  14
HETATM   14  S1  UNL     1      27.680   1.817  53.370  1.00  0.00     0.242 S 
HETATM   15  O2  UNL     1      28.682   2.683  54.065  1.00  0.00    -0.206 OA
HETATM   16  O3  UNL     1      27.464   2.313  51.947  1.00  0.00    -0.206 OA
BRANCH  14  17
HETATM   17  C8  UNL     1      28.204   0.141  53.286  1.00  0.00     0.074 A 
HETATM   18  C9  UNL     1      29.454  -0.324  53.623  1.00  0.00     0.025 A 
HETATM   19  C10 UNL     1      29.708  -1.667  53.501  1.00  0.00     0.002 A 
HETATM   20  C11 UNL     1      28.752  -2.541  53.055  1.00  0.00     0.000 A 
HETATM   21  C12 UNL     1      27.482  -2.075  52.712  1.00  0.00     0.002 A 
HETATM   22  C13 UNL     1      27.221  -0.725  52.832  1.00  0.00     0.025 A 
ENDBRANCH  14  17
ENDBRANCH  12  14
ENDBRANCH   1  12
TORSDOF 6
ENDMDL
MODEL 3
REMARK VINA RESULT:      -7.4      1.954      3.018
REMARK  6 active torsions:
REMARK  status: ('A' for Active; 'I' for Inactive)
REMARK    1  A    between atoms: C1_2  and  C2_3 
REMARK    2  A    between atoms: C6_8  and  N2_9 
REMARK    3  A    between atoms: N2_9  and  C7_10 
REMARK    4  A    between atoms: C7_10  and  N3_11 
REMARK    5  A    between atoms: N3_11  and  S1_12 
REMARK    6  A    between atoms: S1_12  and  C8_15 
ROOT
HETATM    1  C7  UNL     1      25.285   2.532  53.276  1.00  0.00     0.226 C 
ENDROOT
BRANCH   1   2
HETATM    2  N2  UNL     1      24.544   1.540  52.509  1.00  0.00    -0.375 N 
HETATM    3  H5  UNL     1      25.014   0.978  51.768  1.00  0.00     0.161 HD
BRANCH   2   4
HETATM    4  C6  UNL     1      23.184   1.347  52.776  1.00  0.00     0.060 A 
HETATM    5  C2  UNL     1      22.619   0.324  53.500  1.00  0.00     0.106 A 
HETATM    6  N1  UNL     1      21.337   0.111  53.772  1.00  0.00    -0.257 NA
HETATM    7  C3  UNL     1      20.407   0.983  53.303  1.00  0.00     0.117 A 
HETATM    8  C4  UNL     1      20.864   2.051  52.561  1.00  0.00     0.022 A 
HETATM    9  C5  UNL     1      22.221   2.237  52.298  1.00  0.00     0.033 A 
BRANCH   5  10
HETATM   10  C1  UNL     1      23.508  -0.670  54.052  1.00  0.00     0.412 C 
HETATM   11  O1  UNL     1      24.551  -0.828  54.722  1.00  0.00    -0.404 OA
ENDBRANCH   5  10
ENDBRANCH   2   4
ENDBRANCH   1   2
BRANCH   1  12
HETATM   12  N3  UNL     1      26.170   1.834  54.188  1.00  0.00    -0.199 NA
HETATM   13  H8  UNL     1      25.845   0.875  54.370  1.00  0.00     0.141 HD
BRANCH  12  14
HETATM   14  S1  UNL     1      27.746   1.797  53.472  1.00  0.00     0.242 S 
HETATM   15  O2  UNL     1      28.751   2.590  54.245  1.00  0.00    -0.206 OA
HETATM   16  O3  UNL     1      27.600   2.370  52.070  1.00  0.00    -0.206 OA
BRANCH  14  17
HETATM   17  C8  UNL     1      28.213   0.109  53.322  1.00  0.00     0.074 A 
HETATM   18  C9  UNL     1      29.437  -0.416  53.669  1.00  0.00     0.025 A 
HETATM   19  C10 UNL     1      29.646  -1.760  53.490  1.00  0.00     0.002 A 
HETATM   20  C11 UNL     1      28.673  -2.578  52.980  1.00  0.00     0.000 A 
HETATM   21  C12 UNL     1      27.430  -2.051  52.626  1.00  0.00     0.002 A 
HETATM   22  C13 UNL     1      27.214  -0.699  52.803  1.00  0.00     0.025 A 
ENDBRANCH  14  17
ENDBRANCH  12  14
ENDBRANCH   1  12
TORSDOF 6
ENDMDL
MODEL 4
REMARK VINA RESULT:      -7.2      1.641      2.235
REMARK  6 active torsions:
REMARK  status: ('A' for Active; 'I' for Inactive)
REMARK    1  A    between atoms: C1_2  and  C2_3 
REMARK    2  A    between atoms: C6_8  and  N2_9 
REMARK    3  A    between atoms: N2_9  and  C7_10 
REMARK    4  A    between atoms: C7_10  and  N3_11 
REMARK    5  A    between atoms: N3_11  and  S1_12 
REMARK    6  A    between atoms: S1_12  and  C8_15 
ROOT
HETATM    1  C7  UNL     1      26.659   2.177  51.229  1.00  0.00     0.226 C 
ENDROOT
BRANCH   1   2
HETATM    2  N2  UNL     1      25.436   2.907  51.529  1.00  0.00    -0.375 N 
HETATM    3  H5  UNL     1      25.375   3.526  52.365  1.00  0.00     0.161 HD
BRANCH   2   4
HETATM    4  C6  UNL     1      24.333   2.770  50.679  1.00  0.00     0.060 A 
HETATM    5  C2  UNL     1      23.251   1.939  50.853  1.00  0.00     0.106 A 
HETATM    6  N1  UNL     1      22.191   1.785  50.068  1.00  0.00    -0.257 NA
HETATM    7  C3  UNL     1      22.100   2.514  48.925  1.00  0.00     0.117 A 
HETATM    8  C4  UNL     1      23.135   3.384  48.651  1.00  0.00     0.022 A 
HETATM    9  C5  UNL     1      24.231   3.515  49.503  1.00  0.00     0.033 A 
BRANCH   5  10
HETATM   10  C1  UNL     1      23.232   1.111  52.033  1.00  0.00     0.412 C 
HETATM   11  O1  UNL     1      23.349   1.126  53.277  1.00  0.00    -0.404 OA
ENDBRANCH   5  10
ENDBRANCH   2   4
ENDBRANCH   1   2
BRANCH   1  12
HETATM   12  N3  UNL     1      27.732   2.734  52.030  1.00  0.00    -0.199 NA
HETATM   13  H8  UNL     1      27.636   3.753  52.132  1.00  0.00     0.141 HD
BRANCH  12  14
HETATM   14  S1  UNL     1      27.677   1.978  53.587  1.00  0.00     0.242 S 
HETATM   15  O2  UNL     1      26.374   2.193  54.289  1.00  0.00    -0.206 OA
HETATM   16  O3  UNL     1      28.811   2.581  54.404  1.00  0.00    -0.206 OA
BRANCH  14  17
HETATM   17  C8  UNL     1      28.026   0.271  53.353  1.00  0.00     0.074 A 
HETATM   18  C9  UNL     1      27.122  -0.680  52.939  1.00  0.00     0.025 A 
HETATM   19  C10 UNL     1      27.552  -1.976  52.805  1.00  0.00     0.002 A 
HETATM   20  C11 UNL     1      28.848  -2.335  53.069  1.00  0.00     0.000 A 
HETATM   21  C12 UNL     1      29.769  -1.373  53.488  1.00  0.00     0.002 A 
HETATM   22  C13 UNL     1      29.342  -0.068  53.627  1.00  0.00     0.025 A 
ENDBRANCH  14  17
ENDBRANCH  12  14
ENDBRANCH   1  12
TORSDOF 6
ENDMDL
MODEL 5
REMARK VINA RESULT:      -7.2      2.256      6.131
REMARK  6 active torsions:
REMARK  status: ('A' for Active; 'I' for Inactive)
REMARK    1  A    between atoms: C1_2  and  C2_3 
REMARK    2  A    between atoms: C6_8  and  N2_9 
REMARK    3  A    between atoms: N2_9  and  C7_10 
REMARK    4  A    between atoms: C7_10  and  N3_11 
REMARK    5  A    between atoms: N3_11  and  S1_12 
REMARK    6  A    between atoms: S1_12  and  C8_15 
ROOT
HETATM    1  C7  UNL     1      26.241   1.842  52.081  1.00  0.00     0.226 C 
ENDROOT
BRANCH   1   2
HETATM    2  N2  UNL     1      26.517   1.124  53.318  1.00  0.00    -0.375 N 
HETATM    3  H5  UNL     1      26.081   1.422  54.216  1.00  0.00     0.161 HD
BRANCH   2   4
HETATM    4  C6  UNL     1      27.379   0.022  53.290  1.00  0.00     0.060 A 
HETATM    5  C2  UNL     1      28.690  -0.014  53.702  1.00  0.00     0.106 A 
HETATM    6  N1  UNL     1      29.534  -1.040  53.689  1.00  0.00    -0.257 NA
HETATM    7  C3  UNL     1      29.110  -2.241  53.220  1.00  0.00     0.117 A 
HETATM    8  C4  UNL     1      27.805  -2.319  52.779  1.00  0.00     0.022 A 
HETATM    9  C5  UNL     1      26.951  -1.216  52.810  1.00  0.00     0.033 A 
BRANCH   5  10
HETATM   10  C1  UNL     1      29.258   1.206  54.222  1.00  0.00     0.412 C 
HETATM   11  O1  UNL     1      29.003   2.396  54.503  1.00  0.00    -0.404 OA
ENDBRANCH   5  10
ENDBRANCH   2   4
ENDBRANCH   1   2
BRANCH   1  12
HETATM   12  N3  UNL     1      25.008   1.327  51.519  1.00  0.00    -0.199 NA
HETATM   13  H8  UNL     1      24.945   0.305  51.622  1.00  0.00     0.141 HD
BRANCH  12  14
HETATM   14  S1  UNL     1      23.691   2.085  52.350  1.00  0.00     0.242 S 
HETATM   15  O2  UNL     1      22.797   2.858  51.433  1.00  0.00    -0.206 OA
HETATM   16  O3  UNL     1      24.307   3.019  53.382  1.00  0.00    -0.206 OA
BRANCH  14  17
HETATM   17  C8  UNL     1      22.820   0.824  53.211  1.00  0.00     0.074 A 
HETATM   18  C9  UNL     1      23.386  -0.291  53.784  1.00  0.00     0.025 A 
HETATM   19  C10 UNL     1      22.566  -1.186  54.424  1.00  0.00     0.002 A 
HETATM   20  C11 UNL     1      21.212  -0.991  54.503  1.00  0.00     0.000 A 
HETATM   21  C12 UNL     1      20.632   0.139  53.923  1.00  0.00     0.002 A 
HETATM   22  C13 UNL     1      21.452   1.042  53.277  1.00  0.00     0.025 A 
ENDBRANCH  14  17
ENDBRANCH  12  14
ENDBRANCH   1  12
TORSDOF 6
ENDMDL
MODEL 6
REMARK VINA RESULT:      -7.0      2.003      5.889
REMARK  6 active torsions:
REMARK  status: ('A' for Active; 'I' for Inactive)
REMARK    1  A    between atoms: C1_2  and  C2_3 
REMARK    2  A    between atoms: C6_8  and  N2_9 
REMARK    3  A    between atoms: N2_9  and  C7_10 
REMARK    4  A    between atoms: C7_10  and  N3_11 
REMARK    5  A    between atoms: N3_11  and  S1_12 
REMARK    6  A    between atoms: S1_12  and  C8_15 
ROOT
HETATM    1  C7  UNL     1      26.482   2.825  51.213  1.00  0.00     0.226 C 
ENDROOT
BRANCH   1   2
HETATM    2  N2  UNL     1      27.218   2.376  52.387  1.00  0.00    -0.375 N 
HETATM    3  H5  UNL     1      27.656   3.062  53.037  1.00  0.00     0.161 HD
BRANCH   2   4
HETATM    4  C6  UNL     1      27.333   1.004  52.637  1.00  0.00     0.060 A 
HETATM    5  C2  UNL     1      28.184   0.393  53.527  1.00  0.00     0.106 A 
HETATM    6  N1  UNL     1      28.318  -0.903  53.788  1.00  0.00    -0.257 NA
HETATM    7  C3  UNL     1      27.543  -1.797  53.122  1.00  0.00     0.117 A 
HETATM    8  C4  UNL     1      26.649  -1.291  52.202  1.00  0.00     0.022 A 
HETATM    9  C5  UNL     1      26.540   0.078  51.957  1.00  0.00     0.033 A 
BRANCH   5  10
HETATM   10  C1  UNL     1      29.062   1.240  54.296  1.00  0.00     0.412 C 
HETATM   11  O1  UNL     1      29.316   2.428  54.588  1.00  0.00    -0.404 OA
ENDBRANCH   5  10
ENDBRANCH   2   4
ENDBRANCH   1   2
BRANCH   1  12
HETATM   12  N3  UNL     1      25.411   3.698  51.652  1.00  0.00    -0.199 NA
HETATM   13  H8  UNL     1      25.665   4.689  51.548  1.00  0.00     0.141 HD
BRANCH  12  14
HETATM   14  S1  UNL     1      24.014   3.344  50.693  1.00  0.00     0.242 S 
HETATM   15  O2  UNL     1      24.348   3.074  49.261  1.00  0.00    -0.206 OA
HETATM   16  O3  UNL     1      23.099   4.556  50.792  1.00  0.00    -0.206 OA
BRANCH  14  17
HETATM   17  C8  UNL     1      23.193   1.983  51.445  1.00  0.00     0.074 A 
HETATM   18  C9  UNL     1      23.415   1.521  52.722  1.00  0.00     0.025 A 
HETATM   19  C10 UNL     1      22.690   0.444  53.163  1.00  0.00     0.002 A 
HETATM   20  C11 UNL     1      21.760  -0.172  52.368  1.00  0.00     0.000 A 
HETATM   21  C12 UNL     1      21.530   0.292  51.071  1.00  0.00     0.002 A 
HETATM   22  C13 UNL     1      22.258   1.376  50.622  1.00  0.00     0.025 A 
ENDBRANCH  14  17
ENDBRANCH  12  14
ENDBRANCH   1  12
TORSDOF 6
ENDMDL
MODEL 7
REMARK VINA RESULT:      -7.0      2.400      6.121
REMARK  6 active torsions:
REMARK  status: ('A' for Active; 'I' for Inactive)
REMARK    1  A    between atoms: C1_2  and  C2_3 
REMARK    2  A    between atoms: C6_8  and  N2_9 
REMARK    3  A    between atoms: N2_9  and  C7_10 
REMARK    4  A    between atoms: C7_10  and  N3_11 
REMARK    5  A    between atoms: N3_11  and  S1_12 
REMARK    6  A    between atoms: S1_12  and  C8_15 
ROOT
HETATM    1  C7  UNL     1      26.345   3.071  50.664  1.00  0.00     0.226 C 
ENDROOT
BRANCH   1   2
HETATM    2  N2  UNL     1      27.014   2.819  51.932  1.00  0.00    -0.375 N 
HETATM    3  H5  UNL     1      27.343   3.607  52.528  1.00  0.00     0.161 HD
BRANCH   2   4
HETATM    4  C6  UNL     1      27.213   1.497  52.349  1.00  0.00     0.060 A 
HETATM    5  C2  UNL     1      28.139   1.047  53.260  1.00  0.00     0.106 A 
HETATM    6  N1  UNL     1      28.353  -0.196  53.676  1.00  0.00    -0.257 NA
HETATM    7  C3  UNL     1      27.593  -1.204  53.175  1.00  0.00     0.117 A 
HETATM    8  C4  UNL     1      26.629  -0.863  52.250  1.00  0.00     0.022 A 
HETATM    9  C5  UNL     1      26.436   0.456  51.839  1.00  0.00     0.033 A 
BRANCH   5  10
HETATM   10  C1  UNL     1      29.009   2.026  53.864  1.00  0.00     0.412 C 
HETATM   11  O1  UNL     1      29.522   2.389  54.944  1.00  0.00    -0.404 OA
ENDBRANCH   5  10
ENDBRANCH   2   4
ENDBRANCH   1   2
BRANCH   1  12
HETATM   12  N3  UNL     1      25.732   4.383  50.724  1.00  0.00    -0.199 NA
HETATM   13  H8  UNL     1      25.719   4.836  49.801  1.00  0.00     0.141 HD
BRANCH  12  14
HETATM   14  S1  UNL     1      24.114   4.185  51.307  1.00  0.00     0.242 S 
HETATM   15  O2  UNL     1      23.409   5.488  51.513  1.00  0.00    -0.206 OA
HETATM   16  O3  UNL     1      24.216   3.437  52.629  1.00  0.00    -0.206 OA
BRANCH  14  17
HETATM   17  C8  UNL     1      23.268   3.152  50.163  1.00  0.00     0.074 A 
HETATM   18  C9  UNL     1      23.226   3.334  48.800  1.00  0.00     0.025 A 
HETATM   19  C10 UNL     1      22.519   2.436  48.042  1.00  0.00     0.002 A 
HETATM   20  C11 UNL     1      21.864   1.375  48.609  1.00  0.00     0.000 A 
HETATM   21  C12 UNL     1      21.903   1.185  49.991  1.00  0.00     0.002 A 
HETATM   22  C13 UNL     1      22.612   2.086  50.760  1.00  0.00     0.025 A 
ENDBRANCH  14  17
ENDBRANCH  12  14
ENDBRANCH   1  12
TORSDOF 6
ENDMDL
MODEL 8
REMARK VINA RESULT:      -6.9      2.554      3.743
REMARK  6 active torsions:
REMARK  status: ('A' for Active; 'I' for Inactive)
REMARK    1  A    between atoms: C1_2  and  C2_3 
REMARK    2  A    between atoms: C6_8  and  N2_9 
REMARK    3  A    between atoms: N2_9  and  C7_10 
REMARK    4  A    between atoms: C7_10  and  N3_11 
REMARK    5  A    between atoms: N3_11  and  S1_12 
REMARK    6  A    between atoms: S1_12  and  C8_15 
ROOT
HETATM    1  C7  UNL     1      26.530   2.636  50.741  1.00  0.00     0.226 C 
ENDROOT
BRANCH   1   2
HETATM    2  N2  UNL     1      25.696   3.809  50.522  1.00  0.00    -0.375 N 
HETATM    3  H5  UNL     1      24.725   3.852  50.898  1.00  0.00     0.161 HD
BRANCH   2   4
HETATM    4  C6  UNL     1      26.213   4.888  49.796  1.00  0.00     0.060 A 
HETATM    5  C2  UNL     1      25.754   6.185  49.799  1.00  0.00     0.106 A 
HETATM    6  N1  UNL     1      26.220   7.229  49.124  1.00  0.00    -0.257 NA
HETATM    7  C3  UNL     1      27.289   7.065  48.303  1.00  0.00     0.117 A 
HETATM    8  C4  UNL     1      27.831   5.800  48.223  1.00  0.00     0.022 A 
HETATM    9  C5  UNL     1      27.311   4.729  48.950  1.00  0.00     0.033 A 
BRANCH   5  10
HETATM   10  C1  UNL     1      24.618   6.486  50.635  1.00  0.00     0.412 C 
HETATM   11  O1  UNL     1      23.985   6.117  51.647  1.00  0.00    -0.404 OA
ENDBRANCH   5  10
ENDBRANCH   2   4
ENDBRANCH   1   2
BRANCH   1  12
HETATM   12  N3  UNL     1      25.927   1.837  51.791  1.00  0.00    -0.199 NA
HETATM   13  H8  UNL     1      25.631   0.916  51.441  1.00  0.00     0.141 HD
BRANCH  12  14
HETATM   14  S1  UNL     1      27.102   1.641  53.047  1.00  0.00     0.242 S 
HETATM   15  O2  UNL     1      26.582   2.035  54.392  1.00  0.00    -0.206 OA
HETATM   16  O3  UNL     1      28.289   2.517  52.673  1.00  0.00    -0.206 OA
BRANCH  14  17
HETATM   17  C8  UNL     1      27.632  -0.035  53.010  1.00  0.00     0.074 A 
HETATM   18  C9  UNL     1      26.870  -1.107  52.605  1.00  0.00     0.025 A 
HETATM   19  C10 UNL     1      27.433  -2.358  52.636  1.00  0.00     0.002 A 
HETATM   20  C11 UNL     1      28.721  -2.557  53.056  1.00  0.00     0.000 A 
HETATM   21  C12 UNL     1      29.499  -1.474  53.468  1.00  0.00     0.002 A 
HETATM   22  C13 UNL     1      28.939  -0.212  53.440  1.00  0.00     0.025 A 
ENDBRANCH  14  17
ENDBRANCH  12  14
ENDBRANCH   1  12
TORSDOF 6
ENDMDL
MODEL 9
REMARK VINA RESULT:      -6.7      2.899      6.378
REMARK  6 active torsions:
REMARK  status: ('A' for Active; 'I' for Inactive)
REMARK    1  A    between atoms: C1_2  and  C2_3 
REMARK    2  A    between atoms: C6_8  and  N2_9 
REMARK    3  A    between atoms: N2_9  and  C7_10 
REMARK    4  A    between atoms: C7_10  and  N3_11 
REMARK    5  A    between atoms: N3_11  and  S1_12 
REMARK    6  A    between atoms: S1_12  and  C8_15 
ROOT
HETATM    1  C7  UNL     1      25.058   2.414  52.150  1.00  0.00     0.226 C 
ENDROOT
BRANCH   1   2
HETATM    2  N2  UNL     1      25.364   2.128  53.544  1.00  0.00    -0.375 N 
HETATM    3  H5  UNL     1      24.666   2.319  54.294  1.00  0.00     0.161 HD
BRANCH   2   4
HETATM    4  C6  UNL     1      26.614   1.591  53.873  1.00  0.00     0.060 A 
HETATM    5  C2  UNL     1      26.860   0.402  54.519  1.00  0.00     0.106 A 
HETATM    6  N1  UNL     1      28.030  -0.136  54.846  1.00  0.00    -0.257 NA
HETATM    7  C3  UNL     1      29.174   0.524  54.529  1.00  0.00     0.117 A 
HETATM    8  C4  UNL     1      29.044   1.731  53.876  1.00  0.00     0.022 A 
HETATM    9  C5  UNL     1      27.795   2.261  53.551  1.00  0.00     0.033 A 
BRANCH   5  10
HETATM   10  C1  UNL     1      25.721  -0.391  54.910  1.00  0.00     0.412 C 
HETATM   11  O1  UNL     1      25.259  -1.112  55.820  1.00  0.00    -0.404 OA
ENDBRANCH   5  10
ENDBRANCH   2   4
ENDBRANCH   1   2
BRANCH   1  12
HETATM   12  N3  UNL     1      24.400   1.254  51.580  1.00  0.00    -0.199 NA
HETATM   13  H8  UNL     1      24.611   0.401  52.115  1.00  0.00     0.141 HD
BRANCH  12  14
HETATM   14  S1  UNL     1      22.695   1.553  51.594  1.00  0.00     0.242 S 
HETATM   15  O2  UNL     1      22.097   1.559  50.223  1.00  0.00    -0.206 OA
HETATM   16  O3  UNL     1      22.497   2.912  52.252  1.00  0.00    -0.206 OA
BRANCH  14  17
HETATM   17  C8  UNL     1      21.958   0.337  52.629  1.00  0.00     0.074 A 
HETATM   18  C9  UNL     1      22.640  -0.581  53.394  1.00  0.00     0.025 A 
HETATM   19  C10 UNL     1      21.916  -1.467  54.151  1.00  0.00     0.002 A 
HETATM   20  C11 UNL     1      20.546  -1.454  54.159  1.00  0.00     0.000 A 
HETATM   21  C12 UNL     1      19.849  -0.525  53.384  1.00  0.00     0.002 A 
HETATM   22  C13 UNL     1      20.572   0.369  52.620  1.00  0.00     0.025 A 
ENDBRANCH  14  17
ENDBRANCH  12  14
ENDBRANCH   1  12
TORSDOF 6
ENDMDL
