MODEL 1
REMARK VINA RESULT:      -8.1      0.000      0.000
REMARK  5 active torsions:
REMARK  status: ('A' for Active; 'I' for Inactive)
REMARK    1  A    between atoms: C5_5  and  N1_6 
REMARK    2  A    between atoms: C6_7  and  N2_8 
REMARK    3  A    between atoms: C10_13  and  N4_14 
REMARK    4  A    between atoms: C11_15  and  C12_16 
REMARK    5  A    between atoms: C15_20  and  P1_21 
ROOT
HETATM    1  C1  UNL     1      21.527   0.231  52.079  1.00  0.00     0.049 C 
HETATM    2  C2  UNL     1      22.472  -0.186  53.126  1.00  0.00    -0.051 A 
HETATM    3  C3  UNL     1      22.009  -0.914  54.228  1.00  0.00     0.010 A 
HETATM    4  C4  UNL     1      22.993  -1.243  55.133  1.00  0.00     0.032 A 
HETATM    5  C5  UNL     1      24.345  -0.978  55.131  1.00  0.00     0.054 A 
HETATM    6  C6  UNL     1      24.767  -0.252  54.018  1.00  0.00     0.077 A 
HETATM    7  C11 UNL     1      23.814   0.097  53.093  1.00  0.00     0.008 A 
ENDROOT
BRANCH   6   8
HETATM    8  N2  UNL     1      26.141   0.084  53.902  1.00  0.00    -0.288 N 
HETATM    9  C7  UNL     1      26.375   1.363  54.311  1.00  0.00     0.216 A 
HETATM   10  N3  UNL     1      27.611   1.920  54.296  1.00  0.00    -0.255 NA
HETATM   11  C8  UNL     1      28.639   1.156  53.854  1.00  0.00     0.122 A 
HETATM   12  C9  UNL     1      28.444  -0.147  53.430  1.00  0.00     0.070 A 
HETATM   13  C10 UNL     1      27.155  -0.660  53.468  1.00  0.00     0.129 A 
BRANCH  13  14
HETATM   14  N4  UNL     1      26.814  -1.849  53.108  1.00  0.00    -0.283 NA
HETATM   15  H11 UNL     1      25.910  -1.935  52.569  1.00  0.00     0.188 HD
ENDBRANCH  13  14
ENDBRANCH   6   8
BRANCH   5  16
HETATM   16  N1  UNL     1      25.200  -1.409  56.164  1.00  0.00    -0.397 N 
HETATM   17  H6  UNL     1      26.226  -1.257  56.259  1.00  0.00     0.156 HD
HETATM   18  H7  UNL     1      24.639  -1.941  56.883  1.00  0.00     0.156 HD
ENDBRANCH   5  16
BRANCH   7  19
HETATM   19  C12 UNL     1      24.263   0.851  51.987  1.00  0.00     0.104 A 
HETATM   20  N5  UNL     1      23.777   2.091  52.667  1.00  0.00    -0.265 NA
HETATM   21  C13 UNL     1      23.917   3.607  51.997  1.00  0.00     0.117 A 
HETATM   22  P1  UNL     1      24.396   2.874  51.207  1.00  0.00    -0.053 P 
HETATM   23  C14 UNL     1      24.483   4.751  50.558  1.00  0.00     0.077 A 
HETATM   24  C15 UNL     1      24.446   3.838  50.864  1.00  0.00    -0.038 A 
HETATM   25  H14 UNL     1      24.380   2.512  51.329  1.00  0.00     0.068 HD
ENDBRANCH   7  19
TORSDOF 5
ENDMDL
MODEL 2
REMARK VINA RESULT:      -7.4      2.174      5.148
REMARK  5 active torsions:
REMARK  status: ('A' for Active; 'I' for Inactive)
REMARK    1  A    between atoms: C5_5  and  N1_6 
REMARK    2  A    between atoms: C6_7  and  N2_8 
REMARK    3  A    between atoms: C10_13  and  N4_14 
REMARK    4  A    between atoms: C11_15  and  C12_16 
REMARK    5  A    between atoms: C15_20  and  P1_21 
ROOT
HETATM    1  C1  UNL     1      23.495  -0.653  53.443  1.00  0.00     0.049 C 
HETATM    2  C2  UNL     1      22.707   0.518  53.028  1.00  0.00    -0.051 A 
HETATM    3  C3  UNL     1      21.350   0.595  53.361  1.00  0.00     0.010 A 
HETATM    4  C4  UNL     1      20.730   1.740  52.916  1.00  0.00     0.032 A 
HETATM    5  C5  UNL     1      21.220   2.813  52.205  1.00  0.00     0.054 A 
HETATM    6  C6  UNL     1      22.575   2.699  51.892  1.00  0.00     0.077 A 
HETATM    7  C11 UNL     1      23.229   1.569  52.318  1.00  0.00     0.008 A 
ENDROOT
BRANCH   6   8
HETATM    8  N2  UNL     1      23.196   3.744  51.159  1.00  0.00    -0.288 N 
HETATM    9  C7  UNL     1      23.166   3.495  49.819  1.00  0.00     0.216 A 
HETATM   10  N3  UNL     1      23.698   4.345  48.907  1.00  0.00    -0.255 NA
HETATM   11  C8  UNL     1      24.275   5.481  49.368  1.00  0.00     0.122 A 
HETATM   12  C9  UNL     1      24.326   5.771  50.721  1.00  0.00     0.070 A 
HETATM   13  C10 UNL     1      23.766   4.861  51.605  1.00  0.00     0.129 A 
BRANCH  13  14
HETATM   14  N4  UNL     1      23.735   4.987  52.887  1.00  0.00    -0.283 NA
HETATM   15  H11 UNL     1      24.332   4.313  53.440  1.00  0.00     0.188 HD
ENDBRANCH  13  14
ENDBRANCH   6   8
BRANCH   5  16
HETATM   16  N1  UNL     1      20.414   3.908  51.839  1.00  0.00    -0.397 N 
HETATM   17  H6  UNL     1      19.556   3.909  51.248  1.00  0.00     0.156 HD
HETATM   18  H7  UNL     1      20.807   4.790  52.265  1.00  0.00     0.156 HD
ENDBRANCH   5  16
BRANCH   7  19
HETATM   19  C12 UNL     1      24.593   1.468  51.970  1.00  0.00     0.104 A 
HETATM   20  N5  UNL     1      24.950   2.054  53.298  1.00  0.00    -0.265 NA
HETATM   21  C13 UNL     1      26.520   2.319  53.781  1.00  0.00     0.117 A 
HETATM   22  P1  UNL     1      26.602   1.855  52.699  1.00  0.00    -0.053 P 
HETATM   23  C14 UNL     1      28.410   2.236  53.433  1.00  0.00     0.077 A 
HETATM   24  C15 UNL     1      27.538   2.048  53.068  1.00  0.00    -0.038 A 
HETATM   25  H14 UNL     1      26.256   1.781  52.555  1.00  0.00     0.068 HD
ENDBRANCH   7  19
TORSDOF 5
ENDMDL
MODEL 3
REMARK VINA RESULT:      -7.2      2.900      5.803
REMARK  5 active torsions:
REMARK  status: ('A' for Active; 'I' for Inactive)
REMARK    1  A    between atoms: C5_5  and  N1_6 
REMARK    2  A    between atoms: C6_7  and  N2_8 
REMARK    3  A    between atoms: C10_13  and  N4_14 
REMARK    4  A    between atoms: C11_15  and  C12_16 
REMARK    5  A    between atoms: C15_20  and  P1_21 
ROOT
HETATM    1  C1  UNL     1      24.414  -0.455  53.465  1.00  0.00     0.049 C 
HETATM    2  C2  UNL     1      24.925   0.688  52.692  1.00  0.00    -0.051 A 
HETATM    3  C3  UNL     1      26.274   0.729  52.323  1.00  0.00     0.010 A 
HETATM    4  C4  UNL     1      26.622   1.849  51.602  1.00  0.00     0.032 A 
HETATM    5  C5  UNL     1      25.868   2.925  51.187  1.00  0.00     0.054 A 
HETATM    6  C6  UNL     1      24.531   2.847  51.575  1.00  0.00     0.077 A 
HETATM    7  C11 UNL     1      24.144   1.745  52.297  1.00  0.00     0.008 A 
ENDROOT
BRANCH   6   8
HETATM    8  N2  UNL     1      23.651   3.899  51.206  1.00  0.00    -0.288 N 
HETATM    9  C7  UNL     1      23.125   3.692  49.966  1.00  0.00     0.216 A 
HETATM   10  N3  UNL     1      22.256   4.557  49.387  1.00  0.00    -0.255 NA
HETATM   11  C8  UNL     1      21.912   5.664  50.089  1.00  0.00     0.122 A 
HETATM   12  C9  UNL     1      22.424   5.911  51.352  1.00  0.00     0.070 A 
HETATM   13  C10 UNL     1      23.310   4.989  51.889  1.00  0.00     0.129 A 
BRANCH  13  14
HETATM   14  N4  UNL     1      23.869   5.077  53.046  1.00  0.00    -0.283 NA
HETATM   15  H11 UNL     1      24.198   4.171  53.479  1.00  0.00     0.188 HD
ENDBRANCH  13  14
ENDBRANCH   6   8
BRANCH   5  16
HETATM   16  N1  UNL     1      26.417   3.989  50.446  1.00  0.00    -0.397 N 
HETATM   17  H6  UNL     1      27.416   4.272  50.366  1.00  0.00     0.156 HD
HETATM   18  H7  UNL     1      25.642   4.502  49.945  1.00  0.00     0.156 HD
ENDBRANCH   5  16
BRANCH   7  19
HETATM   19  C12 UNL     1      22.791   1.702  52.695  1.00  0.00     0.104 A 
HETATM   20  N5  UNL     1      22.489   0.870  51.489  1.00  0.00    -0.265 NA
HETATM   21  C13 UNL     1      20.963   0.310  51.132  1.00  0.00     0.117 A 
HETATM   22  P1  UNL     1      20.843   0.920  52.136  1.00  0.00    -0.053 P 
HETATM   23  C14 UNL     1      19.094   0.172  51.561  1.00  0.00     0.077 A 
HETATM   24  C15 UNL     1      19.937   0.538  51.848  1.00  0.00    -0.038 A 
HETATM   25  H14 UNL     1      21.178   1.065  52.248  1.00  0.00     0.068 HD
ENDBRANCH   7  19
TORSDOF 5
ENDMDL
MODEL 4
REMARK VINA RESULT:      -6.9      2.241      4.390
REMARK  5 active torsions:
REMARK  status: ('A' for Active; 'I' for Inactive)
REMARK    1  A    between atoms: C5_5  and  N1_6 
REMARK    2  A    between atoms: C6_7  and  N2_8 
REMARK    3  A    between atoms: C10_13  and  N4_14 
REMARK    4  A    between atoms: C11_15  and  C12_16 
REMARK    5  A    between atoms: C15_20  and  P1_21 
ROOT
HETATM    1  C1  UNL     1      22.745  -1.148  53.369  1.00  0.00     0.049 C 
HETATM    2  C2  UNL     1      23.846  -0.174  53.416  1.00  0.00    -0.051 A 
HETATM    3  C3  UNL     1      24.903  -0.365  54.313  1.00  0.00     0.010 A 
HETATM    4  C4  UNL     1      25.868   0.615  54.257  1.00  0.00     0.032 A 
HETATM    5  C5  UNL     1      25.963   1.742  53.470  1.00  0.00     0.054 A 
HETATM    6  C6  UNL     1      24.892   1.897  52.591  1.00  0.00     0.077 A 
HETATM    7  C11 UNL     1      23.908   0.940  52.618  1.00  0.00     0.008 A 
ENDROOT
BRANCH   6   8
HETATM    8  N2  UNL     1      24.877   3.023  51.726  1.00  0.00    -0.288 N 
HETATM    9  C7  UNL     1      25.493   2.746  50.542  1.00  0.00     0.216 A 
HETATM   10  N3  UNL     1      25.610   3.660  49.548  1.00  0.00    -0.255 NA
HETATM   11  C8  UNL     1      25.084   4.891  49.762  1.00  0.00     0.122 A 
HETATM   12  C9  UNL     1      24.450   5.212  50.950  1.00  0.00     0.070 A 
HETATM   13  C10 UNL     1      24.364   4.234  51.929  1.00  0.00     0.129 A 
BRANCH  13  14
HETATM   14  N4  UNL     1      23.807   4.378  53.082  1.00  0.00    -0.283 NA
HETATM   15  H11 UNL     1      22.829   3.994  53.183  1.00  0.00     0.188 HD
ENDBRANCH  13  14
ENDBRANCH   6   8
BRANCH   5  16
HETATM   16  N1  UNL     1      27.047   2.636  53.562  1.00  0.00    -0.397 N 
HETATM   17  H6  UNL     1      27.803   2.809  52.866  1.00  0.00     0.156 HD
HETATM   18  H7  UNL     1      27.001   3.148  54.484  1.00  0.00     0.156 HD
ENDBRANCH   5  16
BRANCH   7  19
HETATM   19  C12 UNL     1      22.825   1.132  51.734  1.00  0.00     0.104 A 
HETATM   20  N5  UNL     1      22.065   1.781  52.847  1.00  0.00    -0.265 NA
HETATM   21  C13 UNL     1      20.521   2.374  52.667  1.00  0.00     0.117 A 
HETATM   22  P1  UNL     1      20.812   1.940  51.609  1.00  0.00    -0.053 P 
HETATM   23  C14 UNL     1      18.975   2.699  51.570  1.00  0.00     0.077 A 
HETATM   24  C15 UNL     1      19.864   2.329  51.579  1.00  0.00    -0.038 A 
HETATM   25  H14 UNL     1      21.165   1.793  51.614  1.00  0.00     0.068 HD
ENDBRANCH   7  19
TORSDOF 5
ENDMDL
MODEL 5
REMARK VINA RESULT:      -6.9      2.633      5.389
REMARK  5 active torsions:
REMARK  status: ('A' for Active; 'I' for Inactive)
REMARK    1  A    between atoms: C5_5  and  N1_6 
REMARK    2  A    between atoms: C6_7  and  N2_8 
REMARK    3  A    between atoms: C10_13  and  N4_14 
REMARK    4  A    between atoms: C11_15  and  C12_16 
REMARK    5  A    between atoms: C15_20  and  P1_21 
ROOT
HETATM    1  C1  UNL     1      25.214   0.134  53.132  1.00  0.00     0.049 C 
HETATM    2  C2  UNL     1      23.763  -0.033  53.309  1.00  0.00    -0.051 A 
HETATM    3  C3  UNL     1      23.280  -0.892  54.303  1.00  0.00     0.010 A 
HETATM    4  C4  UNL     1      21.907  -0.958  54.365  1.00  0.00     0.032 A 
HETATM    5  C5  UNL     1      20.939  -0.321  53.620  1.00  0.00     0.054 A 
HETATM    6  C6  UNL     1      21.459   0.526  52.641  1.00  0.00     0.077 A 
HETATM    7  C11 UNL     1      22.826   0.617  52.547  1.00  0.00     0.008 A 
ENDROOT
BRANCH   6   8
HETATM    8  N2  UNL     1      20.559   1.239  51.807  1.00  0.00    -0.288 N 
HETATM    9  C7  UNL     1      20.257   0.529  50.683  1.00  0.00     0.216 A 
HETATM   10  N3  UNL     1      19.417   0.997  49.727  1.00  0.00    -0.255 NA
HETATM   11  C8  UNL     1      18.868   2.221  49.919  1.00  0.00     0.122 A 
HETATM   12  C9  UNL     1      19.149   2.974  51.046  1.00  0.00     0.070 A 
HETATM   13  C10 UNL     1      20.018   2.441  51.987  1.00  0.00     0.129 A 
BRANCH  13  14
HETATM   14  N4  UNL     1      20.377   3.016  53.082  1.00  0.00    -0.283 NA
HETATM   15  H11 UNL     1      19.870   2.715  53.959  1.00  0.00     0.188 HD
ENDBRANCH  13  14
ENDBRANCH   6   8
BRANCH   5  16
HETATM   16  N1  UNL     1      19.563  -0.522  53.841  1.00  0.00    -0.397 N 
HETATM   17  H6  UNL     1      19.068  -1.411  54.066  1.00  0.00     0.156 HD
HETATM   18  H7  UNL     1      19.055   0.399  53.746  1.00  0.00     0.156 HD
ENDBRANCH   5  16
BRANCH   7  19
HETATM   19  C12 UNL     1      23.327   1.463  51.534  1.00  0.00     0.104 A 
HETATM   20  N5  UNL     1      23.310   2.597  52.509  1.00  0.00    -0.265 NA
HETATM   21  C13 UNL     1      23.795   4.140  52.115  1.00  0.00     0.117 A 
HETATM   22  P1  UNL     1      23.936   3.508  51.128  1.00  0.00    -0.053 P 
HETATM   23  C14 UNL     1      24.476   5.398  50.830  1.00  0.00     0.077 A 
HETATM   24  C15 UNL     1      24.217   4.480  50.965  1.00  0.00    -0.038 A 
HETATM   25  H14 UNL     1      23.833   3.145  51.182  1.00  0.00     0.068 HD
ENDBRANCH   7  19
TORSDOF 5
ENDMDL
MODEL 6
REMARK VINA RESULT:      -6.8      2.976      5.058
REMARK  5 active torsions:
REMARK  status: ('A' for Active; 'I' for Inactive)
REMARK    1  A    between atoms: C5_5  and  N1_6 
REMARK    2  A    between atoms: C6_7  and  N2_8 
REMARK    3  A    between atoms: C10_13  and  N4_14 
REMARK    4  A    between atoms: C11_15  and  C12_16 
REMARK    5  A    between atoms: C15_20  and  P1_21 
ROOT
HETATM    1  C1  UNL     1      21.166   0.232  51.081  1.00  0.00     0.049 C 
HETATM    2  C2  UNL     1      22.303   0.924  51.708  1.00  0.00    -0.051 A 
HETATM    3  C3  UNL     1      23.021   0.293  52.730  1.00  0.00     0.010 A 
HETATM    4  C4  UNL     1      24.059   1.045  53.230  1.00  0.00     0.032 A 
HETATM    5  C5  UNL     1      24.505   2.304  52.892  1.00  0.00     0.054 A 
HETATM    6  C6  UNL     1      23.765   2.899  51.871  1.00  0.00     0.077 A 
HETATM    7  C11 UNL     1      22.719   2.180  51.346  1.00  0.00     0.008 A 
ENDROOT
BRANCH   6   8
HETATM    8  N2  UNL     1      24.128   4.200  51.433  1.00  0.00    -0.288 N 
HETATM    9  C7  UNL     1      25.065   4.146  50.444  1.00  0.00     0.216 A 
HETATM   10  N3  UNL     1      25.576   5.258  49.860  1.00  0.00    -0.255 NA
HETATM   11  C8  UNL     1      25.121   6.459  50.292  1.00  0.00     0.122 A 
HETATM   12  C9  UNL     1      24.170   6.557  51.293  1.00  0.00     0.070 A 
HETATM   13  C10 UNL     1      23.687   5.383  51.853  1.00  0.00     0.129 A 
BRANCH  13  14
HETATM   14  N4  UNL     1      22.805   5.309  52.789  1.00  0.00    -0.283 NA
HETATM   15  H11 UNL     1      23.148   5.484  53.772  1.00  0.00     0.188 HD
ENDBRANCH  13  14
ENDBRANCH   6   8
BRANCH   5  16
HETATM   16  N1  UNL     1      25.604   2.912  53.530  1.00  0.00    -0.397 N 
HETATM   17  H6  UNL     1      26.079   2.623  54.410  1.00  0.00     0.156 HD
HETATM   18  H7  UNL     1      25.911   3.754  52.971  1.00  0.00     0.156 HD
ENDBRANCH   5  16
BRANCH   7  19
HETATM   19  C12 UNL     1      21.972   2.814  50.330  1.00  0.00     0.104 A 
HETATM   20  N5  UNL     1      20.994   3.267  51.366  1.00  0.00    -0.265 NA
HETATM   21  C13 UNL     1      19.647   4.176  51.006  1.00  0.00     0.117 A 
HETATM   22  P1  UNL     1      20.188   3.999  49.972  1.00  0.00    -0.053 P 
HETATM   23  C14 UNL     1      18.540   5.082  49.722  1.00  0.00     0.077 A 
HETATM   24  C15 UNL     1      19.340   4.558  49.833  1.00  0.00    -0.038 A 
HETATM   25  H14 UNL     1      20.505   3.791  50.018  1.00  0.00     0.068 HD
ENDBRANCH   7  19
TORSDOF 5
ENDMDL
MODEL 7
REMARK VINA RESULT:      -6.7      2.266      5.707
REMARK  5 active torsions:
REMARK  status: ('A' for Active; 'I' for Inactive)
REMARK    1  A    between atoms: C5_5  and  N1_6 
REMARK    2  A    between atoms: C6_7  and  N2_8 
REMARK    3  A    between atoms: C10_13  and  N4_14 
REMARK    4  A    between atoms: C11_15  and  C12_16 
REMARK    5  A    between atoms: C15_20  and  P1_21 
ROOT
HETATM    1  C1  UNL     1      25.608   3.582  50.537  1.00  0.00     0.049 C 
HETATM    2  C2  UNL     1      24.318   2.896  50.368  1.00  0.00    -0.051 A 
HETATM    3  C3  UNL     1      23.666   2.941  49.130  1.00  0.00     0.010 A 
HETATM    4  C4  UNL     1      22.470   2.259  49.103  1.00  0.00     0.032 A 
HETATM    5  C5  UNL     1      21.817   1.546  50.085  1.00  0.00     0.054 A 
HETATM    6  C6  UNL     1      22.498   1.525  51.302  1.00  0.00     0.077 A 
HETATM    7  C11 UNL     1      23.695   2.195  51.368  1.00  0.00     0.008 A 
ENDROOT
BRANCH   6   8
HETATM    8  N2  UNL     1      21.924   0.820  52.393  1.00  0.00    -0.288 N 
HETATM    9  C7  UNL     1      22.493  -0.409  52.542  1.00  0.00     0.216 A 
HETATM   10  N3  UNL     1      22.116  -1.275  53.514  1.00  0.00    -0.255 NA
HETATM   11  C8  UNL     1      21.134  -0.881  54.360  1.00  0.00     0.122 A 
HETATM   12  C9  UNL     1      20.530   0.360  54.243  1.00  0.00     0.070 A 
HETATM   13  C10 UNL     1      20.959   1.201  53.226  1.00  0.00     0.129 A 
BRANCH  13  14
HETATM   14  N4  UNL     1      20.498   2.380  52.988  1.00  0.00    -0.283 NA
HETATM   15  H11 UNL     1      19.901   2.485  52.123  1.00  0.00     0.188 HD
ENDBRANCH  13  14
ENDBRANCH   6   8
BRANCH   5  16
HETATM   16  N1  UNL     1      20.582   0.908  49.858  1.00  0.00    -0.397 N 
HETATM   17  H6  UNL     1      19.986   0.395  50.541  1.00  0.00     0.156 HD
HETATM   18  H7  UNL     1      20.312   1.020  48.844  1.00  0.00     0.156 HD
ENDBRANCH   5  16
BRANCH   7  19
HETATM   19  C12 UNL     1      24.352   2.177  52.617  1.00  0.00     0.104 A 
HETATM   20  N5  UNL     1      25.267   1.117  52.092  1.00  0.00    -0.265 NA
HETATM   21  C13 UNL     1      26.486   0.439  52.999  1.00  0.00     0.117 A 
HETATM   22  P1  UNL     1      25.971   1.227  53.711  1.00  0.00    -0.053 P 
HETATM   23  C14 UNL     1      27.468   0.315  54.648  1.00  0.00     0.077 A 
HETATM   24  C15 UNL     1      26.740   0.762  54.202  1.00  0.00    -0.038 A 
HETATM   25  H14 UNL     1      25.682   1.404  53.533  1.00  0.00     0.068 HD
ENDBRANCH   7  19
TORSDOF 5
ENDMDL
MODEL 8
REMARK VINA RESULT:      -6.6      3.028      4.987
REMARK  5 active torsions:
REMARK  status: ('A' for Active; 'I' for Inactive)
REMARK    1  A    between atoms: C5_5  and  N1_6 
REMARK    2  A    between atoms: C6_7  and  N2_8 
REMARK    3  A    between atoms: C10_13  and  N4_14 
REMARK    4  A    between atoms: C11_15  and  C12_16 
REMARK    5  A    between atoms: C15_20  and  P1_21 
ROOT
HETATM    1  C1  UNL     1      20.755   0.707  50.692  1.00  0.00     0.049 C 
HETATM    2  C2  UNL     1      21.982   1.229  51.315  1.00  0.00    -0.051 A 
HETATM    3  C3  UNL     1      22.601   0.504  52.340  1.00  0.00     0.010 A 
HETATM    4  C4  UNL     1      23.739   1.099  52.836  1.00  0.00     0.032 A 
HETATM    5  C5  UNL     1      24.364   2.278  52.491  1.00  0.00     0.054 A 
HETATM    6  C6  UNL     1      23.716   2.970  51.467  1.00  0.00     0.077 A 
HETATM    7  C11 UNL     1      22.577   2.409  50.947  1.00  0.00     0.008 A 
ENDROOT
BRANCH   6   8
HETATM    8  N2  UNL     1      24.266   4.202  51.023  1.00  0.00    -0.288 N 
HETATM    9  C7  UNL     1      23.702   5.259  51.674  1.00  0.00     0.216 A 
HETATM   10  N3  UNL     1      24.057   6.543  51.426  1.00  0.00    -0.255 NA
HETATM   11  C8  UNL     1      25.013   6.760  50.491  1.00  0.00     0.122 A 
HETATM   12  C9  UNL     1      25.610   5.715  49.807  1.00  0.00     0.070 A 
HETATM   13  C10 UNL     1      25.203   4.423  50.105  1.00  0.00     0.129 A 
BRANCH  13  14
HETATM   14  N4  UNL     1      25.661   3.350  49.557  1.00  0.00    -0.283 NA
HETATM   15  H11 UNL     1      26.648   3.076  49.815  1.00  0.00     0.188 HD
ENDBRANCH  13  14
ENDBRANCH   6   8
BRANCH   5  16
HETATM   16  N1  UNL     1      25.540   2.722  53.125  1.00  0.00    -0.397 N 
HETATM   17  H6  UNL     1      26.377   3.168  52.694  1.00  0.00     0.156 HD
HETATM   18  H7  UNL     1      25.469   2.537  54.162  1.00  0.00     0.156 HD
ENDBRANCH   5  16
BRANCH   7  19
HETATM   19  C12 UNL     1      21.929   3.139  49.928  1.00  0.00     0.104 A 
HETATM   20  N5  UNL     1      22.722   2.379  48.913  1.00  0.00    -0.265 NA
HETATM   21  C13 UNL     1      22.576   2.628  47.274  1.00  0.00     0.117 A 
HETATM   22  P1  UNL     1      21.817   3.383  47.772  1.00  0.00    -0.053 P 
HETATM   23  C14 UNL     1      21.770   3.549  45.792  1.00  0.00     0.077 A 
HETATM   24  C15 UNL     1      21.785   3.476  46.752  1.00  0.00    -0.038 A 
HETATM   25  H14 UNL     1      21.825   3.353  48.153  1.00  0.00     0.068 HD
ENDBRANCH   7  19
TORSDOF 5
ENDMDL
MODEL 9
REMARK VINA RESULT:      -6.6      5.622      8.446
REMARK  5 active torsions:
REMARK  status: ('A' for Active; 'I' for Inactive)
REMARK    1  A    between atoms: C5_5  and  N1_6 
REMARK    2  A    between atoms: C6_7  and  N2_8 
REMARK    3  A    between atoms: C10_13  and  N4_14 
REMARK    4  A    between atoms: C11_15  and  C12_16 
REMARK    5  A    between atoms: C15_20  and  P1_21 
ROOT
HETATM    1  C1  UNL     1      28.259   5.142  48.422  1.00  0.00     0.049 C 
HETATM    2  C2  UNL     1      26.915   4.883  48.961  1.00  0.00    -0.051 A 
HETATM    3  C3  UNL     1      26.636   3.651  49.565  1.00  0.00     0.010 A 
HETATM    4  C4  UNL     1      25.345   3.536  50.028  1.00  0.00     0.032 A 
HETATM    5  C5  UNL     1      24.293   4.426  49.996  1.00  0.00     0.054 A 
HETATM    6  C6  UNL     1      24.611   5.639  49.387  1.00  0.00     0.077 A 
HETATM    7  C11 UNL     1      25.889   5.792  48.911  1.00  0.00     0.008 A 
ENDROOT
BRANCH   6   8
HETATM    8  N2  UNL     1      23.607   6.639  49.294  1.00  0.00    -0.288 N 
HETATM    9  C7  UNL     1      22.911   6.535  48.126  1.00  0.00     0.216 A 
HETATM   10  N3  UNL     1      21.900   7.377  47.801  1.00  0.00    -0.255 NA
HETATM   11  C8  UNL     1      21.586   8.353  48.687  1.00  0.00     0.122 A 
HETATM   12  C9  UNL     1      22.268   8.493  49.884  1.00  0.00     0.070 A 
HETATM   13  C10 UNL     1      23.294   7.601  50.158  1.00  0.00     0.129 A 
BRANCH  13  14
HETATM   14  N4  UNL     1      24.019   7.601  51.223  1.00  0.00    -0.283 NA
HETATM   15  H11 UNL     1      24.551   8.490  51.429  1.00  0.00     0.188 HD
ENDBRANCH  13  14
ENDBRANCH   6   8
BRANCH   5  16
HETATM   16  N1  UNL     1      23.028   4.117  50.533  1.00  0.00    -0.397 N 
HETATM   17  H6  UNL     1      22.163   4.699  50.523  1.00  0.00     0.156 HD
HETATM   18  H7  UNL     1      23.060   3.160  50.977  1.00  0.00     0.156 HD
ENDBRANCH   5  16
BRANCH   7  19
HETATM   19  C12 UNL     1      26.178   7.021  48.279  1.00  0.00     0.104 A 
HETATM   20  N5  UNL     1      26.730   7.528  49.574  1.00  0.00    -0.265 NA
HETATM   21  C13 UNL     1      27.358   9.058  49.755  1.00  0.00     0.117 A 
HETATM   22  P1  UNL     1      27.021   8.993  48.626  1.00  0.00    -0.053 P 
HETATM   23  C14 UNL     1      27.805  10.777  49.018  1.00  0.00     0.077 A 
HETATM   24  C15 UNL     1      27.423   9.915  48.818  1.00  0.00    -0.038 A 
HETATM   25  H14 UNL     1      26.869   8.651  48.548  1.00  0.00     0.068 HD
ENDBRANCH   7  19
TORSDOF 5
ENDMDL
