MODEL 1
REMARK VINA RESULT:      -8.2      0.000      0.000
REMARK  2 active torsions:
REMARK  status: ('A' for Active; 'I' for Inactive)
REMARK    1  A    between atoms: C7_7  and  N1_8 
REMARK    2  A    between atoms: N1_8  and  C8_9 
ROOT
HETATM    1  C1  UNL     1      28.222   7.978  47.491  1.00  0.00     0.018 C 
HETATM    2  C2  UNL     1      27.416   7.198  47.933  1.00  0.00    -0.078 C 
HETATM    3  C3  UNL     1      26.450   6.269  48.441  1.00  0.00     0.019 A 
HETATM    4  C4  UNL     1      25.113   6.596  48.396  1.00  0.00     0.021 A 
HETATM    5  C5  UNL     1      24.208   5.683  48.890  1.00  0.00     0.004 A 
HETATM    6  C6  UNL     1      24.674   4.497  49.400  1.00  0.00     0.029 A 
HETATM    7  C7  UNL     1      25.985   4.116  49.473  1.00  0.00     0.035 A 
HETATM    8  C17 UNL     1      26.852   5.061  48.967  1.00  0.00     0.050 A 
ENDROOT
BRANCH   7   9
HETATM    9  N1  UNL     1      26.567   2.936  49.979  1.00  0.00    -0.340 N 
HETATM   10  H5  UNL     1      27.045   2.255  49.367  1.00  0.00     0.167 HD
BRANCH   9  11
HETATM   11  C8  UNL     1      26.573   2.542  51.333  1.00  0.00     0.138 C 
HETATM   12  N2  UNL     1      27.666   2.488  52.006  1.00  0.00    -0.224 NA
HETATM   13  C9  UNL     1      27.716   2.110  53.372  1.00  0.00     0.230 C 
HETATM   14  N3  UNL     1      26.666   1.799  54.088  1.00  0.00    -0.268 NA
HETATM   15  C10 UNL     1      25.352   1.839  53.501  1.00  0.00     0.177 C 
HETATM   16  C11 UNL     1      25.402   2.036  52.033  1.00  0.00     0.014 C 
HETATM   17  C16 UNL     1      24.556   0.618  53.606  1.00  0.00    -0.019 C 
HETATM   18  C12 UNL     1      24.193   1.646  51.593  1.00  0.00    -0.002 C 
HETATM   19  C13 UNL     1      23.417   1.219  52.803  1.00  0.00     0.066 C 
HETATM   20  C14 UNL     1      22.507   0.052  52.533  1.00  0.00     0.187 C 
HETATM   21  O1  UNL     1      22.995  -0.897  53.453  1.00  0.00    -0.362 OA
HETATM   22  C15 UNL     1      24.231  -0.611  53.947  1.00  0.00     0.140 C 
ENDBRANCH   9  11
ENDBRANCH   7   9
TORSDOF 2
ENDMDL
MODEL 2
REMARK VINA RESULT:      -8.2      4.324      6.120
REMARK  2 active torsions:
REMARK  status: ('A' for Active; 'I' for Inactive)
REMARK    1  A    between atoms: C7_7  and  N1_8 
REMARK    2  A    between atoms: N1_8  and  C8_9 
ROOT
HETATM    1  C1  UNL     1      29.815  -2.148  53.444  1.00  0.00     0.018 C 
HETATM    2  C2  UNL     1      29.085  -1.190  53.397  1.00  0.00    -0.078 C 
HETATM    3  C3  UNL     1      28.227  -0.043  53.327  1.00  0.00     0.019 A 
HETATM    4  C4  UNL     1      28.744   1.202  53.607  1.00  0.00     0.021 A 
HETATM    5  C5  UNL     1      27.896   2.285  53.529  1.00  0.00     0.004 A 
HETATM    6  C6  UNL     1      26.586   2.078  53.180  1.00  0.00     0.029 A 
HETATM    7  C7  UNL     1      26.014   0.869  52.892  1.00  0.00     0.035 A 
HETATM    8  C17 UNL     1      26.901  -0.183  52.982  1.00  0.00     0.050 A 
ENDROOT
BRANCH   7   9
HETATM    9  N1  UNL     1      24.690   0.546  52.534  1.00  0.00    -0.340 N 
HETATM   10  H5  UNL     1      24.349   0.636  51.563  1.00  0.00     0.167 HD
BRANCH   9  11
HETATM   11  C8  UNL     1      23.693   0.080  53.415  1.00  0.00     0.138 C 
HETATM   12  N2  UNL     1      23.945  -0.834  54.281  1.00  0.00    -0.224 NA
HETATM   13  C9  UNL     1      22.978  -1.322  55.195  1.00  0.00     0.230 C 
HETATM   14  N3  UNL     1      21.745  -0.886  55.266  1.00  0.00    -0.268 NA
HETATM   15  C10 UNL     1      21.300   0.165  54.389  1.00  0.00     0.177 C 
HETATM   16  C11 UNL     1      22.294   0.473  53.334  1.00  0.00     0.014 C 
HETATM   17  C16 UNL     1      20.106  -0.115  53.593  1.00  0.00    -0.019 C 
HETATM   18  C12 UNL     1      21.601   1.134  52.390  1.00  0.00    -0.002 C 
HETATM   19  C13 UNL     1      20.189   1.225  52.885  1.00  0.00     0.066 C 
HETATM   20  C14 UNL     1      19.173   1.117  51.781  1.00  0.00     0.187 C 
HETATM   21  O1  UNL     1      18.438  -0.012  52.193  1.00  0.00    -0.362 OA
HETATM   22  C15 UNL     1      19.061  -0.771  53.135  1.00  0.00     0.140 C 
ENDBRANCH   9  11
ENDBRANCH   7   9
TORSDOF 2
ENDMDL
MODEL 3
REMARK VINA RESULT:      -8.2      2.146      2.758
REMARK  2 active torsions:
REMARK  status: ('A' for Active; 'I' for Inactive)
REMARK    1  A    between atoms: C7_7  and  N1_8 
REMARK    2  A    between atoms: N1_8  and  C8_9 
ROOT
HETATM    1  C1  UNL     1      30.690   5.479  47.801  1.00  0.00     0.018 C 
HETATM    2  C2  UNL     1      29.526   5.507  48.111  1.00  0.00    -0.078 C 
HETATM    3  C3  UNL     1      28.137   5.545  48.462  1.00  0.00     0.019 A 
HETATM    4  C4  UNL     1      27.460   6.743  48.403  1.00  0.00     0.021 A 
HETATM    5  C5  UNL     1      26.125   6.748  48.744  1.00  0.00     0.004 A 
HETATM    6  C6  UNL     1      25.534   5.570  49.125  1.00  0.00     0.029 A 
HETATM    7  C7  UNL     1      26.151   4.352  49.204  1.00  0.00     0.035 A 
HETATM    8  C17 UNL     1      27.483   4.397  48.853  1.00  0.00     0.050 A 
ENDROOT
BRANCH   7   9
HETATM    9  N1  UNL     1      25.644   3.094  49.586  1.00  0.00    -0.340 N 
HETATM   10  H5  UNL     1      25.610   2.295  48.932  1.00  0.00     0.167 HD
BRANCH   9  11
HETATM   11  C8  UNL     1      25.132   2.769  50.860  1.00  0.00     0.138 C 
HETATM   12  N2  UNL     1      24.347   3.570  51.486  1.00  0.00    -0.224 NA
HETATM   13  C9  UNL     1      23.799   3.278  52.760  1.00  0.00     0.230 C 
HETATM   14  N3  UNL     1      24.016   2.167  53.418  1.00  0.00    -0.268 NA
HETATM   15  C10 UNL     1      24.847   1.140  52.847  1.00  0.00     0.177 C 
HETATM   16  C11 UNL     1      25.544   1.601  51.623  1.00  0.00     0.014 C 
HETATM   17  C16 UNL     1      25.967   0.681  53.666  1.00  0.00    -0.019 C 
HETATM   18  C12 UNL     1      26.555   0.730  51.454  1.00  0.00    -0.002 C 
HETATM   19  C13 UNL     1      26.458  -0.257  52.578  1.00  0.00     0.066 C 
HETATM   20  C14 UNL     1      27.803  -0.715  53.073  1.00  0.00     0.187 C 
HETATM   21  O1  UNL     1      27.747  -0.323  54.425  1.00  0.00    -0.362 OA
HETATM   22  C15 UNL     1      26.770   0.580  54.705  1.00  0.00     0.140 C 
ENDBRANCH   9  11
ENDBRANCH   7   9
TORSDOF 2
ENDMDL
MODEL 4
REMARK VINA RESULT:      -8.0      3.268      5.853
REMARK  2 active torsions:
REMARK  status: ('A' for Active; 'I' for Inactive)
REMARK    1  A    between atoms: C7_7  and  N1_8 
REMARK    2  A    between atoms: N1_8  and  C8_9 
ROOT
HETATM    1  C1  UNL     1      28.369  -2.755  52.997  1.00  0.00     0.018 C 
HETATM    2  C2  UNL     1      28.336  -1.567  53.200  1.00  0.00    -0.078 C 
HETATM    3  C3  UNL     1      28.307  -0.152  53.423  1.00  0.00     0.019 A 
HETATM    4  C4  UNL     1      29.491   0.524  53.618  1.00  0.00     0.021 A 
HETATM    5  C5  UNL     1      29.431   1.884  53.829  1.00  0.00     0.004 A 
HETATM    6  C6  UNL     1      28.206   2.501  53.835  1.00  0.00     0.029 A 
HETATM    7  C7  UNL     1      26.998   1.887  53.649  1.00  0.00     0.035 A 
HETATM    8  C17 UNL     1      27.109   0.528  53.442  1.00  0.00     0.050 A 
ENDROOT
BRANCH   7   9
HETATM    9  N1  UNL     1      25.693   2.419  53.644  1.00  0.00    -0.340 N 
HETATM   10  H5  UNL     1      25.345   3.022  54.407  1.00  0.00     0.167 HD
BRANCH   9  11
HETATM   11  C8  UNL     1      24.726   2.207  52.640  1.00  0.00     0.138 C 
HETATM   12  N2  UNL     1      24.535   3.067  51.706  1.00  0.00    -0.224 NA
HETATM   13  C9  UNL     1      23.584   2.889  50.670  1.00  0.00     0.230 C 
HETATM   14  N3  UNL     1      22.822   1.831  50.545  1.00  0.00    -0.268 NA
HETATM   15  C10 UNL     1      22.927   0.749  51.489  1.00  0.00     0.177 C 
HETATM   16  C11 UNL     1      23.783   1.098  52.647  1.00  0.00     0.014 C 
HETATM   17  C16 UNL     1      21.690   0.341  52.150  1.00  0.00    -0.019 C 
HETATM   18  C12 UNL     1      23.460   0.201  53.596  1.00  0.00    -0.002 C 
HETATM   19  C13 UNL     1      22.411  -0.689  53.000  1.00  0.00     0.066 C 
HETATM   20  C14 UNL     1      21.376  -1.126  54.000  1.00  0.00     0.187 C 
HETATM   21  O1  UNL     1      20.197  -0.624  53.413  1.00  0.00    -0.362 OA
HETATM   22  C15 UNL     1      20.408   0.314  52.451  1.00  0.00     0.140 C 
ENDBRANCH   9  11
ENDBRANCH   7   9
TORSDOF 2
ENDMDL
MODEL 5
REMARK VINA RESULT:      -7.9      0.675      1.910
REMARK  2 active torsions:
REMARK  status: ('A' for Active; 'I' for Inactive)
REMARK    1  A    between atoms: C7_7  and  N1_8 
REMARK    2  A    between atoms: N1_8  and  C8_9 
ROOT
HETATM    1  C1  UNL     1      22.440   6.619  48.077  1.00  0.00     0.018 C 
HETATM    2  C2  UNL     1      23.573   6.259  48.272  1.00  0.00    -0.078 C 
HETATM    3  C3  UNL     1      24.923   5.844  48.517  1.00  0.00     0.019 A 
HETATM    4  C4  UNL     1      25.957   6.701  48.209  1.00  0.00     0.021 A 
HETATM    5  C5  UNL     1      27.243   6.276  48.457  1.00  0.00     0.004 A 
HETATM    6  C6  UNL     1      27.437   5.028  48.994  1.00  0.00     0.029 A 
HETATM    7  C7  UNL     1      26.455   4.134  49.320  1.00  0.00     0.035 A 
HETATM    8  C17 UNL     1      25.187   4.603  49.055  1.00  0.00     0.050 A 
ENDROOT
BRANCH   7   9
HETATM    9  N1  UNL     1      26.544   2.837  49.864  1.00  0.00    -0.340 N 
HETATM   10  H5  UNL     1      26.678   2.002  49.270  1.00  0.00     0.167 HD
BRANCH   9  11
HETATM   11  C8  UNL     1      26.464   2.516  51.235  1.00  0.00     0.138 C 
HETATM   12  N2  UNL     1      27.511   2.503  51.978  1.00  0.00    -0.224 NA
HETATM   13  C9  UNL     1      27.474   2.201  53.363  1.00  0.00     0.230 C 
HETATM   14  N3  UNL     1      26.380   1.925  54.027  1.00  0.00    -0.268 NA
HETATM   15  C10 UNL     1      25.107   1.928  53.356  1.00  0.00     0.177 C 
HETATM   16  C11 UNL     1      25.250   2.046  51.885  1.00  0.00     0.014 C 
HETATM   17  C16 UNL     1      24.305   0.712  53.476  1.00  0.00    -0.019 C 
HETATM   18  C12 UNL     1      24.072   1.627  51.391  1.00  0.00    -0.002 C 
HETATM   19  C13 UNL     1      23.220   1.264  52.570  1.00  0.00     0.066 C 
HETATM   20  C14 UNL     1      22.329   0.081  52.307  1.00  0.00     0.187 C 
HETATM   21  O1  UNL     1      22.758  -0.814  53.306  1.00  0.00    -0.362 OA
HETATM   22  C15 UNL     1      23.959  -0.498  53.862  1.00  0.00     0.140 C 
ENDBRANCH   9  11
ENDBRANCH   7   9
TORSDOF 2
ENDMDL
MODEL 6
REMARK VINA RESULT:      -7.8      2.549      3.589
REMARK  2 active torsions:
REMARK  status: ('A' for Active; 'I' for Inactive)
REMARK    1  A    between atoms: C7_7  and  N1_8 
REMARK    2  A    between atoms: N1_8  and  C8_9 
ROOT
HETATM    1  C1  UNL     1      25.965   7.573  47.793  1.00  0.00     0.018 C 
HETATM    2  C2  UNL     1      25.920   6.565  48.452  1.00  0.00    -0.078 C 
HETATM    3  C3  UNL     1      25.884   5.369  49.242  1.00  0.00     0.019 A 
HETATM    4  C4  UNL     1      26.721   4.324  48.920  1.00  0.00     0.021 A 
HETATM    5  C5  UNL     1      26.666   3.188  49.698  1.00  0.00     0.004 A 
HETATM    6  C6  UNL     1      25.786   3.148  50.750  1.00  0.00     0.029 A 
HETATM    7  C7  UNL     1      24.931   4.150  51.119  1.00  0.00     0.035 A 
HETATM    8  C17 UNL     1      25.023   5.264  50.313  1.00  0.00     0.050 A 
ENDROOT
BRANCH   7   9
HETATM    9  N1  UNL     1      23.991   4.209  52.167  1.00  0.00    -0.340 N 
HETATM   10  H5  UNL     1      24.132   4.810  52.996  1.00  0.00     0.167 HD
BRANCH   9  11
HETATM   11  C8  UNL     1      22.783   3.484  52.226  1.00  0.00     0.138 C 
HETATM   12  N2  UNL     1      21.648   4.070  52.092  1.00  0.00    -0.224 NA
HETATM   13  C9  UNL     1      20.410   3.379  52.131  1.00  0.00     0.230 C 
HETATM   14  N3  UNL     1      20.295   2.084  52.286  1.00  0.00    -0.268 NA
HETATM   15  C10 UNL     1      21.471   1.264  52.417  1.00  0.00     0.177 C 
HETATM   16  C11 UNL     1      22.702   2.074  52.576  1.00  0.00     0.014 C 
HETATM   17  C16 UNL     1      21.533   0.402  53.595  1.00  0.00    -0.019 C 
HETATM   18  C12 UNL     1      23.609   1.223  53.088  1.00  0.00    -0.002 C 
HETATM   19  C13 UNL     1      22.919  -0.100  53.230  1.00  0.00     0.066 C 
HETATM   20  C14 UNL     1      23.361  -0.864  54.448  1.00  0.00     0.187 C 
HETATM   21  O1  UNL     1      22.142  -1.014  55.138  1.00  0.00    -0.362 OA
HETATM   22  C15 UNL     1      21.154  -0.179  54.714  1.00  0.00     0.140 C 
ENDBRANCH   9  11
ENDBRANCH   7   9
TORSDOF 2
ENDMDL
MODEL 7
REMARK VINA RESULT:      -7.7      2.599      3.806
REMARK  2 active torsions:
REMARK  status: ('A' for Active; 'I' for Inactive)
REMARK    1  A    between atoms: C7_7  and  N1_8 
REMARK    2  A    between atoms: N1_8  and  C8_9 
ROOT
HETATM    1  C1  UNL     1      26.848   5.243  48.948  1.00  0.00     0.018 C 
HETATM    2  C2  UNL     1      25.854   5.001  49.584  1.00  0.00    -0.078 C 
HETATM    3  C3  UNL     1      24.660   4.721  50.327  1.00  0.00     0.019 A 
HETATM    4  C4  UNL     1      23.982   5.760  50.927  1.00  0.00     0.021 A 
HETATM    5  C5  UNL     1      22.838   5.461  51.633  1.00  0.00     0.004 A 
HETATM    6  C6  UNL     1      22.426   4.154  51.707  1.00  0.00     0.029 A 
HETATM    7  C7  UNL     1      23.054   3.082  51.135  1.00  0.00     0.035 A 
HETATM    8  C17 UNL     1      24.192   3.430  50.440  1.00  0.00     0.050 A 
ENDROOT
BRANCH   7   9
HETATM    9  N1  UNL     1      22.724   1.712  51.154  1.00  0.00    -0.340 N 
HETATM   10  H5  UNL     1      22.378   1.220  50.314  1.00  0.00     0.167 HD
BRANCH   9  11
HETATM   11  C8  UNL     1      22.814   0.864  52.277  1.00  0.00     0.138 C 
HETATM   12  N2  UNL     1      21.819   0.706  53.074  1.00  0.00    -0.224 NA
HETATM   13  C9  UNL     1      21.860  -0.146  54.206  1.00  0.00     0.230 C 
HETATM   14  N3  UNL     1      22.898  -0.870  54.544  1.00  0.00    -0.268 NA
HETATM   15  C10 UNL     1      24.092  -0.842  53.740  1.00  0.00     0.177 C 
HETATM   16  C11 UNL     1      24.046   0.219  52.707  1.00  0.00     0.014 C 
HETATM   17  C16 UNL     1      25.336  -0.520  54.436  1.00  0.00    -0.019 C 
HETATM   18  C12 UNL     1      25.326   0.396  52.338  1.00  0.00    -0.002 C 
HETATM   19  C13 UNL     1      26.140  -0.567  53.149  1.00  0.00     0.066 C 
HETATM   20  C14 UNL     1      27.484  -0.015  53.539  1.00  0.00     0.187 C 
HETATM   21  O1  UNL     1      27.409  -0.076  54.945  1.00  0.00    -0.362 OA
HETATM   22  C15 UNL     1      26.148  -0.230  55.431  1.00  0.00     0.140 C 
ENDBRANCH   9  11
ENDBRANCH   7   9
TORSDOF 2
ENDMDL
MODEL 8
REMARK VINA RESULT:      -7.5      3.289      6.607
REMARK  2 active torsions:
REMARK  status: ('A' for Active; 'I' for Inactive)
REMARK    1  A    between atoms: C7_7  and  N1_8 
REMARK    2  A    between atoms: N1_8  and  C8_9 
ROOT
HETATM    1  C1  UNL     1      22.246  -1.082  54.546  1.00  0.00     0.018 C 
HETATM    2  C2  UNL     1      23.209  -0.585  54.019  1.00  0.00    -0.078 C 
HETATM    3  C3  UNL     1      24.351  -0.003  53.377  1.00  0.00     0.019 A 
HETATM    4  C4  UNL     1      25.444  -0.795  53.101  1.00  0.00     0.021 A 
HETATM    5  C5  UNL     1      26.526  -0.209  52.482  1.00  0.00     0.004 A 
HETATM    6  C6  UNL     1      26.467   1.126  52.169  1.00  0.00     0.029 A 
HETATM    7  C7  UNL     1      25.414   1.962  52.415  1.00  0.00     0.035 A 
HETATM    8  C17 UNL     1      24.356   1.332  53.035  1.00  0.00     0.050 A 
ENDROOT
BRANCH   7   9
HETATM    9  N1  UNL     1      25.255   3.336  52.144  1.00  0.00    -0.340 N 
HETATM   10  H5  UNL     1      26.037   4.006  52.231  1.00  0.00     0.167 HD
BRANCH   9  11
HETATM   11  C8  UNL     1      24.056   3.957  51.738  1.00  0.00     0.138 C 
HETATM   12  N2  UNL     1      23.338   4.626  52.567  1.00  0.00    -0.224 NA
HETATM   13  C9  UNL     1      22.134   5.278  52.198  1.00  0.00     0.230 C 
HETATM   14  N3  UNL     1      21.642   5.284  50.985  1.00  0.00    -0.268 NA
HETATM   15  C10 UNL     1      22.338   4.611  49.920  1.00  0.00     0.177 C 
HETATM   16  C11 UNL     1      23.463   3.787  50.419  1.00  0.00     0.014 C 
HETATM   17  C16 UNL     1      21.568   3.627  49.161  1.00  0.00    -0.019 C 
HETATM   18  C12 UNL     1      23.734   2.931  49.418  1.00  0.00    -0.002 C 
HETATM   19  C13 UNL     1      22.770   3.248  48.315  1.00  0.00     0.066 C 
HETATM   20  C14 UNL     1      22.316   2.027  47.564  1.00  0.00     0.187 C 
HETATM   21  O1  UNL     1      20.923   2.082  47.765  1.00  0.00    -0.362 OA
HETATM   22  C15 UNL     1      20.536   2.905  48.777  1.00  0.00     0.140 C 
ENDBRANCH   9  11
ENDBRANCH   7   9
TORSDOF 2
ENDMDL
MODEL 9
REMARK VINA RESULT:      -7.5      4.347      6.379
REMARK  2 active torsions:
REMARK  status: ('A' for Active; 'I' for Inactive)
REMARK    1  A    between atoms: C7_7  and  N1_8 
REMARK    2  A    between atoms: N1_8  and  C8_9 
ROOT
HETATM    1  C1  UNL     1      29.825  -1.555  53.407  1.00  0.00     0.018 C 
HETATM    2  C2  UNL     1      28.864  -0.829  53.453  1.00  0.00    -0.078 C 
HETATM    3  C3  UNL     1      27.726   0.041  53.491  1.00  0.00     0.019 A 
HETATM    4  C4  UNL     1      27.921   1.402  53.570  1.00  0.00     0.021 A 
HETATM    5  C5  UNL     1      26.808   2.214  53.604  1.00  0.00     0.004 A 
HETATM    6  C6  UNL     1      25.565   1.636  53.557  1.00  0.00     0.029 A 
HETATM    7  C7  UNL     1      25.306   0.295  53.479  1.00  0.00     0.035 A 
HETATM    8  C17 UNL     1      26.449  -0.475  53.448  1.00  0.00     0.050 A 
ENDROOT
BRANCH   7   9
HETATM    9  N1  UNL     1      24.080  -0.398  53.433  1.00  0.00    -0.340 N 
HETATM   10  H5  UNL     1      24.030  -1.428  53.501  1.00  0.00     0.167 HD
BRANCH   9  11
HETATM   11  C8  UNL     1      22.809   0.195  53.291  1.00  0.00     0.138 C 
HETATM   12  N2  UNL     1      21.861  -0.054  54.122  1.00  0.00    -0.224 NA
HETATM   13  C9  UNL     1      20.573   0.530  54.026  1.00  0.00     0.230 C 
HETATM   14  N3  UNL     1      20.222   1.389  53.102  1.00  0.00    -0.268 NA
HETATM   15  C10 UNL     1      21.173   1.809  52.107  1.00  0.00     0.177 C 
HETATM   16  C11 UNL     1      22.418   1.006  52.148  1.00  0.00     0.014 C 
HETATM   17  C16 UNL     1      20.766   1.649  50.712  1.00  0.00    -0.019 C 
HETATM   18  C12 UNL     1      23.001   1.215  50.955  1.00  0.00    -0.002 C 
HETATM   19  C13 UNL     1      22.105   2.150  50.200  1.00  0.00     0.066 C 
HETATM   20  C14 UNL     1      22.063   1.859  48.725  1.00  0.00     0.187 C 
HETATM   21  O1  UNL     1      20.690   1.606  48.534  1.00  0.00    -0.362 OA
HETATM   22  C15 UNL     1      20.002   1.356  49.681  1.00  0.00     0.140 C 
ENDBRANCH   9  11
ENDBRANCH   7   9
TORSDOF 2
ENDMDL
