MODEL 1
REMARK VINA RESULT:      -7.2      0.000      0.000
REMARK  7 active torsions:
REMARK  status: ('A' for Active; 'I' for Inactive)
REMARK    1  A    between atoms: C3_3  and  C5_5 
REMARK    2  A    between atoms: C6_6  and  C7_7 
REMARK    3  A    between atoms: C6_6  and  O3_23 
REMARK    4  A    between atoms: C7_7  and  N1_8 
REMARK    5  A    between atoms: N1_8  and  C8_9 
REMARK    6  A    between atoms: C12_15  and  O1_16 
REMARK    7  A    between atoms: C14_18  and  O2_19 
ROOT
HETATM    1  C8  UNL     1      24.152   2.332  52.949  1.00  0.00     0.138 A 
HETATM    2  N2  UNL     1      22.932   1.778  52.970  1.00  0.00    -0.224 NA
HETATM    3  C9  UNL     1      22.685   0.479  53.171  1.00  0.00     0.235 A 
HETATM    4  N3  UNL     1      23.687  -0.396  53.374  1.00  0.00    -0.241 NA
HETATM    5  C10 UNL     1      24.931   0.087  53.367  1.00  0.00     0.075 A 
HETATM    6  C11 UNL     1      25.939  -0.826  53.577  1.00  0.00     0.072 A 
HETATM    7  C12 UNL     1      27.254  -0.438  53.589  1.00  0.00     0.103 A 
HETATM    8  C14 UNL     1      27.534   0.897  53.384  1.00  0.00     0.102 A 
HETATM    9  C16 UNL     1      26.491   1.782  53.177  1.00  0.00     0.057 A 
HETATM   10  C17 UNL     1      25.170   1.429  53.158  1.00  0.00     0.041 A 
ENDROOT
BRANCH   1  11
HETATM   11  N1  UNL     1      24.414   3.694  52.726  1.00  0.00    -0.368 N 
HETATM   12  H11 UNL     1      25.275   4.143  53.097  1.00  0.00     0.161 HD
BRANCH  11  13
HETATM   13  C7  UNL     1      23.608   4.652  52.004  1.00  0.00     0.185 C 
BRANCH  13  14
HETATM   14  C6  UNL     1      23.372   4.305  50.583  1.00  0.00     0.064 C 
HETATM   15  C5  UNL     1      24.160   4.113  49.511  1.00  0.00     0.040 C 
BRANCH  15  16
HETATM   16  C3  UNL     1      25.603   4.176  49.340  1.00  0.00    -0.064 C 
HETATM   17  C2  UNL     1      26.136   5.281  48.837  1.00  0.00    -0.024 C 
HETATM   18  C1  UNL     1      27.604   5.367  48.658  1.00  0.00     0.036 C 
HETATM   19  C4  UNL     1      26.549   3.100  49.686  1.00  0.00     0.048 C 
ENDBRANCH  15  16
BRANCH  14  20
HETATM   20  O3  UNL     1      21.984   4.162  50.390  1.00  0.00    -0.359 OA
HETATM   21  C18 UNL     1      21.054   4.572  51.374  1.00  0.00     0.209 C 
ENDBRANCH  14  20
ENDBRANCH  13  14
ENDBRANCH  11  13
ENDBRANCH   1  11
BRANCH   8  22
HETATM   22  O2  UNL     1      28.845   1.279  53.398  1.00  0.00    -0.353 OA
HETATM   23  C15 UNL     1      29.471   1.922  54.494  1.00  0.00     0.210 C 
ENDBRANCH   8  22
BRANCH   7  24
HETATM   24  O1  UNL     1      28.289  -1.336  53.799  1.00  0.00    -0.353 OA
HETATM   25  C13 UNL     1      28.574  -2.411  52.950  1.00  0.00     0.210 C 
ENDBRANCH   7  24
TORSDOF 7
ENDMDL
MODEL 2
REMARK VINA RESULT:      -7.1      2.817      4.841
REMARK  7 active torsions:
REMARK  status: ('A' for Active; 'I' for Inactive)
REMARK    1  A    between atoms: C3_3  and  C5_5 
REMARK    2  A    between atoms: C6_6  and  C7_7 
REMARK    3  A    between atoms: C6_6  and  O3_23 
REMARK    4  A    between atoms: C7_7  and  N1_8 
REMARK    5  A    between atoms: N1_8  and  C8_9 
REMARK    6  A    between atoms: C12_15  and  O1_16 
REMARK    7  A    between atoms: C14_18  and  O2_19 
ROOT
HETATM    1  C8  UNL     1      26.622   2.491  51.791  1.00  0.00     0.138 A 
HETATM    2  N2  UNL     1      27.805   2.188  52.341  1.00  0.00    -0.224 NA
HETATM    3  C9  UNL     1      28.012   1.195  53.214  1.00  0.00     0.235 A 
HETATM    4  N3  UNL     1      27.003   0.402  53.615  1.00  0.00    -0.241 NA
HETATM    5  C10 UNL     1      25.793   0.646  53.106  1.00  0.00     0.075 A 
HETATM    6  C11 UNL     1      24.778  -0.180  53.530  1.00  0.00     0.072 A 
HETATM    7  C12 UNL     1      23.495  -0.018  53.071  1.00  0.00     0.103 A 
HETATM    8  C14 UNL     1      23.258   1.000  52.171  1.00  0.00     0.102 A 
HETATM    9  C16 UNL     1      24.307   1.807  51.770  1.00  0.00     0.057 A 
HETATM   10  C17 UNL     1      25.596   1.673  52.207  1.00  0.00     0.041 A 
ENDROOT
BRANCH   1  11
HETATM   11  N1  UNL     1      26.401   3.541  50.884  1.00  0.00    -0.368 N 
HETATM   12  H11 UNL     1      26.020   4.454  51.203  1.00  0.00     0.161 HD
BRANCH  11  13
HETATM   13  C7  UNL     1      26.635   3.553  49.457  1.00  0.00     0.185 C 
BRANCH  13  14
HETATM   14  C6  UNL     1      27.129   4.846  48.930  1.00  0.00     0.064 C 
HETATM   15  C5  UNL     1      26.614   6.083  48.817  1.00  0.00     0.040 C 
BRANCH  15  16
HETATM   16  C3  UNL     1      25.321   6.636  49.187  1.00  0.00    -0.064 C 
HETATM   17  C2  UNL     1      25.186   7.192  50.383  1.00  0.00    -0.024 C 
HETATM   18  C1  UNL     1      23.878   7.764  50.778  1.00  0.00     0.036 C 
HETATM   19  C4  UNL     1      24.120   6.639  48.332  1.00  0.00     0.048 C 
ENDBRANCH  15  16
BRANCH  14  20
HETATM   20  O3  UNL     1      28.442   4.655  48.459  1.00  0.00    -0.359 OA
HETATM   21  C18 UNL     1      29.278   5.749  48.131  1.00  0.00     0.209 C 
ENDBRANCH  14  20
ENDBRANCH  13  14
ENDBRANCH  11  13
ENDBRANCH   1  11
BRANCH   8  22
HETATM   22  O2  UNL     1      21.979   1.158  51.715  1.00  0.00    -0.353 OA
HETATM   23  C15 UNL     1      21.532   0.719  50.444  1.00  0.00     0.210 C 
ENDBRANCH   8  22
BRANCH   7  24
HETATM   24  O1  UNL     1      22.453  -0.834  53.481  1.00  0.00    -0.353 OA
HETATM   25  C13 UNL     1      22.231  -1.208  54.811  1.00  0.00     0.210 C 
ENDBRANCH   7  24
TORSDOF 7
ENDMDL
MODEL 3
REMARK VINA RESULT:      -7.1      2.117      4.703
REMARK  7 active torsions:
REMARK  status: ('A' for Active; 'I' for Inactive)
REMARK    1  A    between atoms: C3_3  and  C5_5 
REMARK    2  A    between atoms: C6_6  and  C7_7 
REMARK    3  A    between atoms: C6_6  and  O3_23 
REMARK    4  A    between atoms: C7_7  and  N1_8 
REMARK    5  A    between atoms: N1_8  and  C8_9 
REMARK    6  A    between atoms: C12_15  and  O1_16 
REMARK    7  A    between atoms: C14_18  and  O2_19 
ROOT
HETATM    1  C8  UNL     1      24.469   2.633  52.104  1.00  0.00     0.138 A 
HETATM    2  N2  UNL     1      24.902   3.365  51.070  1.00  0.00    -0.224 NA
HETATM    3  C9  UNL     1      26.160   3.376  50.613  1.00  0.00     0.235 A 
HETATM    4  N3  UNL     1      27.114   2.620  51.187  1.00  0.00    -0.241 NA
HETATM    5  C10 UNL     1      26.752   1.863  52.225  1.00  0.00     0.075 A 
HETATM    6  C11 UNL     1      27.744   1.098  52.794  1.00  0.00     0.072 A 
HETATM    7  C12 UNL     1      27.483   0.283  53.866  1.00  0.00     0.103 A 
HETATM    8  C14 UNL     1      26.194   0.256  54.354  1.00  0.00     0.102 A 
HETATM    9  C16 UNL     1      25.226   1.040  53.753  1.00  0.00     0.057 A 
HETATM   10  C17 UNL     1      25.452   1.863  52.684  1.00  0.00     0.041 A 
ENDROOT
BRANCH   1  11
HETATM   11  N1  UNL     1      23.152   2.630  52.593  1.00  0.00    -0.368 N 
HETATM   12  H11 UNL     1      22.949   2.405  53.587  1.00  0.00     0.161 HD
BRANCH  11  13
HETATM   13  C7  UNL     1      21.931   2.910  51.872  1.00  0.00     0.185 C 
BRANCH  13  14
HETATM   14  C6  UNL     1      21.466   1.804  51.003  1.00  0.00     0.064 C 
HETATM   15  C5  UNL     1      20.931   0.590  51.219  1.00  0.00     0.040 C 
BRANCH  15  16
HETATM   16  C3  UNL     1      20.596  -0.122  52.442  1.00  0.00    -0.064 C 
HETATM   17  C2  UNL     1      21.580  -0.579  53.203  1.00  0.00    -0.024 C 
HETATM   18  C1  UNL     1      21.260  -1.304  54.454  1.00  0.00     0.036 C 
HETATM   19  C4  UNL     1      19.228  -0.383  52.927  1.00  0.00     0.048 C 
ENDBRANCH  15  16
BRANCH  14  20
HETATM   20  O3  UNL     1      21.660   2.187  49.662  1.00  0.00    -0.359 OA
HETATM   21  C18 UNL     1      21.629   1.242  48.610  1.00  0.00     0.209 C 
ENDBRANCH  14  20
ENDBRANCH  13  14
ENDBRANCH  11  13
ENDBRANCH   1  11
BRANCH   8  22
HETATM   22  O2  UNL     1      25.937  -0.557  55.422  1.00  0.00    -0.353 OA
HETATM   23  C15 UNL     1      24.712  -1.242  55.619  1.00  0.00     0.210 C 
ENDBRANCH   8  22
BRANCH   7  24
HETATM   24  O1  UNL     1      28.463  -0.498  54.458  1.00  0.00    -0.353 OA
HETATM   25  C13 UNL     1      29.648  -0.880  53.822  1.00  0.00     0.210 C 
ENDBRANCH   7  24
TORSDOF 7
ENDMDL
MODEL 4
REMARK VINA RESULT:      -7.1      2.497      5.966
REMARK  7 active torsions:
REMARK  status: ('A' for Active; 'I' for Inactive)
REMARK    1  A    between atoms: C3_3  and  C5_5 
REMARK    2  A    between atoms: C6_6  and  C7_7 
REMARK    3  A    between atoms: C6_6  and  O3_23 
REMARK    4  A    between atoms: C7_7  and  N1_8 
REMARK    5  A    between atoms: N1_8  and  C8_9 
REMARK    6  A    between atoms: C12_15  and  O1_16 
REMARK    7  A    between atoms: C14_18  and  O2_19 
ROOT
HETATM    1  C8  UNL     1      24.707  -0.713  53.712  1.00  0.00     0.138 A 
HETATM    2  N2  UNL     1      25.101  -1.143  54.917  1.00  0.00    -0.224 NA
HETATM    3  C9  UNL     1      24.277  -1.458  55.924  1.00  0.00     0.235 A 
HETATM    4  N3  UNL     1      22.943  -1.358  55.786  1.00  0.00    -0.241 NA
HETATM    5  C10 UNL     1      22.479  -0.935  54.609  1.00  0.00     0.075 A 
HETATM    6  C11 UNL     1      21.111  -0.842  54.492  1.00  0.00     0.072 A 
HETATM    7  C12 UNL     1      20.527  -0.417  53.327  1.00  0.00     0.103 A 
HETATM    8  C14 UNL     1      21.356  -0.087  52.275  1.00  0.00     0.102 A 
HETATM    9  C16 UNL     1      22.726  -0.195  52.433  1.00  0.00     0.057 A 
HETATM   10  C17 UNL     1      23.340  -0.614  53.582  1.00  0.00     0.041 A 
ENDROOT
BRANCH   1  11
HETATM   11  N1  UNL     1      25.571  -0.370  52.657  1.00  0.00    -0.368 N 
HETATM   12  H11 UNL     1      25.367  -0.660  51.680  1.00  0.00     0.161 HD
BRANCH  11  13
HETATM   13  C7  UNL     1      26.803   0.383  52.721  1.00  0.00     0.185 C 
BRANCH  13  14
HETATM   14  C6  UNL     1      26.674   1.714  53.361  1.00  0.00     0.064 C 
HETATM   15  C5  UNL     1      25.824   2.747  53.235  1.00  0.00     0.040 C 
BRANCH  15  16
HETATM   16  C3  UNL     1      24.660   2.952  52.387  1.00  0.00    -0.064 C 
HETATM   17  C2  UNL     1      23.544   3.407  52.938  1.00  0.00    -0.024 C 
HETATM   18  C1  UNL     1      22.348   3.626  52.091  1.00  0.00     0.036 C 
HETATM   19  C4  UNL     1      24.610   2.698  50.935  1.00  0.00     0.048 C 
ENDBRANCH  15  16
BRANCH  14  20
HETATM   20  O3  UNL     1      27.715   1.852  54.300  1.00  0.00    -0.359 OA
HETATM   21  C18 UNL     1      28.899   1.084  54.212  1.00  0.00     0.209 C 
ENDBRANCH  14  20
ENDBRANCH  13  14
ENDBRANCH  11  13
ENDBRANCH   1  11
BRANCH   8  22
HETATM   22  O2  UNL     1      20.771   0.335  51.114  1.00  0.00    -0.353 OA
HETATM   23  C15 UNL     1      21.491   0.826  49.997  1.00  0.00     0.210 C 
ENDBRANCH   8  22
BRANCH   7  24
HETATM   24  O1  UNL     1      19.153  -0.314  53.181  1.00  0.00    -0.353 OA
HETATM   25  C13 UNL     1      18.274  -1.398  53.278  1.00  0.00     0.210 C 
ENDBRANCH   7  24
TORSDOF 7
ENDMDL
MODEL 5
REMARK VINA RESULT:      -6.9      2.597      4.538
REMARK  7 active torsions:
REMARK  status: ('A' for Active; 'I' for Inactive)
REMARK    1  A    between atoms: C3_3  and  C5_5 
REMARK    2  A    between atoms: C6_6  and  C7_7 
REMARK    3  A    between atoms: C6_6  and  O3_23 
REMARK    4  A    between atoms: C7_7  and  N1_8 
REMARK    5  A    between atoms: N1_8  and  C8_9 
REMARK    6  A    between atoms: C12_15  and  O1_16 
REMARK    7  A    between atoms: C14_18  and  O2_19 
ROOT
HETATM    1  C8  UNL     1      26.906   2.185  52.159  1.00  0.00     0.138 A 
HETATM    2  N2  UNL     1      28.088   1.857  52.696  1.00  0.00    -0.224 NA
HETATM    3  C9  UNL     1      28.291   0.830  53.530  1.00  0.00     0.235 A 
HETATM    4  N3  UNL     1      27.279   0.026  53.901  1.00  0.00    -0.241 NA
HETATM    5  C10 UNL     1      26.071   0.294  53.402  1.00  0.00     0.075 A 
HETATM    6  C11 UNL     1      25.052  -0.544  53.795  1.00  0.00     0.072 A 
HETATM    7  C12 UNL     1      23.770  -0.360  53.344  1.00  0.00     0.103 A 
HETATM    8  C14 UNL     1      23.536   0.693  52.483  1.00  0.00     0.102 A 
HETATM    9  C16 UNL     1      24.589   1.511  52.112  1.00  0.00     0.057 A 
HETATM   10  C17 UNL     1      25.877   1.355  52.544  1.00  0.00     0.041 A 
ENDROOT
BRANCH   1  11
HETATM   11  N1  UNL     1      26.688   3.270  51.293  1.00  0.00    -0.368 N 
HETATM   12  H11 UNL     1      26.523   4.227  51.663  1.00  0.00     0.161 HD
BRANCH  11  13
HETATM   13  C7  UNL     1      26.651   3.265  49.848  1.00  0.00     0.185 C 
BRANCH  13  14
HETATM   14  C6  UNL     1      25.916   4.405  49.252  1.00  0.00     0.064 C 
HETATM   15  C5  UNL     1      24.619   4.690  49.040  1.00  0.00     0.040 C 
BRANCH  15  16
HETATM   16  C3  UNL     1      23.401   3.952  49.332  1.00  0.00    -0.064 C 
HETATM   17  C2  UNL     1      23.107   2.892  48.592  1.00  0.00    -0.024 C 
HETATM   18  C1  UNL     1      21.872   2.124  48.875  1.00  0.00     0.036 C 
HETATM   19  C4  UNL     1      22.442   4.281  50.403  1.00  0.00     0.048 C 
ENDBRANCH  15  16
BRANCH  14  20
HETATM   20  O3  UNL     1      26.858   5.366  48.836  1.00  0.00    -0.359 OA
HETATM   21  C18 UNL     1      26.580   6.752  48.903  1.00  0.00     0.209 C 
ENDBRANCH  14  20
ENDBRANCH  13  14
ENDBRANCH  11  13
ENDBRANCH   1  11
BRANCH   8  22
HETATM   22  O2  UNL     1      22.258   0.873  52.034  1.00  0.00    -0.353 OA
HETATM   23  C15 UNL     1      21.303   1.699  52.676  1.00  0.00     0.210 C 
ENDBRANCH   8  22
BRANCH   7  24
HETATM   24  O1  UNL     1      22.725  -1.187  53.722  1.00  0.00    -0.353 OA
HETATM   25  C13 UNL     1      22.117  -1.150  54.981  1.00  0.00     0.210 C 
ENDBRANCH   7  24
TORSDOF 7
ENDMDL
MODEL 6
REMARK VINA RESULT:      -6.9      2.567      4.038
REMARK  7 active torsions:
REMARK  status: ('A' for Active; 'I' for Inactive)
REMARK    1  A    between atoms: C3_3  and  C5_5 
REMARK    2  A    between atoms: C6_6  and  C7_7 
REMARK    3  A    between atoms: C6_6  and  O3_23 
REMARK    4  A    between atoms: C7_7  and  N1_8 
REMARK    5  A    between atoms: N1_8  and  C8_9 
REMARK    6  A    between atoms: C12_15  and  O1_16 
REMARK    7  A    between atoms: C14_18  and  O2_19 
ROOT
HETATM    1  C8  UNL     1      27.033   2.261  52.183  1.00  0.00     0.138 A 
HETATM    2  N2  UNL     1      28.198   1.977  52.779  1.00  0.00    -0.224 NA
HETATM    3  C9  UNL     1      28.382   0.996  53.671  1.00  0.00     0.235 A 
HETATM    4  N3  UNL     1      27.367   0.197  54.045  1.00  0.00    -0.241 NA
HETATM    5  C10 UNL     1      26.174   0.423  53.490  1.00  0.00     0.075 A 
HETATM    6  C11 UNL     1      25.152  -0.407  53.887  1.00  0.00     0.072 A 
HETATM    7  C12 UNL     1      23.885  -0.263  53.381  1.00  0.00     0.103 A 
HETATM    8  C14 UNL     1      23.671   0.741  52.460  1.00  0.00     0.102 A 
HETATM    9  C16 UNL     1      24.727   1.554  52.087  1.00  0.00     0.057 A 
HETATM   10  C17 UNL     1      26.000   1.438  52.573  1.00  0.00     0.041 A 
ENDROOT
BRANCH   1  11
HETATM   11  N1  UNL     1      26.834   3.298  51.256  1.00  0.00    -0.368 N 
HETATM   12  H11 UNL     1      26.935   4.294  51.535  1.00  0.00     0.161 HD
BRANCH  11  13
HETATM   13  C7  UNL     1      26.479   3.191  49.859  1.00  0.00     0.185 C 
BRANCH  13  14
HETATM   14  C6  UNL     1      25.770   4.373  49.315  1.00  0.00     0.064 C 
HETATM   15  C5  UNL     1      26.155   5.541  48.773  1.00  0.00     0.040 C 
BRANCH  15  16
HETATM   16  C3  UNL     1      27.469   6.105  48.506  1.00  0.00    -0.064 C 
HETATM   17  C2  UNL     1      27.595   7.423  48.450  1.00  0.00    -0.024 C 
HETATM   18  C1  UNL     1      28.926   8.018  48.182  1.00  0.00     0.036 C 
HETATM   19  C4  UNL     1      28.702   5.326  48.291  1.00  0.00     0.048 C 
ENDBRANCH  15  16
BRANCH  14  20
HETATM   20  O3  UNL     1      24.385   4.145  49.427  1.00  0.00    -0.359 OA
HETATM   21  C18 UNL     1      23.601   4.813  50.397  1.00  0.00     0.209 C 
ENDBRANCH  14  20
ENDBRANCH  13  14
ENDBRANCH  11  13
ENDBRANCH   1  11
BRANCH   8  22
HETATM   22  O2  UNL     1      22.408   0.881  51.957  1.00  0.00    -0.353 OA
HETATM   23  C15 UNL     1      22.124   1.340  50.647  1.00  0.00     0.210 C 
ENDBRANCH   8  22
BRANCH   7  24
HETATM   24  O1  UNL     1      22.837  -1.085  53.763  1.00  0.00    -0.353 OA
HETATM   25  C13 UNL     1      22.470  -1.314  55.093  1.00  0.00     0.210 C 
ENDBRANCH   7  24
TORSDOF 7
ENDMDL
MODEL 7
REMARK VINA RESULT:      -6.8      1.828      2.783
REMARK  7 active torsions:
REMARK  status: ('A' for Active; 'I' for Inactive)
REMARK    1  A    between atoms: C3_3  and  C5_5 
REMARK    2  A    between atoms: C6_6  and  C7_7 
REMARK    3  A    between atoms: C6_6  and  O3_23 
REMARK    4  A    between atoms: C7_7  and  N1_8 
REMARK    5  A    between atoms: N1_8  and  C8_9 
REMARK    6  A    between atoms: C12_15  and  O1_16 
REMARK    7  A    between atoms: C14_18  and  O2_19 
ROOT
HETATM    1  C8  UNL     1      23.327   3.360  52.443  1.00  0.00     0.138 A 
HETATM    2  N2  UNL     1      22.149   2.927  51.975  1.00  0.00    -0.224 NA
HETATM    3  C9  UNL     1      21.792   1.641  51.875  1.00  0.00     0.235 A 
HETATM    4  N3  UNL     1      22.626   0.657  52.253  1.00  0.00    -0.241 NA
HETATM    5  C10 UNL     1      23.819   1.016  52.731  1.00  0.00     0.075 A 
HETATM    6  C11 UNL     1      24.655  -0.008  53.112  1.00  0.00     0.072 A 
HETATM    7  C12 UNL     1      25.905   0.247  53.616  1.00  0.00     0.103 A 
HETATM    8  C14 UNL     1      26.296   1.566  53.728  1.00  0.00     0.102 A 
HETATM    9  C16 UNL     1      25.425   2.565  53.334  1.00  0.00     0.057 A 
HETATM   10  C17 UNL     1      24.173   2.345  52.828  1.00  0.00     0.041 A 
ENDROOT
BRANCH   1  11
HETATM   11  N1  UNL     1      23.709   4.709  52.537  1.00  0.00    -0.368 N 
HETATM   12  H11 UNL     1      24.121   5.090  53.412  1.00  0.00     0.161 HD
BRANCH  11  13
HETATM   13  C7  UNL     1      23.610   5.738  51.527  1.00  0.00     0.185 C 
BRANCH  13  14
HETATM   14  C6  UNL     1      24.354   5.445  50.280  1.00  0.00     0.064 C 
HETATM   15  C5  UNL     1      24.094   4.742  49.164  1.00  0.00     0.040 C 
BRANCH  15  16
HETATM   16  C3  UNL     1      22.932   3.973  48.747  1.00  0.00    -0.064 C 
HETATM   17  C2  UNL     1      23.078   2.676  48.514  1.00  0.00    -0.024 C 
HETATM   18  C1  UNL     1      21.906   1.874  48.092  1.00  0.00     0.036 C 
HETATM   19  C4  UNL     1      21.574   4.516  48.559  1.00  0.00     0.048 C 
ENDBRANCH  15  16
BRANCH  14  20
HETATM   20  O3  UNL     1      25.608   6.081  50.357  1.00  0.00    -0.359 OA
HETATM   21  C18 UNL     1      25.739   7.481  50.203  1.00  0.00     0.209 C 
ENDBRANCH  14  20
ENDBRANCH  13  14
ENDBRANCH  11  13
ENDBRANCH   1  11
BRANCH   8  22
HETATM   22  O2  UNL     1      27.541   1.817  54.232  1.00  0.00    -0.353 OA
HETATM   23  C15 UNL     1      28.590   2.413  53.489  1.00  0.00     0.210 C 
ENDBRANCH   8  22
BRANCH   7  24
HETATM   24  O1  UNL     1      26.767  -0.764  54.007  1.00  0.00    -0.353 OA
HETATM   25  C13 UNL     1      27.465  -1.584  53.115  1.00  0.00     0.210 C 
ENDBRANCH   7  24
TORSDOF 7
ENDMDL
MODEL 8
REMARK VINA RESULT:      -6.7      2.377      3.865
REMARK  7 active torsions:
REMARK  status: ('A' for Active; 'I' for Inactive)
REMARK    1  A    between atoms: C3_3  and  C5_5 
REMARK    2  A    between atoms: C6_6  and  C7_7 
REMARK    3  A    between atoms: C6_6  and  O3_23 
REMARK    4  A    between atoms: C7_7  and  N1_8 
REMARK    5  A    between atoms: N1_8  and  C8_9 
REMARK    6  A    between atoms: C12_15  and  O1_16 
REMARK    7  A    between atoms: C14_18  and  O2_19 
ROOT
HETATM    1  C8  UNL     1      24.233   2.574  51.986  1.00  0.00     0.138 A 
HETATM    2  N2  UNL     1      24.647   3.264  50.916  1.00  0.00    -0.224 NA
HETATM    3  C9  UNL     1      25.847   3.132  50.337  1.00  0.00     0.235 A 
HETATM    4  N3  UNL     1      26.755   2.262  50.813  1.00  0.00    -0.241 NA
HETATM    5  C10 UNL     1      26.410   1.539  51.880  1.00  0.00     0.075 A 
HETATM    6  C11 UNL     1      27.355   0.655  52.347  1.00  0.00     0.072 A 
HETATM    7  C12 UNL     1      27.106  -0.137  53.438  1.00  0.00     0.103 A 
HETATM    8  C14 UNL     1      25.876  -0.019  54.051  1.00  0.00     0.102 A 
HETATM    9  C16 UNL     1      24.953   0.881  53.549  1.00  0.00     0.057 A 
HETATM   10  C17 UNL     1      25.170   1.686  52.465  1.00  0.00     0.041 A 
ENDROOT
BRANCH   1  11
HETATM   11  N1  UNL     1      22.978   2.719  52.602  1.00  0.00    -0.368 N 
HETATM   12  H11 UNL     1      22.883   3.203  53.517  1.00  0.00     0.161 HD
BRANCH  11  13
HETATM   13  C7  UNL     1      21.692   2.262  52.127  1.00  0.00     0.185 C 
BRANCH  13  14
HETATM   14  C6  UNL     1      21.753   1.071  51.247  1.00  0.00     0.064 C 
HETATM   15  C5  UNL     1      21.633   0.864  49.924  1.00  0.00     0.040 C 
BRANCH  15  16
HETATM   16  C3  UNL     1      21.387   1.773  48.815  1.00  0.00    -0.064 C 
HETATM   17  C2  UNL     1      22.398   2.092  48.020  1.00  0.00    -0.024 C 
HETATM   18  C1  UNL     1      22.169   3.013  46.882  1.00  0.00     0.036 C 
HETATM   19  C4  UNL     1      20.086   2.381  48.485  1.00  0.00     0.048 C 
ENDBRANCH  15  16
BRANCH  14  20
HETATM   20  O3  UNL     1      21.994  -0.059  52.052  1.00  0.00    -0.359 OA
HETATM   21  C18 UNL     1      21.212  -0.331  53.199  1.00  0.00     0.209 C 
ENDBRANCH  14  20
ENDBRANCH  13  14
ENDBRANCH  11  13
ENDBRANCH   1  11
BRANCH   8  22
HETATM   22  O2  UNL     1      25.630  -0.811  55.137  1.00  0.00    -0.353 OA
HETATM   23  C15 UNL     1      24.343  -1.279  55.501  1.00  0.00     0.210 C 
ENDBRANCH   8  22
BRANCH   7  24
HETATM   24  O1  UNL     1      28.039  -1.036  53.930  1.00  0.00    -0.353 OA
HETATM   25  C13 UNL     1      29.379  -1.066  53.531  1.00  0.00     0.210 C 
ENDBRANCH   7  24
TORSDOF 7
ENDMDL
MODEL 9
REMARK VINA RESULT:      -6.7      3.094      6.340
REMARK  7 active torsions:
REMARK  status: ('A' for Active; 'I' for Inactive)
REMARK    1  A    between atoms: C3_3  and  C5_5 
REMARK    2  A    between atoms: C6_6  and  C7_7 
REMARK    3  A    between atoms: C6_6  and  O3_23 
REMARK    4  A    between atoms: C7_7  and  N1_8 
REMARK    5  A    between atoms: N1_8  and  C8_9 
REMARK    6  A    between atoms: C12_15  and  O1_16 
REMARK    7  A    between atoms: C14_18  and  O2_19 
ROOT
HETATM    1  C8  UNL     1      23.169   0.081  53.281  1.00  0.00     0.138 A 
HETATM    2  N2  UNL     1      23.862  -0.500  54.269  1.00  0.00    -0.224 NA
HETATM    3  C9  UNL     1      23.348  -1.346  55.170  1.00  0.00     0.235 A 
HETATM    4  N3  UNL     1      22.046  -1.683  55.142  1.00  0.00    -0.241 NA
HETATM    5  C10 UNL     1      21.294  -1.141  54.182  1.00  0.00     0.075 A 
HETATM    6  C11 UNL     1      19.966  -1.502  54.173  1.00  0.00     0.072 A 
HETATM    7  C12 UNL     1      19.103  -1.005  53.231  1.00  0.00     0.103 A 
HETATM    8  C14 UNL     1      19.610  -0.130  52.292  1.00  0.00     0.102 A 
HETATM    9  C16 UNL     1      20.951   0.206  52.336  1.00  0.00     0.057 A 
HETATM   10  C17 UNL     1      21.838  -0.271  53.261  1.00  0.00     0.041 A 
ENDROOT
BRANCH   1  11
HETATM   11  N1  UNL     1      23.704   0.979  52.342  1.00  0.00    -0.368 N 
HETATM   12  H11 UNL     1      23.661   0.779  51.323  1.00  0.00     0.161 HD
BRANCH  11  13
HETATM   13  C7  UNL     1      24.363   2.242  52.589  1.00  0.00     0.185 C 
BRANCH  13  14
HETATM   14  C6  UNL     1      25.622   2.432  51.831  1.00  0.00     0.064 C 
HETATM   15  C5  UNL     1      26.806   1.797  51.786  1.00  0.00     0.040 C 
BRANCH  15  16
HETATM   16  C3  UNL     1      27.314   0.633  52.495  1.00  0.00    -0.064 C 
HETATM   17  C2  UNL     1      28.295   0.801  53.371  1.00  0.00    -0.024 C 
HETATM   18  C1  UNL     1      28.824  -0.371  54.106  1.00  0.00     0.036 C 
HETATM   19  C4  UNL     1      26.824  -0.747  52.327  1.00  0.00     0.048 C 
ENDBRANCH  15  16
BRANCH  14  20
HETATM   20  O3  UNL     1      25.464   3.552  50.992  1.00  0.00    -0.359 OA
HETATM   21  C18 UNL     1      25.113   3.411  49.629  1.00  0.00     0.209 C 
ENDBRANCH  14  20
ENDBRANCH  13  14
ENDBRANCH  11  13
ENDBRANCH   1  11
BRANCH   8  22
HETATM   22  O2  UNL     1      18.748   0.363  51.354  1.00  0.00    -0.353 OA
HETATM   23  C15 UNL     1      19.155   1.094  50.211  1.00  0.00     0.210 C 
ENDBRANCH   8  22
BRANCH   7  24
HETATM   24  O1  UNL     1      17.762  -1.351  53.199  1.00  0.00    -0.353 OA
HETATM   25  C13 UNL     1      17.289  -2.657  53.357  1.00  0.00     0.210 C 
ENDBRANCH   7  24
TORSDOF 7
ENDMDL
