MODEL 1
REMARK VINA RESULT:      -7.4      0.000      0.000
REMARK  4 active torsions:
REMARK  status: ('A' for Active; 'I' for Inactive)
REMARK    1  A    between atoms: O1_2  and  C2_3 
REMARK    2  A    between atoms: C5_7  and  C6_8 
REMARK    3  A    between atoms: C9_11  and  O2_12 
REMARK    4  A    between atoms: C11_14  and  O3_15 
ROOT
HETATM    1  C2  UNL     1      25.676   0.660  52.919  1.00  0.00     0.107 C 
HETATM    2  C3  UNL     1      26.639   1.391  52.326  1.00  0.00     0.032 C 
HETATM    3  C4  UNL     1      26.208   2.643  51.602  1.00  0.00     0.145 C 
HETATM    4  N1  UNL     1      26.378   2.465  50.227  1.00  0.00    -0.406 N 
HETATM    5  C5  UNL     1      25.711   3.305  49.308  1.00  0.00     0.151 C 
HETATM    6  C14 UNL     1      24.179   3.166  49.432  1.00  0.00     0.115 C 
HETATM    7  N2  UNL     1      23.993   2.355  50.278  1.00  0.00    -0.277 NA
HETATM    8  C15 UNL     1      23.063   1.664  50.992  1.00  0.00     0.324 C 
HETATM    9  O4  UNL     1      23.438   1.816  52.396  1.00  0.00    -0.320 OA
HETATM   10  C16 UNL     1      24.244   0.840  52.976  1.00  0.00     0.145 C 
HETATM   11  C17 UNL     1      23.559  -0.030  53.671  1.00  0.00    -0.116 C 
HETATM   12  C18 UNL     1      22.921  -0.902  54.419  1.00  0.00     0.099 C 
HETATM   13  H7  UNL     1      27.040   1.776  49.874  1.00  0.00     0.154 HD
ENDROOT
BRANCH   1  14
HETATM   14  O1  UNL     1      26.249  -0.437  53.543  1.00  0.00    -0.353 OA
HETATM   15  C1  UNL     1      26.952  -1.378  52.758  1.00  0.00     0.210 C 
ENDBRANCH   1  14
BRANCH   5  16
HETATM   16  C6  UNL     1      26.056   4.737  49.309  1.00  0.00    -0.028 A 
HETATM   17  C7  UNL     1      27.234   5.134  48.655  1.00  0.00     0.012 A 
HETATM   18  C8  UNL     1      27.648   6.447  48.581  1.00  0.00     0.040 A 
HETATM   19  C9  UNL     1      26.894   7.441  49.166  1.00  0.00     0.101 A 
HETATM   20  C11 UNL     1      25.724   7.113  49.823  1.00  0.00     0.102 A 
HETATM   21  C13 UNL     1      25.369   5.783  49.859  1.00  0.00     0.049 A 
BRANCH  19  22
HETATM   22  O2  UNL     1      27.267   8.778  49.121  1.00  0.00    -0.353 OA
HETATM   23  C10 UNL     1      28.411   9.322  49.703  1.00  0.00     0.210 C 
ENDBRANCH  19  22
BRANCH  20  24
HETATM   24  O3  UNL     1      24.984   8.102  50.399  1.00  0.00    -0.353 OA
HETATM   25  C12 UNL     1      23.607   8.086  50.635  1.00  0.00     0.210 C 
ENDBRANCH  20  24
ENDBRANCH   5  16
TORSDOF 4
ENDMDL
MODEL 2
REMARK VINA RESULT:      -7.3      2.617      7.058
REMARK  4 active torsions:
REMARK  status: ('A' for Active; 'I' for Inactive)
REMARK    1  A    between atoms: O1_2  and  C2_3 
REMARK    2  A    between atoms: C5_7  and  C6_8 
REMARK    3  A    between atoms: C9_11  and  O2_12 
REMARK    4  A    between atoms: C11_14  and  O3_15 
ROOT
HETATM    1  C2  UNL     1      23.561   4.373  48.845  1.00  0.00     0.107 C 
HETATM    2  C3  UNL     1      24.417   4.451  49.882  1.00  0.00     0.032 C 
HETATM    3  C4  UNL     1      24.692   3.179  50.647  1.00  0.00     0.145 C 
HETATM    4  N1  UNL     1      24.129   3.275  51.922  1.00  0.00    -0.406 N 
HETATM    5  C5  UNL     1      23.903   2.114  52.694  1.00  0.00     0.151 C 
HETATM    6  C14 UNL     1      22.897   1.169  52.003  1.00  0.00     0.115 C 
HETATM    7  N2  UNL     1      22.578   1.712  50.997  1.00  0.00    -0.277 NA
HETATM    8  C15 UNL     1      21.818   1.642  49.870  1.00  0.00     0.324 C 
HETATM    9  O4  UNL     1      22.717   1.945  48.758  1.00  0.00    -0.320 OA
HETATM   10  C16 UNL     1      22.804   3.262  48.317  1.00  0.00     0.145 C 
HETATM   11  C17 UNL     1      22.072   3.487  47.257  1.00  0.00    -0.116 C 
HETATM   12  C18 UNL     1      21.389   3.751  46.166  1.00  0.00     0.099 C 
HETATM   13  H7  UNL     1      23.944   4.187  52.338  1.00  0.00     0.154 HD
ENDROOT
BRANCH   1  14
HETATM   14  O1  UNL     1      23.440   5.621  48.254  1.00  0.00    -0.353 OA
HETATM   15  C1  UNL     1      24.510   6.537  48.368  1.00  0.00     0.210 C 
ENDBRANCH   1  14
BRANCH   5  16
HETATM   16  C6  UNL     1      25.075   1.328  53.115  1.00  0.00    -0.028 A 
HETATM   17  C7  UNL     1      25.105  -0.039  52.795  1.00  0.00     0.012 A 
HETATM   18  C8  UNL     1      26.157  -0.867  53.127  1.00  0.00     0.040 A 
HETATM   19  C9  UNL     1      27.244  -0.362  53.804  1.00  0.00     0.101 A 
HETATM   20  C11 UNL     1      27.273   0.977  54.147  1.00  0.00     0.102 A 
HETATM   21  C13 UNL     1      26.191   1.747  53.785  1.00  0.00     0.049 A 
BRANCH  19  22
HETATM   22  O2  UNL     1      28.328  -1.152  54.163  1.00  0.00    -0.353 OA
HETATM   23  C10 UNL     1      29.265  -1.694  53.283  1.00  0.00     0.210 C 
ENDBRANCH  19  22
BRANCH  20  24
HETATM   24  O3  UNL     1      28.352   1.469  54.818  1.00  0.00    -0.353 OA
HETATM   25  C12 UNL     1      29.432   2.165  54.270  1.00  0.00     0.210 C 
ENDBRANCH  20  24
ENDBRANCH   5  16
TORSDOF 4
ENDMDL
MODEL 3
REMARK VINA RESULT:      -7.0      0.992      2.028
REMARK  4 active torsions:
REMARK  status: ('A' for Active; 'I' for Inactive)
REMARK    1  A    between atoms: O1_2  and  C2_3 
REMARK    2  A    between atoms: C5_7  and  C6_8 
REMARK    3  A    between atoms: C9_11  and  O2_12 
REMARK    4  A    between atoms: C11_14  and  O3_15 
ROOT
HETATM    1  C2  UNL     1      25.903   0.729  52.384  1.00  0.00     0.107 C 
HETATM    2  C3  UNL     1      26.807   1.472  51.717  1.00  0.00     0.032 C 
HETATM    3  C4  UNL     1      26.359   2.829  51.229  1.00  0.00     0.145 C 
HETATM    4  N1  UNL     1      26.281   2.816  49.834  1.00  0.00    -0.406 N 
HETATM    5  C5  UNL     1      25.537   3.802  49.149  1.00  0.00     0.151 C 
HETATM    6  C14 UNL     1      24.041   3.737  49.525  1.00  0.00     0.115 C 
HETATM    7  N2  UNL     1      23.938   2.838  50.293  1.00  0.00    -0.277 NA
HETATM    8  C15 UNL     1      23.089   2.117  51.076  1.00  0.00     0.324 C 
HETATM    9  O4  UNL     1      23.707   2.069  52.400  1.00  0.00    -0.320 OA
HETATM   10  C16 UNL     1      24.519   0.983  52.713  1.00  0.00     0.145 C 
HETATM   11  C17 UNL     1      23.895   0.073  53.415  1.00  0.00    -0.116 C 
HETATM   12  C18 UNL     1      23.325  -0.848  54.160  1.00  0.00     0.099 C 
HETATM   13  H7  UNL     1      26.818   2.140  49.293  1.00  0.00     0.154 HD
ENDROOT
BRANCH   1  14
HETATM   14  O1  UNL     1      26.485  -0.469  52.768  1.00  0.00    -0.353 OA
HETATM   15  C1  UNL     1      27.800  -0.453  53.284  1.00  0.00     0.210 C 
ENDBRANCH   1  14
BRANCH   5  16
HETATM   16  C6  UNL     1      25.989   5.200  49.253  1.00  0.00    -0.028 A 
HETATM   17  C7  UNL     1      25.243   6.079  50.055  1.00  0.00     0.012 A 
HETATM   18  C8  UNL     1      25.580   7.404  50.235  1.00  0.00     0.040 A 
HETATM   19  C9  UNL     1      26.695   7.922  49.613  1.00  0.00     0.101 A 
HETATM   20  C11 UNL     1      27.470   7.106  48.811  1.00  0.00     0.102 A 
HETATM   21  C13 UNL     1      27.077   5.794  48.674  1.00  0.00     0.049 A 
BRANCH  19  22
HETATM   22  O2  UNL     1      27.078   9.248  49.760  1.00  0.00    -0.353 OA
HETATM   23  C10 UNL     1      26.627  10.315  48.984  1.00  0.00     0.210 C 
ENDBRANCH  19  22
BRANCH  20  24
HETATM   24  O3  UNL     1      28.570   7.625  48.198  1.00  0.00    -0.353 OA
HETATM   25  C12 UNL     1      29.383   6.988  47.257  1.00  0.00     0.210 C 
ENDBRANCH  20  24
ENDBRANCH   5  16
TORSDOF 4
ENDMDL
MODEL 4
REMARK VINA RESULT:      -6.8      2.953      7.376
REMARK  4 active torsions:
REMARK  status: ('A' for Active; 'I' for Inactive)
REMARK    1  A    between atoms: O1_2  and  C2_3 
REMARK    2  A    between atoms: C5_7  and  C6_8 
REMARK    3  A    between atoms: C9_11  and  O2_12 
REMARK    4  A    between atoms: C11_14  and  O3_15 
ROOT
HETATM    1  C2  UNL     1      23.306   5.821  49.997  1.00  0.00     0.107 C 
HETATM    2  C3  UNL     1      23.704   5.544  51.253  1.00  0.00     0.032 C 
HETATM    3  C4  UNL     1      24.214   4.149  51.523  1.00  0.00     0.145 C 
HETATM    4  N1  UNL     1      23.302   3.473  52.338  1.00  0.00    -0.406 N 
HETATM    5  C5  UNL     1      23.331   2.064  52.429  1.00  0.00     0.151 C 
HETATM    6  C14 UNL     1      23.040   1.408  51.063  1.00  0.00     0.115 C 
HETATM    7  N2  UNL     1      22.853   2.303  50.306  1.00  0.00    -0.277 NA
HETATM    8  C15 UNL     1      22.562   2.652  49.023  1.00  0.00     0.324 C 
HETATM    9  O4  UNL     1      23.559   3.650  48.641  1.00  0.00    -0.320 OA
HETATM   10  C16 UNL     1      23.248   4.996  48.813  1.00  0.00     0.145 C 
HETATM   11  C17 UNL     1      22.844   5.565  47.707  1.00  0.00    -0.116 C 
HETATM   12  C18 UNL     1      22.477   6.192  46.612  1.00  0.00     0.099 C 
HETATM   13  H7  UNL     1      22.656   3.992  52.932  1.00  0.00     0.154 HD
ENDROOT
BRANCH   1  14
HETATM   14  O1  UNL     1      22.887   7.140  49.928  1.00  0.00    -0.353 OA
HETATM   15  C1  UNL     1      21.677   7.505  50.561  1.00  0.00     0.210 C 
ENDBRANCH   1  14
BRANCH   5  16
HETATM   16  C6  UNL     1      24.531   1.435  53.008  1.00  0.00    -0.028 A 
HETATM   17  C7  UNL     1      25.425   2.250  53.722  1.00  0.00     0.012 A 
HETATM   18  C8  UNL     1      26.572   1.768  54.317  1.00  0.00     0.040 A 
HETATM   19  C9  UNL     1      26.885   0.430  54.225  1.00  0.00     0.101 A 
HETATM   20  C11 UNL     1      26.043  -0.423  53.536  1.00  0.00     0.102 A 
HETATM   21  C13 UNL     1      24.916   0.124  52.966  1.00  0.00     0.049 A 
BRANCH  19  22
HETATM   22  O2  UNL     1      28.027  -0.107  54.805  1.00  0.00    -0.353 OA
HETATM   23  C10 UNL     1      29.309  -0.069  54.258  1.00  0.00     0.210 C 
ENDBRANCH  19  22
BRANCH  20  24
HETATM   24  O3  UNL     1      26.361  -1.745  53.449  1.00  0.00    -0.353 OA
HETATM   25  C12 UNL     1      26.965  -2.391  52.367  1.00  0.00     0.210 C 
ENDBRANCH  20  24
ENDBRANCH   5  16
TORSDOF 4
ENDMDL
MODEL 5
REMARK VINA RESULT:      -6.8      3.718      5.387
REMARK  4 active torsions:
REMARK  status: ('A' for Active; 'I' for Inactive)
REMARK    1  A    between atoms: O1_2  and  C2_3 
REMARK    2  A    between atoms: C5_7  and  C6_8 
REMARK    3  A    between atoms: C9_11  and  O2_12 
REMARK    4  A    between atoms: C11_14  and  O3_15 
ROOT
HETATM    1  C2  UNL     1      25.540  -0.295  53.581  1.00  0.00     0.107 C 
HETATM    2  C3  UNL     1      24.248   0.071  53.484  1.00  0.00     0.032 C 
HETATM    3  C4  UNL     1      23.848   0.874  52.269  1.00  0.00     0.145 C 
HETATM    4  N1  UNL     1      23.531   2.177  52.660  1.00  0.00    -0.406 N 
HETATM    5  C5  UNL     1      23.498   3.222  51.711  1.00  0.00     0.151 C 
HETATM    6  C14 UNL     1      24.886   3.441  51.071  1.00  0.00     0.115 C 
HETATM    7  N2  UNL     1      25.610   2.655  51.588  1.00  0.00    -0.277 NA
HETATM    8  C15 UNL     1      26.878   2.164  51.654  1.00  0.00     0.324 C 
HETATM    9  O4  UNL     1      26.753   0.711  51.548  1.00  0.00    -0.320 OA
HETATM   10  C16 UNL     1      26.671  -0.033  52.721  1.00  0.00     0.145 C 
HETATM   11  C17 UNL     1      27.817  -0.561  53.064  1.00  0.00    -0.116 C 
HETATM   12  C18 UNL     1      28.935  -1.151  53.424  1.00  0.00     0.099 C 
HETATM   13  H7  UNL     1      23.247   2.374  53.619  1.00  0.00     0.154 HD
ENDROOT
BRANCH   1  14
HETATM   14  O1  UNL     1      25.723  -1.032  54.740  1.00  0.00    -0.353 OA
HETATM   15  C1  UNL     1      24.626  -1.217  55.611  1.00  0.00     0.210 C 
ENDBRANCH   1  14
BRANCH   5  16
HETATM   16  C6  UNL     1      22.491   3.147  50.638  1.00  0.00    -0.028 A 
HETATM   17  C7  UNL     1      22.936   2.898  49.330  1.00  0.00     0.012 A 
HETATM   18  C8  UNL     1      22.082   2.794  48.251  1.00  0.00     0.040 A 
HETATM   19  C9  UNL     1      20.724   2.935  48.432  1.00  0.00     0.101 A 
HETATM   20  C11 UNL     1      20.225   3.181  49.698  1.00  0.00     0.102 A 
HETATM   21  C13 UNL     1      21.133   3.273  50.729  1.00  0.00     0.049 A 
BRANCH  19  22
HETATM   22  O2  UNL     1      19.821   2.841  47.381  1.00  0.00    -0.353 OA
HETATM   23  C10 UNL     1      19.817   3.642  46.240  1.00  0.00     0.210 C 
ENDBRANCH  19  22
BRANCH  20  24
HETATM   24  O3  UNL     1      18.881   3.321  49.868  1.00  0.00    -0.353 OA
HETATM   25  C12 UNL     1      18.200   3.446  51.082  1.00  0.00     0.210 C 
ENDBRANCH  20  24
ENDBRANCH   5  16
TORSDOF 4
ENDMDL
MODEL 6
REMARK VINA RESULT:      -6.7      3.576      7.777
REMARK  4 active torsions:
REMARK  status: ('A' for Active; 'I' for Inactive)
REMARK    1  A    between atoms: O1_2  and  C2_3 
REMARK    2  A    between atoms: C5_7  and  C6_8 
REMARK    3  A    between atoms: C9_11  and  O2_12 
REMARK    4  A    between atoms: C11_14  and  O3_15 
ROOT
HETATM    1  C2  UNL     1      25.950   2.740  51.096  1.00  0.00     0.107 C 
HETATM    2  C3  UNL     1      25.210   1.972  51.918  1.00  0.00     0.032 C 
HETATM    3  C4  UNL     1      23.726   1.906  51.651  1.00  0.00     0.145 C 
HETATM    4  N1  UNL     1      23.041   2.561  52.677  1.00  0.00    -0.406 N 
HETATM    5  C5  UNL     1      21.704   2.979  52.493  1.00  0.00     0.151 C 
HETATM    6  C14 UNL     1      21.594   4.021  51.360  1.00  0.00     0.115 C 
HETATM    7  N2  UNL     1      22.701   4.191  50.966  1.00  0.00    -0.277 NA
HETATM    8  C15 UNL     1      23.492   4.856  50.080  1.00  0.00     0.324 C 
HETATM    9  O4  UNL     1      24.319   3.837  49.437  1.00  0.00    -0.320 OA
HETATM   10  C16 UNL     1      25.575   3.568  49.973  1.00  0.00     0.145 C 
HETATM   11  C17 UNL     1      26.538   4.178  49.332  1.00  0.00    -0.116 C 
HETATM   12  C18 UNL     1      27.543   4.733  48.693  1.00  0.00     0.099 C 
HETATM   13  H7  UNL     1      23.472   2.678  53.593  1.00  0.00     0.154 HD
ENDROOT
BRANCH   1  14
HETATM   14  O1  UNL     1      27.281   2.672  51.477  1.00  0.00    -0.353 OA
HETATM   15  C1  UNL     1      27.603   2.106  52.731  1.00  0.00     0.210 C 
ENDBRANCH   1  14
BRANCH   5  16
HETATM   16  C6  UNL     1      20.681   1.940  52.280  1.00  0.00    -0.028 A 
HETATM   17  C7  UNL     1      20.594   0.897  53.216  1.00  0.00     0.012 A 
HETATM   18  C8  UNL     1      19.666  -0.121  53.124  1.00  0.00     0.040 A 
HETATM   19  C9  UNL     1      18.770  -0.144  52.078  1.00  0.00     0.101 A 
HETATM   20  C11 UNL     1      18.807   0.857  51.126  1.00  0.00     0.102 A 
HETATM   21  C13 UNL     1      19.757   1.842  51.277  1.00  0.00     0.049 A 
BRANCH  19  22
HETATM   22  O2  UNL     1      17.818  -1.145  51.938  1.00  0.00    -0.353 OA
HETATM   23  C10 UNL     1      16.663  -1.280  52.708  1.00  0.00     0.210 C 
ENDBRANCH  19  22
BRANCH  20  24
HETATM   24  O3  UNL     1      17.918   0.827  50.093  1.00  0.00    -0.353 OA
HETATM   25  C12 UNL     1      16.781   1.625  49.945  1.00  0.00     0.210 C 
ENDBRANCH  20  24
ENDBRANCH   5  16
TORSDOF 4
ENDMDL
MODEL 7
REMARK VINA RESULT:      -6.7      3.274      7.762
REMARK  4 active torsions:
REMARK  status: ('A' for Active; 'I' for Inactive)
REMARK    1  A    between atoms: O1_2  and  C2_3 
REMARK    2  A    between atoms: C5_7  and  C6_8 
REMARK    3  A    between atoms: C9_11  and  O2_12 
REMARK    4  A    between atoms: C11_14  and  O3_15 
ROOT
HETATM    1  C2  UNL     1      26.155   2.882  51.133  1.00  0.00     0.107 C 
HETATM    2  C3  UNL     1      25.399   2.184  52.001  1.00  0.00     0.032 C 
HETATM    3  C4  UNL     1      23.921   2.087  51.706  1.00  0.00     0.145 C 
HETATM    4  N1  UNL     1      23.210   2.824  52.656  1.00  0.00    -0.406 N 
HETATM    5  C5  UNL     1      21.877   3.218  52.406  1.00  0.00     0.151 C 
HETATM    6  C14 UNL     1      21.790   4.158  51.185  1.00  0.00     0.115 C 
HETATM    7  N2  UNL     1      22.905   4.299  50.804  1.00  0.00    -0.277 NA
HETATM    8  C15 UNL     1      23.715   4.890  49.882  1.00  0.00     0.324 C 
HETATM    9  O4  UNL     1      24.560   3.824  49.348  1.00  0.00    -0.320 OA
HETATM   10  C16 UNL     1      25.804   3.608  49.935  1.00  0.00     0.145 C 
HETATM   11  C17 UNL     1      26.779   4.166  49.266  1.00  0.00    -0.116 C 
HETATM   12  C18 UNL     1      27.798   4.669  48.605  1.00  0.00     0.099 C 
HETATM   13  H7  UNL     1      23.619   3.022  53.569  1.00  0.00     0.154 HD
ENDROOT
BRANCH   1  14
HETATM   14  O1  UNL     1      27.477   2.854  51.549  1.00  0.00    -0.353 OA
HETATM   15  C1  UNL     1      27.804   2.160  52.736  1.00  0.00     0.210 C 
ENDBRANCH   1  14
BRANCH   5  16
HETATM   16  C6  UNL     1      20.862   2.159  52.259  1.00  0.00    -0.028 A 
HETATM   17  C7  UNL     1      19.889   2.311  51.258  1.00  0.00     0.012 A 
HETATM   18  C8  UNL     1      18.901   1.378  51.022  1.00  0.00     0.040 A 
HETATM   19  C9  UNL     1      18.837   0.233  51.786  1.00  0.00     0.101 A 
HETATM   20  C11 UNL     1      19.768   0.028  52.787  1.00  0.00     0.102 A 
HETATM   21  C13 UNL     1      20.727   0.998  52.969  1.00  0.00     0.049 A 
BRANCH  19  22
HETATM   22  O2  UNL     1      17.863  -0.737  51.591  1.00  0.00    -0.353 OA
HETATM   23  C10 UNL     1      16.592  -0.737  52.164  1.00  0.00     0.210 C 
ENDBRANCH  19  22
BRANCH  20  24
HETATM   24  O3  UNL     1      19.698  -1.106  53.539  1.00  0.00    -0.353 OA
HETATM   25  C12 UNL     1      20.726  -1.671  54.298  1.00  0.00     0.210 C 
ENDBRANCH  20  24
ENDBRANCH   5  16
TORSDOF 4
ENDMDL
MODEL 8
REMARK VINA RESULT:      -6.6      4.065      7.330
REMARK  4 active torsions:
REMARK  status: ('A' for Active; 'I' for Inactive)
REMARK    1  A    between atoms: O1_2  and  C2_3 
REMARK    2  A    between atoms: C5_7  and  C6_8 
REMARK    3  A    between atoms: C9_11  and  O2_12 
REMARK    4  A    between atoms: C11_14  and  O3_15 
ROOT
HETATM    1  C2  UNL     1      20.929   3.033  48.065  1.00  0.00     0.107 C 
HETATM    2  C3  UNL     1      22.209   2.627  48.169  1.00  0.00     0.032 C 
HETATM    3  C4  UNL     1      22.674   2.153  49.525  1.00  0.00     0.145 C 
HETATM    4  N1  UNL     1      23.586   3.073  50.048  1.00  0.00    -0.406 N 
HETATM    5  C5  UNL     1      23.881   3.083  51.429  1.00  0.00     0.151 C 
HETATM    6  C14 UNL     1      22.626   3.409  52.267  1.00  0.00     0.115 C 
HETATM    7  N2  UNL     1      21.749   3.581  51.486  1.00  0.00    -0.277 NA
HETATM    8  C15 UNL     1      20.431   3.879  51.318  1.00  0.00     0.324 C 
HETATM    9  O4  UNL     1      19.900   2.859  50.415  1.00  0.00    -0.320 OA
HETATM   10  C16 UNL     1      19.878   3.130  49.051  1.00  0.00     0.145 C 
HETATM   11  C17 UNL     1      18.705   3.532  48.636  1.00  0.00    -0.116 C 
HETATM   12  C18 UNL     1      17.534   3.895  48.163  1.00  0.00     0.099 C 
HETATM   13  H7  UNL     1      24.104   3.696  49.430  1.00  0.00     0.154 HD
ENDROOT
BRANCH   1  14
HETATM   14  O1  UNL     1      20.673   3.416  46.757  1.00  0.00    -0.353 OA
HETATM   15  C1  UNL     1      21.763   3.698  45.903  1.00  0.00     0.210 C 
ENDBRANCH   1  14
BRANCH   5  16
HETATM   16  C6  UNL     1      24.534   1.893  52.002  1.00  0.00    -0.028 A 
HETATM   17  C7  UNL     1      25.848   1.602  51.600  1.00  0.00     0.012 A 
HETATM   18  C8  UNL     1      26.560   0.523  52.081  1.00  0.00     0.040 A 
HETATM   19  C9  UNL     1      25.986  -0.328  52.999  1.00  0.00     0.101 A 
HETATM   20  C11 UNL     1      24.695  -0.093  53.434  1.00  0.00     0.102 A 
HETATM   21  C13 UNL     1      24.041   1.001  52.914  1.00  0.00     0.049 A 
BRANCH  19  22
HETATM   22  O2  UNL     1      26.659  -1.428  53.514  1.00  0.00    -0.353 OA
HETATM   23  C10 UNL     1      27.394  -2.351  52.771  1.00  0.00     0.210 C 
ENDBRANCH  19  22
BRANCH  20  24
HETATM   24  O3  UNL     1      24.134  -0.940  54.341  1.00  0.00    -0.353 OA
HETATM   25  C12 UNL     1      22.775  -1.061  54.643  1.00  0.00     0.210 C 
ENDBRANCH  20  24
ENDBRANCH   5  16
TORSDOF 4
ENDMDL
MODEL 9
REMARK VINA RESULT:      -6.4      3.646      7.577
REMARK  4 active torsions:
REMARK  status: ('A' for Active; 'I' for Inactive)
REMARK    1  A    between atoms: O1_2  and  C2_3 
REMARK    2  A    between atoms: C5_7  and  C6_8 
REMARK    3  A    between atoms: C9_11  and  O2_12 
REMARK    4  A    between atoms: C11_14  and  O3_15 
ROOT
HETATM    1  C2  UNL     1      29.385   7.045  48.508  1.00  0.00     0.107 C 
HETATM    2  C3  UNL     1      28.768   5.855  48.390  1.00  0.00     0.032 C 
HETATM    3  C4  UNL     1      27.258   5.857  48.394  1.00  0.00     0.145 C 
HETATM    4  N1  UNL     1      26.797   5.266  49.573  1.00  0.00    -0.406 N 
HETATM    5  C5  UNL     1      25.471   5.477  50.009  1.00  0.00     0.151 C 
HETATM    6  C14 UNL     1      25.211   6.969  50.311  1.00  0.00     0.115 C 
HETATM    7  N2  UNL     1      26.237   7.527  50.100  1.00  0.00    -0.277 NA
HETATM    8  C15 UNL     1      26.889   8.722  50.092  1.00  0.00     0.324 C 
HETATM    9  O4  UNL     1      27.540   8.815  48.786  1.00  0.00    -0.320 OA
HETATM   10  C16 UNL     1      28.857   8.380  48.670  1.00  0.00     0.145 C 
HETATM   11  C17 UNL     1      29.718   9.362  48.721  1.00  0.00    -0.116 C 
HETATM   12  C18 UNL     1      30.619  10.319  48.720  1.00  0.00     0.099 C 
HETATM   13  H7  UNL     1      27.389   4.618  50.091  1.00  0.00     0.154 HD
ENDROOT
BRANCH   1  14
HETATM   14  O1  UNL     1      30.758   6.857  48.470  1.00  0.00    -0.353 OA
HETATM   15  C1  UNL     1      31.267   5.658  47.922  1.00  0.00     0.210 C 
ENDBRANCH   1  14
BRANCH   5  16
HETATM   16  C6  UNL     1      24.378   4.970  49.160  1.00  0.00    -0.028 A 
HETATM   17  C7  UNL     1      23.712   5.882  48.326  1.00  0.00     0.012 A 
HETATM   18  C8  UNL     1      22.685   5.517  47.480  1.00  0.00     0.040 A 
HETATM   19  C9  UNL     1      22.269   4.205  47.429  1.00  0.00     0.101 A 
HETATM   20  C11 UNL     1      22.887   3.261  48.227  1.00  0.00     0.102 A 
HETATM   21  C13 UNL     1      23.904   3.693  49.047  1.00  0.00     0.049 A 
BRANCH  19  22
HETATM   22  O2  UNL     1      21.240   3.785  46.596  1.00  0.00    -0.353 OA
HETATM   23  C10 UNL     1      21.230   3.881  45.205  1.00  0.00     0.210 C 
ENDBRANCH  19  22
BRANCH  20  24
HETATM   24  O3  UNL     1      22.468   1.965  48.171  1.00  0.00    -0.353 OA
HETATM   25  C12 UNL     1      21.627   1.318  49.080  1.00  0.00     0.210 C 
ENDBRANCH  20  24
ENDBRANCH   5  16
TORSDOF 4
ENDMDL
