MODEL 1
REMARK VINA RESULT:      -7.1      0.000      0.000
REMARK  2 active torsions:
REMARK  status: ('A' for Active; 'I' for Inactive)
REMARK    1  A    between atoms: C2_2  and  C3_3 
REMARK    2  A    between atoms: C12_15  and  N3_16 
ROOT
HETATM    1  C3  UNL     1      19.896   4.477  48.221  1.00  0.00    -0.016 C 
HETATM    2  C4  UNL     1      19.967   3.599  49.313  1.00  0.00     0.057 A 
HETATM    3  C5  UNL     1      19.884   3.879  50.880  1.00  0.00     0.023 A 
HETATM    4  C6  UNL     1      19.977   2.882  49.997  1.00  0.00     0.055 A 
HETATM    5  C7  UNL     1      20.070   1.643  49.285  1.00  0.00     0.106 C 
HETATM    6  S1  UNL     1      21.748   1.358  48.638  1.00  0.00    -0.166 SA
HETATM    7  C8  UNL     1      22.691   2.623  47.895  1.00  0.00     0.081 C 
HETATM    8  C9  UNL     1      23.456   3.511  48.864  1.00  0.00     0.088 C 
HETATM    9  C10 UNL     1      22.585   4.059  49.894  1.00  0.00     0.096 C 
HETATM   10  N1  UNL     1      21.540   4.755  49.570  1.00  0.00    -0.276 NA
HETATM   11  C11 UNL     1      20.738   5.196  50.747  1.00  0.00     0.164 C 
HETATM   12  N2  UNL     1      23.030   3.954  51.302  1.00  0.00    -0.349 N 
HETATM   13  C12 UNL     1      23.447   3.808  52.677  1.00  0.00     0.322 C 
HETATM   14  C13 UNL     1      24.542   2.866  52.904  1.00  0.00     0.049 A 
HETATM   15  C14 UNL     1      24.705   1.584  53.082  1.00  0.00     0.005 A 
HETATM   16  C15 UNL     1      23.272   1.673  52.934  1.00  0.00     0.076 A 
HETATM   17  C16 UNL     1      22.611   0.454  53.016  1.00  0.00     0.034 A 
HETATM   18 CL1  UNL     1      22.155  -1.260  53.181  1.00  0.00    -0.204 Cl
HETATM   19  C17 UNL     1      21.215   0.089  52.522  1.00  0.00     0.122 A 
HETATM   20  C18 UNL     1      20.719   1.243  51.962  1.00  0.00     0.079 C 
HETATM   21  N4  UNL     1      19.753   2.119  51.274  1.00  0.00    -0.385 N 
HETATM   22  C19 UNL     1      18.463   2.077  51.957  1.00  0.00     0.149 C 
HETATM   23  H14 UNL     1      23.414   4.916  51.021  1.00  0.00     0.163 HD
ENDROOT
BRANCH   1  24
HETATM   24  C2  UNL     1      19.723   5.903  47.831  1.00  0.00    -0.010 C 
HETATM   25  C1  UNL     1      19.310   7.195  47.906  1.00  0.00     0.005 C 
ENDBRANCH   1  24
BRANCH  13  26
HETATM   26  N3  UNL     1      23.793   5.107  53.219  1.00  0.00     0.101 N 
HETATM   27  H16 UNL     1      23.132   5.807  52.825  1.00  0.00     0.315 HD
HETATM   28  H17 UNL     1      24.743   5.376  52.899  1.00  0.00     0.315 HD
ENDBRANCH  13  26
TORSDOF 2
ENDMDL
MODEL 2
REMARK VINA RESULT:      -6.8     11.086     13.298
REMARK  2 active torsions:
REMARK  status: ('A' for Active; 'I' for Inactive)
REMARK    1  A    between atoms: C2_2  and  C3_3 
REMARK    2  A    between atoms: C12_15  and  N3_16 
ROOT
HETATM    1  C3  UNL     1      31.159   9.434  48.996  1.00  0.00    -0.016 C 
HETATM    2  C4  UNL     1      32.153   8.549  48.549  1.00  0.00     0.057 A 
HETATM    3  C5  UNL     1      33.447   8.804  47.654  1.00  0.00     0.023 A 
HETATM    4  C6  UNL     1      32.818   7.846  48.339  1.00  0.00     0.055 A 
HETATM    5  C7  UNL     1      32.367   6.653  48.988  1.00  0.00     0.106 C 
HETATM    6  S1  UNL     1      30.959   5.896  48.115  1.00  0.00    -0.166 SA
HETATM    7  C8  UNL     1      29.642   6.840  47.470  1.00  0.00     0.081 C 
HETATM    8  C9  UNL     1      29.890   7.437  46.094  1.00  0.00     0.088 C 
HETATM    9  C10 UNL     1      31.133   8.195  46.052  1.00  0.00     0.096 C 
HETATM   10  N1  UNL     1      31.331   9.178  46.873  1.00  0.00    -0.276 NA
HETATM   11  C11 UNL     1      32.673   9.810  46.721  1.00  0.00     0.164 C 
HETATM   12  N2  UNL     1      32.065   7.929  44.933  1.00  0.00    -0.349 N 
HETATM   13  C12 UNL     1      32.992   7.634  43.866  1.00  0.00     0.322 C 
HETATM   14  C13 UNL     1      32.723   6.403  43.123  1.00  0.00     0.049 A 
HETATM   15  C14 UNL     1      32.974   5.127  43.226  1.00  0.00     0.005 A 
HETATM   16  C15 UNL     1      33.620   5.643  44.409  1.00  0.00     0.076 A 
HETATM   17  C16 UNL     1      34.232   4.674  45.194  1.00  0.00     0.034 A 
HETATM   18 CL1  UNL     1      34.874   3.170  45.901  1.00  0.00    -0.204 Cl
HETATM   19  C17 UNL     1      34.642   4.752  46.661  1.00  0.00     0.122 A 
HETATM   20  C18 UNL     1      34.278   6.015  47.068  1.00  0.00     0.079 C 
HETATM   21  N4  UNL     1      34.108   7.154  47.989  1.00  0.00    -0.385 N 
HETATM   22  C19 UNL     1      35.382   7.482  48.622  1.00  0.00     0.149 C 
HETATM   23  H14 UNL     1      31.480   8.740  44.543  1.00  0.00     0.163 HD
ENDROOT
BRANCH   1  24
HETATM   24  C2  UNL     1      30.719  10.856  48.983  1.00  0.00    -0.010 C 
HETATM   25  C1  UNL     1      30.814  12.211  48.991  1.00  0.00     0.005 C 
ENDBRANCH   1  24
BRANCH  13  26
HETATM   26  N3  UNL     1      33.056   8.758  42.953  1.00  0.00     0.101 N 
HETATM   27  H16 UNL     1      32.414   8.564  42.158  1.00  0.00     0.315 HD
HETATM   28  H17 UNL     1      34.013   8.830  42.557  1.00  0.00     0.315 HD
ENDBRANCH  13  26
TORSDOF 2
ENDMDL
MODEL 3
REMARK VINA RESULT:      -6.7      3.140      4.292
REMARK  2 active torsions:
REMARK  status: ('A' for Active; 'I' for Inactive)
REMARK    1  A    between atoms: C2_2  and  C3_3 
REMARK    2  A    between atoms: C12_15  and  N3_16 
ROOT
HETATM    1  C3  UNL     1      20.383   6.703  49.594  1.00  0.00    -0.016 C 
HETATM    2  C4  UNL     1      21.428   5.972  50.180  1.00  0.00     0.057 A 
HETATM    3  C5  UNL     1      22.587   6.429  51.174  1.00  0.00     0.023 A 
HETATM    4  C6  UNL     1      22.087   5.347  50.573  1.00  0.00     0.055 A 
HETATM    5  C7  UNL     1      21.763   4.046  50.071  1.00  0.00     0.106 C 
HETATM    6  S1  UNL     1      22.270   3.842  48.334  1.00  0.00    -0.166 SA
HETATM    7  C8  UNL     1      22.037   5.092  47.140  1.00  0.00     0.081 C 
HETATM    8  C9  UNL     1      23.121   6.156  47.100  1.00  0.00     0.088 C 
HETATM    9  C10 UNL     1      23.351   6.740  48.414  1.00  0.00     0.096 C 
HETATM   10  N1  UNL     1      22.377   7.292  49.068  1.00  0.00    -0.276 NA
HETATM   11  C11 UNL     1      22.780   7.794  50.412  1.00  0.00     0.164 C 
HETATM   12  N2  UNL     1      24.750   6.846  48.887  1.00  0.00    -0.349 N 
HETATM   13  C12 UNL     1      26.112   6.905  49.364  1.00  0.00     0.322 C 
HETATM   14  C13 UNL     1      27.075   6.103  48.611  1.00  0.00     0.049 A 
HETATM   15  C14 UNL     1      27.506   4.872  48.580  1.00  0.00     0.005 A 
HETATM   16  C15 UNL     1      26.537   4.809  49.648  1.00  0.00     0.076 A 
HETATM   17  C16 UNL     1      26.402   3.552  50.224  1.00  0.00     0.034 A 
HETATM   18 CL1  UNL     1      26.526   1.835  50.682  1.00  0.00    -0.204 Cl
HETATM   19  C17 UNL     1      25.247   3.003  51.055  1.00  0.00     0.122 A 
HETATM   20  C18 UNL     1      24.337   4.030  51.129  1.00  0.00     0.079 C 
HETATM   21  N4  UNL     1      23.091   4.724  51.505  1.00  0.00    -0.385 N 
HETATM   22  C19 UNL     1      22.889   4.644  52.949  1.00  0.00     0.149 C 
HETATM   23  H14 UNL     1      24.604   7.799  48.416  1.00  0.00     0.163 HD
ENDROOT
BRANCH   1  24
HETATM   24  C2  UNL     1      19.755   8.051  49.509  1.00  0.00    -0.010 C 
HETATM   25  C1  UNL     1      19.409   9.311  49.878  1.00  0.00     0.005 C 
ENDBRANCH   1  24
BRANCH  13  26
HETATM   26  N3  UNL     1      26.550   8.286  49.412  1.00  0.00     0.101 N 
HETATM   27  H16 UNL     1      27.541   8.321  49.099  1.00  0.00     0.315 HD
HETATM   28  H17 UNL     1      26.531   8.622  50.394  1.00  0.00     0.315 HD
ENDBRANCH  13  26
TORSDOF 2
ENDMDL
MODEL 4
REMARK VINA RESULT:      -6.7      3.387      5.991
REMARK  2 active torsions:
REMARK  status: ('A' for Active; 'I' for Inactive)
REMARK    1  A    between atoms: C2_2  and  C3_3 
REMARK    2  A    between atoms: C12_15  and  N3_16 
ROOT
HETATM    1  C3  UNL     1      22.952   1.841  52.090  1.00  0.00    -0.016 C 
HETATM    2  C4  UNL     1      22.835   2.418  50.816  1.00  0.00     0.057 A 
HETATM    3  C5  UNL     1      23.838   2.416  49.577  1.00  0.00     0.023 A 
HETATM    4  C6  UNL     1      22.618   2.820  49.937  1.00  0.00     0.055 A 
HETATM    5  C7  UNL     1      21.293   3.352  50.050  1.00  0.00     0.106 C 
HETATM    6  S1  UNL     1      21.261   4.895  51.017  1.00  0.00    -0.166 SA
HETATM    7  C8  UNL     1      22.186   5.100  52.481  1.00  0.00     0.081 C 
HETATM    8  C9  UNL     1      23.633   5.518  52.276  1.00  0.00     0.088 C 
HETATM    9  C10 UNL     1      24.325   4.630  51.353  1.00  0.00     0.096 C 
HETATM   10  N1  UNL     1      24.385   3.356  51.587  1.00  0.00    -0.276 NA
HETATM   11  C11 UNL     1      25.089   2.594  50.517  1.00  0.00     0.164 C 
HETATM   12  N2  UNL     1      25.105   5.246  50.257  1.00  0.00    -0.349 N 
HETATM   13  C12 UNL     1      25.827   5.851  49.161  1.00  0.00     0.322 C 
HETATM   14  C13 UNL     1      25.537   7.264  48.923  1.00  0.00     0.049 A 
HETATM   15  C14 UNL     1      24.657   7.985  48.284  1.00  0.00     0.005 A 
HETATM   16  C15 UNL     1      24.200   6.647  47.989  1.00  0.00     0.076 A 
HETATM   17  C16 UNL     1      23.062   6.594  47.195  1.00  0.00     0.034 A 
HETATM   18 CL1  UNL     1      21.635   6.946  46.189  1.00  0.00    -0.204 Cl
HETATM   19  C17 UNL     1      22.077   5.443  47.015  1.00  0.00     0.122 A 
HETATM   20  C18 UNL     1      22.554   4.433  47.817  1.00  0.00     0.079 C 
HETATM   21  N4  UNL     1      22.594   3.107  48.460  1.00  0.00    -0.385 N 
HETATM   22  C19 UNL     1      22.506   2.056  47.450  1.00  0.00     0.149 C 
HETATM   23  H14 UNL     1      25.850   5.139  51.022  1.00  0.00     0.163 HD
ENDROOT
BRANCH   1  24
HETATM   24  C2  UNL     1      23.836   1.023  52.965  1.00  0.00    -0.010 C 
HETATM   25  C1  UNL     1      24.702   0.041  53.325  1.00  0.00     0.005 C 
ENDBRANCH   1  24
BRANCH  13  26
HETATM   26  N3  UNL     1      27.251   5.665  49.357  1.00  0.00     0.101 N 
HETATM   27  H16 UNL     1      27.431   4.646  49.464  1.00  0.00     0.315 HD
HETATM   28  H17 UNL     1      27.541   6.117  50.246  1.00  0.00     0.315 HD
ENDBRANCH  13  26
TORSDOF 2
ENDMDL
MODEL 5
REMARK VINA RESULT:      -6.7      2.432      4.410
REMARK  2 active torsions:
REMARK  status: ('A' for Active; 'I' for Inactive)
REMARK    1  A    between atoms: C2_2  and  C3_3 
REMARK    2  A    between atoms: C12_15  and  N3_16 
ROOT
HETATM    1  C3  UNL     1      23.054   6.014  48.191  1.00  0.00    -0.016 C 
HETATM    2  C4  UNL     1      23.802   5.109  48.958  1.00  0.00     0.057 A 
HETATM    3  C5  UNL     1      24.167   3.579  48.699  1.00  0.00     0.023 A 
HETATM    4  C6  UNL     1      24.389   4.580  49.555  1.00  0.00     0.055 A 
HETATM    5  C7  UNL     1      24.794   5.458  50.610  1.00  0.00     0.106 C 
HETATM    6  S1  UNL     1      23.453   5.740  51.810  1.00  0.00    -0.166 SA
HETATM    7  C8  UNL     1      21.801   6.008  51.320  1.00  0.00     0.081 C 
HETATM    8  C9  UNL     1      20.996   4.748  51.050  1.00  0.00     0.088 C 
HETATM    9  C10 UNL     1      21.673   3.867  50.109  1.00  0.00     0.096 C 
HETATM   10  N1  UNL     1      22.009   4.295  48.933  1.00  0.00    -0.276 NA
HETATM   11  C11 UNL     1      22.734   3.276  48.121  1.00  0.00     0.164 C 
HETATM   12  N2  UNL     1      21.792   2.435  50.468  1.00  0.00    -0.349 N 
HETATM   13  C12 UNL     1      21.947   1.049  50.843  1.00  0.00     0.322 C 
HETATM   14  C13 UNL     1      21.679   0.746  52.248  1.00  0.00     0.049 A 
HETATM   15  C14 UNL     1      22.313   0.764  53.388  1.00  0.00     0.005 A 
HETATM   16  C15 UNL     1      23.339   1.222  52.483  1.00  0.00     0.076 A 
HETATM   17  C16 UNL     1      24.553   1.512  53.093  1.00  0.00     0.034 A 
HETATM   18 CL1  UNL     1      25.905   1.764  54.225  1.00  0.00    -0.204 Cl
HETATM   19  C17 UNL     1      25.701   2.372  52.575  1.00  0.00     0.122 A 
HETATM   20  C18 UNL     1      25.287   2.818  51.341  1.00  0.00     0.079 C 
HETATM   21  N4  UNL     1      25.358   3.545  50.060  1.00  0.00    -0.385 N 
HETATM   22  C19 UNL     1      26.587   3.196  49.353  1.00  0.00     0.149 C 
HETATM   23  H14 UNL     1      20.879   2.445  49.904  1.00  0.00     0.163 HD
ENDROOT
BRANCH   1  24
HETATM   24  C2  UNL     1      22.287   6.175  46.925  1.00  0.00    -0.010 C 
HETATM   25  C1  UNL     1      21.990   6.073  45.604  1.00  0.00     0.005 C 
ENDBRANCH   1  24
BRANCH  13  26
HETATM   26  N3  UNL     1      21.118   0.220  49.992  1.00  0.00     0.101 N 
HETATM   27  H16 UNL     1      21.659   0.000  49.131  1.00  0.00     0.315 HD
HETATM   28  H17 UNL     1      20.281   0.758  49.693  1.00  0.00     0.315 HD
ENDBRANCH  13  26
TORSDOF 2
ENDMDL
MODEL 6
REMARK VINA RESULT:      -6.7     11.408     13.617
REMARK  2 active torsions:
REMARK  status: ('A' for Active; 'I' for Inactive)
REMARK    1  A    between atoms: C2_2  and  C3_3 
REMARK    2  A    between atoms: C12_15  and  N3_16 
ROOT
HETATM    1  C3  UNL     1      31.359   9.359  48.060  1.00  0.00    -0.016 C 
HETATM    2  C4  UNL     1      31.830   8.870  46.831  1.00  0.00     0.057 A 
HETATM    3  C5  UNL     1      31.172   7.851  45.797  1.00  0.00     0.023 A 
HETATM    4  C6  UNL     1      32.238   8.637  45.960  1.00  0.00     0.055 A 
HETATM    5  C7  UNL     1      33.457   9.382  45.871  1.00  0.00     0.106 C 
HETATM    6  S1  UNL     1      34.763   8.678  46.926  1.00  0.00    -0.166 SA
HETATM    7  C8  UNL     1      34.451   8.108  48.545  1.00  0.00     0.081 C 
HETATM    8  C9  UNL     1      33.918   6.687  48.636  1.00  0.00     0.088 C 
HETATM    9  C10 UNL     1      32.748   6.495  47.791  1.00  0.00     0.096 C 
HETATM   10  N1  UNL     1      31.701   7.245  47.937  1.00  0.00    -0.276 NA
HETATM   11  C11 UNL     1      30.618   6.942  46.958  1.00  0.00     0.164 C 
HETATM   12  N2  UNL     1      32.726   5.312  46.901  1.00  0.00    -0.349 N 
HETATM   13  C12 UNL     1      32.730   4.182  46.001  1.00  0.00     0.322 C 
HETATM   14  C13 UNL     1      34.025   3.529  45.819  1.00  0.00     0.049 A 
HETATM   15  C14 UNL     1      35.095   3.673  45.087  1.00  0.00     0.005 A 
HETATM   16  C15 UNL     1      34.278   4.766  44.617  1.00  0.00     0.076 A 
HETATM   17  C16 UNL     1      34.871   5.540  43.628  1.00  0.00     0.034 A 
HETATM   18 CL1  UNL     1      35.953   6.261  42.410  1.00  0.00    -0.204 Cl
HETATM   19  C17 UNL     1      34.524   6.959  43.189  1.00  0.00     0.122 A 
HETATM   20  C18 UNL     1      33.468   7.333  43.988  1.00  0.00     0.079 C 
HETATM   21  N4  UNL     1      32.410   8.207  44.528  1.00  0.00    -0.385 N 
HETATM   22  C19 UNL     1      31.569   8.706  43.444  1.00  0.00     0.149 C 
HETATM   23  H14 UNL     1      32.236   4.936  47.779  1.00  0.00     0.163 HD
ENDROOT
BRANCH   1  24
HETATM   24  C2  UNL     1      30.221   9.315  49.018  1.00  0.00    -0.010 C 
HETATM   25  C1  UNL     1      28.938   9.233  49.456  1.00  0.00     0.005 C 
ENDBRANCH   1  24
BRANCH  13  26
HETATM   26  N3  UNL     1      31.745   3.212  46.437  1.00  0.00     0.101 N 
HETATM   27  H16 UNL     1      32.231   2.495  47.013  1.00  0.00     0.315 HD
HETATM   28  H17 UNL     1      31.352   2.720  45.611  1.00  0.00     0.315 HD
ENDBRANCH  13  26
TORSDOF 2
ENDMDL
MODEL 7
REMARK VINA RESULT:      -6.5      2.364      4.212
REMARK  2 active torsions:
REMARK  status: ('A' for Active; 'I' for Inactive)
REMARK    1  A    between atoms: C2_2  and  C3_3 
REMARK    2  A    between atoms: C12_15  and  N3_16 
ROOT
HETATM    1  C3  UNL     1      19.199   1.534  50.808  1.00  0.00    -0.016 C 
HETATM    2  C4  UNL     1      20.564   1.820  50.961  1.00  0.00     0.057 A 
HETATM    3  C5  UNL     1      21.322   2.737  52.022  1.00  0.00     0.023 A 
HETATM    4  C6  UNL     1      21.550   1.905  51.003  1.00  0.00     0.055 A 
HETATM    5  C7  UNL     1      22.075   1.069  49.966  1.00  0.00     0.106 C 
HETATM    6  S1  UNL     1      21.856   1.813  48.318  1.00  0.00    -0.166 SA
HETATM    7  C8  UNL     1      20.381   2.615  47.843  1.00  0.00     0.081 C 
HETATM    8  C9  UNL     1      20.272   4.069  48.271  1.00  0.00     0.088 C 
HETATM    9  C10 UNL     1      20.505   4.230  49.699  1.00  0.00     0.096 C 
HETATM   10  N1  UNL     1      19.783   3.583  50.560  1.00  0.00    -0.276 NA
HETATM   11  C11 UNL     1      20.189   3.829  51.973  1.00  0.00     0.164 C 
HETATM   12  N2  UNL     1      21.452   5.282  50.130  1.00  0.00    -0.349 N 
HETATM   13  C12 UNL     1      22.412   6.280  50.543  1.00  0.00     0.322 C 
HETATM   14  C13 UNL     1      23.265   6.808  49.479  1.00  0.00     0.049 A 
HETATM   15  C14 UNL     1      24.375   6.492  48.871  1.00  0.00     0.005 A 
HETATM   16  C15 UNL     1      24.247   5.408  49.815  1.00  0.00     0.076 A 
HETATM   17  C16 UNL     1      25.267   4.468  49.749  1.00  0.00     0.034 A 
HETATM   18 CL1  UNL     1      26.721   3.516  49.358  1.00  0.00    -0.204 Cl
HETATM   19  C17 UNL     1      25.278   3.032  50.263  1.00  0.00     0.122 A 
HETATM   20  C18 UNL     1      24.038   2.843  50.828  1.00  0.00     0.079 C 
HETATM   21  N4  UNL     1      22.948   2.127  51.515  1.00  0.00    -0.385 N 
HETATM   22  C19 UNL     1      23.436   1.549  52.764  1.00  0.00     0.149 C 
HETATM   23  H14 UNL     1      20.516   5.806  50.156  1.00  0.00     0.163 HD
ENDROOT
BRANCH   1  24
HETATM   24  C2  UNL     1      17.845   1.786  51.372  1.00  0.00    -0.010 C 
HETATM   25  C1  UNL     1      16.542   2.167  51.414  1.00  0.00     0.005 C 
ENDBRANCH   1  24
BRANCH  13  26
HETATM   26  N3  UNL     1      21.725   7.366  51.212  1.00  0.00     0.101 N 
HETATM   27  H16 UNL     1      21.942   8.247  50.702  1.00  0.00     0.315 HD
HETATM   28  H17 UNL     1      22.101   7.475  52.174  1.00  0.00     0.315 HD
ENDBRANCH  13  26
TORSDOF 2
ENDMDL
MODEL 8
REMARK VINA RESULT:      -6.5     10.275     12.261
REMARK  2 active torsions:
REMARK  status: ('A' for Active; 'I' for Inactive)
REMARK    1  A    between atoms: C2_2  and  C3_3 
REMARK    2  A    between atoms: C12_15  and  N3_16 
ROOT
HETATM    1  C3  UNL     1      30.203  10.153  48.607  1.00  0.00    -0.016 C 
HETATM    2  C4  UNL     1      30.706   8.844  48.556  1.00  0.00     0.057 A 
HETATM    3  C5  UNL     1      32.198   8.298  48.685  1.00  0.00     0.023 A 
HETATM    4  C6  UNL     1      30.937   7.881  48.556  1.00  0.00     0.055 A 
HETATM    5  C7  UNL     1      29.703   7.167  48.428  1.00  0.00     0.106 C 
HETATM    6  S1  UNL     1      29.050   7.240  46.729  1.00  0.00    -0.166 SA
HETATM    7  C8  UNL     1      29.073   8.704  45.781  1.00  0.00     0.081 C 
HETATM    8  C9  UNL     1      30.380   8.981  45.055  1.00  0.00     0.088 C 
HETATM    9  C10 UNL     1      31.519   8.940  45.961  1.00  0.00     0.096 C 
HETATM   10  N1  UNL     1      31.558   9.709  47.004  1.00  0.00    -0.276 NA
HETATM   11  C11 UNL     1      32.771   9.500  47.844  1.00  0.00     0.164 C 
HETATM   12  N2  UNL     1      32.696   8.140  45.553  1.00  0.00    -0.349 N 
HETATM   13  C12 UNL     1      33.823   7.321  45.173  1.00  0.00     0.322 C 
HETATM   14  C13 UNL     1      33.578   6.389  44.073  1.00  0.00     0.049 A 
HETATM   15  C14 UNL     1      33.093   5.190  43.900  1.00  0.00     0.005 A 
HETATM   16  C15 UNL     1      32.966   5.347  45.330  1.00  0.00     0.076 A 
HETATM   17  C16 UNL     1      32.404   4.254  45.978  1.00  0.00     0.034 A 
HETATM   18 CL1  UNL     1      31.671   2.692  46.417  1.00  0.00    -0.204 Cl
HETATM   19  C17 UNL     1      31.751   4.192  47.354  1.00  0.00     0.122 A 
HETATM   20  C18 UNL     1      31.833   5.473  47.849  1.00  0.00     0.079 C 
HETATM   21  N4  UNL     1      31.650   6.579  48.806  1.00  0.00    -0.385 N 
HETATM   22  C19 UNL     1      32.180   6.204  50.114  1.00  0.00     0.149 C 
HETATM   23  H14 UNL     1      32.949   9.111  45.174  1.00  0.00     0.163 HD
ENDROOT
BRANCH   1  24
HETATM   24  C2  UNL     1      30.578  11.582  48.786  1.00  0.00    -0.010 C 
HETATM   25  C1  UNL     1      30.524  12.855  49.255  1.00  0.00     0.005 C 
ENDBRANCH   1  24
BRANCH  13  26
HETATM   26  N3  UNL     1      34.955   8.169  44.859  1.00  0.00     0.101 N 
HETATM   27  H16 UNL     1      34.700   9.149  45.100  1.00  0.00     0.315 HD
HETATM   28  H17 UNL     1      35.133   8.147  43.837  1.00  0.00     0.315 HD
ENDBRANCH  13  26
TORSDOF 2
ENDMDL
MODEL 9
REMARK VINA RESULT:      -6.3      8.574     10.762
REMARK  2 active torsions:
REMARK  status: ('A' for Active; 'I' for Inactive)
REMARK    1  A    between atoms: C2_2  and  C3_3 
REMARK    2  A    between atoms: C12_15  and  N3_16 
ROOT
HETATM    1  C3  UNL     1      26.284   6.390  48.379  1.00  0.00    -0.016 C 
HETATM    2  C4  UNL     1      26.591   7.452  47.514  1.00  0.00     0.057 A 
HETATM    3  C5  UNL     1      27.873   7.714  46.604  1.00  0.00     0.023 A 
HETATM    4  C6  UNL     1      26.674   8.222  46.897  1.00  0.00     0.055 A 
HETATM    5  C7  UNL     1      25.459   8.970  47.015  1.00  0.00     0.106 C 
HETATM    6  S1  UNL     1      25.400   9.929  48.563  1.00  0.00    -0.166 SA
HETATM    7  C8  UNL     1      25.927   9.272  50.090  1.00  0.00     0.081 C 
HETATM    8  C9  UNL     1      27.423   9.363  50.349  1.00  0.00     0.088 C 
HETATM    9  C10 UNL     1      28.195   8.795  49.254  1.00  0.00     0.096 C 
HETATM   10  N1  UNL     1      28.005   7.568  48.882  1.00  0.00    -0.276 NA
HETATM   11  C11 UNL     1      28.845   7.169  47.717  1.00  0.00     0.164 C 
HETATM   12  N2  UNL     1      29.318   9.595  48.714  1.00  0.00    -0.349 N 
HETATM   13  C12 UNL     1      30.383  10.399  48.160  1.00  0.00     0.322 C 
HETATM   14  C13 UNL     1      30.376  11.807  48.554  1.00  0.00     0.049 A 
HETATM   15  C14 UNL     1      29.810  12.921  48.180  1.00  0.00     0.005 A 
HETATM   16  C15 UNL     1      29.256  11.986  47.230  1.00  0.00     0.076 A 
HETATM   17  C16 UNL     1      28.371  12.551  46.320  1.00  0.00     0.034 A 
HETATM   18 CL1  UNL     1      27.327  13.631  45.363  1.00  0.00    -0.204 Cl
HETATM   19  C17 UNL     1      27.311  11.863  45.467  1.00  0.00     0.122 A 
HETATM   20  C18 UNL     1      27.407  10.528  45.781  1.00  0.00     0.079 C 
HETATM   21  N4  UNL     1      27.082   9.090  45.738  1.00  0.00    -0.385 N 
HETATM   22  C19 UNL     1      27.110   8.611  44.359  1.00  0.00     0.149 C 
HETATM   23  H14 UNL     1      29.811   8.999  49.458  1.00  0.00     0.163 HD
ENDROOT
BRANCH   1  24
HETATM   24  C2  UNL     1      26.776   5.092  48.915  1.00  0.00    -0.010 C 
HETATM   25  C1  UNL     1      26.733   3.816  49.379  1.00  0.00     0.005 C 
ENDBRANCH   1  24
BRANCH  13  26
HETATM   26  N3  UNL     1      31.662   9.801  48.487  1.00  0.00     0.101 N 
HETATM   27  H16 UNL     1      31.856   9.984  49.492  1.00  0.00     0.315 HD
HETATM   28  H17 UNL     1      32.413  10.269  47.944  1.00  0.00     0.315 HD
ENDBRANCH  13  26
TORSDOF 2
ENDMDL
