MODEL 1
REMARK VINA RESULT:      -9.4      0.000      0.000
REMARK  4 active torsions:
REMARK  status: ('A' for Active; 'I' for Inactive)
REMARK    1  A    between atoms: C12_14  and  N3_15 
REMARK    2  A    between atoms: C17_22  and  O3_23 
REMARK    3  A    between atoms: O3_23  and  C18_24 
REMARK    4  A    between atoms: C18_24  and  C19_25 
ROOT
HETATM    1  C1  UNL     1      17.391  -1.249  52.928  1.00  0.00     0.018 C 
HETATM    2  C2  UNL     1      18.569  -0.939  53.066  1.00  0.00    -0.075 C 
HETATM    3  C3  UNL     1      19.948  -0.589  53.249  1.00  0.00     0.044 A 
HETATM    4  C4  UNL     1      20.608  -1.301  54.235  1.00  0.00     0.023 A 
HETATM    5  C5  UNL     1      21.933  -1.007  54.456  1.00  0.00     0.002 A 
HETATM    6  C6  UNL     1      22.521  -0.028  53.688  1.00  0.00     0.012 A 
HETATM    7  C7  UNL     1      21.893   0.696  52.702  1.00  0.00     0.015 A 
HETATM    8  C8  UNL     1      20.531   0.403  52.465  1.00  0.00     0.061 A 
HETATM    9  N1  UNL     1      19.453   0.852  51.595  1.00  0.00    -0.349 N 
HETATM   10  C9  UNL     1      19.207   2.095  50.867  1.00  0.00     0.208 C 
HETATM   11  N2  UNL     1      19.881   3.265  50.922  1.00  0.00    -0.244 NA
HETATM   12  C10 UNL     1      21.287   3.439  51.303  1.00  0.00     0.057 C 
HETATM   13  C11 UNL     1      21.979   2.976  52.374  1.00  0.00     0.054 C 
HETATM   14  C12 UNL     1      22.700   1.662  52.029  1.00  0.00     0.236 C 
HETATM   15  C13 UNL     1      24.050   2.005  52.151  1.00  0.00     0.228 C 
HETATM   16  O1  UNL     1      24.898   0.862  52.126  1.00  0.00    -0.374 OA
HETATM   17  C14 UNL     1      26.178   1.245  52.586  1.00  0.00     0.195 C 
HETATM   18  C15 UNL     1      26.799   1.972  51.414  1.00  0.00     0.201 C 
HETATM   19  O2  UNL     1      25.932   2.985  51.006  1.00  0.00    -0.348 OA
HETATM   20  C16 UNL     1      24.530   2.910  51.056  1.00  0.00     0.111 C 
HETATM   21  C17 UNL     1      24.237   3.735  50.036  1.00  0.00     0.100 C 
HETATM   22  C23 UNL     1      22.961   4.255  49.566  1.00  0.00     0.041 C 
HETATM   23  C24 UNL     1      21.720   4.214  50.114  1.00  0.00     0.034 C 
HETATM   24  H5  UNL     1      18.704   0.142  51.465  1.00  0.00     0.166 HD
ENDROOT
BRANCH  14  25
HETATM   25  N3  UNL     1      22.563   1.335  50.584  1.00  0.00     0.099 N 
HETATM   26  H8  UNL     1      22.524   0.332  50.405  1.00  0.00     0.314 HD
HETATM   27  H9  UNL     1      21.770   1.804  50.144  1.00  0.00     0.314 HD
ENDBRANCH  14  25
BRANCH  21  28
HETATM   28  O3  UNL     1      25.229   4.244  49.222  1.00  0.00    -0.346 OA
BRANCH  28  29
HETATM   29  C18 UNL     1      25.318   5.630  48.947  1.00  0.00     0.207 C 
BRANCH  29  30
HETATM   30  C19 UNL     1      26.747   6.116  48.887  1.00  0.00     0.145 C 
HETATM   31  C20 UNL     1      27.725   5.002  48.576  1.00  0.00     0.036 C 
HETATM   32  C21 UNL     1      28.954   5.834  48.198  1.00  0.00     0.029 C 
HETATM   33  C22 UNL     1      28.309   7.071  47.651  1.00  0.00     0.168 C 
HETATM   34  O4  UNL     1      26.948   6.984  47.812  1.00  0.00    -0.384 OA
ENDBRANCH  29  30
ENDBRANCH  28  29
ENDBRANCH  21  28
TORSDOF 4
ENDMDL
MODEL 2
REMARK VINA RESULT:      -9.3      3.113      4.520
REMARK  4 active torsions:
REMARK  status: ('A' for Active; 'I' for Inactive)
REMARK    1  A    between atoms: C12_14  and  N3_15 
REMARK    2  A    between atoms: C17_22  and  O3_23 
REMARK    3  A    between atoms: O3_23  and  C18_24 
REMARK    4  A    between atoms: C18_24  and  C19_25 
ROOT
HETATM    1  C1  UNL     1      15.819   0.307  48.816  1.00  0.00     0.018 C 
HETATM    2  C2  UNL     1      16.552   0.105  49.777  1.00  0.00    -0.075 C 
HETATM    3  C3  UNL     1      17.390  -0.139  50.916  1.00  0.00     0.044 A 
HETATM    4  C4  UNL     1      16.790  -0.842  51.946  1.00  0.00     0.023 A 
HETATM    5  C5  UNL     1      17.546  -1.104  53.064  1.00  0.00     0.002 A 
HETATM    6  C6  UNL     1      18.846  -0.653  53.094  1.00  0.00     0.012 A 
HETATM    7  C7  UNL     1      19.470   0.047  52.088  1.00  0.00     0.015 A 
HETATM    8  C8  UNL     1      18.704   0.323  50.933  1.00  0.00     0.061 A 
HETATM    9  N1  UNL     1      18.863   0.997  49.653  1.00  0.00    -0.349 N 
HETATM   10  C9  UNL     1      19.765   2.046  49.179  1.00  0.00     0.208 C 
HETATM   11  N2  UNL     1      20.642   2.798  49.879  1.00  0.00    -0.244 NA
HETATM   12  C10 UNL     1      21.283   2.429  51.147  1.00  0.00     0.057 C 
HETATM   13  C11 UNL     1      20.756   1.949  52.300  1.00  0.00     0.054 C 
HETATM   14  C12 UNL     1      20.828   0.413  52.332  1.00  0.00     0.236 C 
HETATM   15  C13 UNL     1      21.687   0.163  53.407  1.00  0.00     0.228 C 
HETATM   16  O1  UNL     1      21.692  -1.210  53.781  1.00  0.00    -0.374 OA
HETATM   17  C14 UNL     1      22.299  -1.325  55.053  1.00  0.00     0.195 C 
HETATM   18  C15 UNL     1      23.780  -1.194  54.777  1.00  0.00     0.201 C 
HETATM   19  O2  UNL     1      24.000  -0.017  54.062  1.00  0.00    -0.348 OA
HETATM   20  C16 UNL     1      23.113   0.526  53.119  1.00  0.00     0.111 C 
HETATM   21  C17 UNL     1      24.000   1.166  52.337  1.00  0.00     0.100 C 
HETATM   22  C23 UNL     1      23.804   2.071  51.214  1.00  0.00     0.041 C 
HETATM   23  C24 UNL     1      22.687   2.679  50.738  1.00  0.00     0.034 C 
HETATM   24  H5  UNL     1      18.197   0.665  48.925  1.00  0.00     0.166 HD
ENDROOT
BRANCH  14  25
HETATM   25  N3  UNL     1      21.583  -0.117  51.165  1.00  0.00     0.099 N 
HETATM   26  H8  UNL     1      20.976  -0.438  50.411  1.00  0.00     0.314 HD
HETATM   27  H9  UNL     1      22.273   0.545  50.807  1.00  0.00     0.314 HD
ENDBRANCH  14  25
BRANCH  21  28
HETATM   28  O3  UNL     1      25.358   1.020  52.533  1.00  0.00    -0.346 OA
BRANCH  28  29
HETATM   29  C18 UNL     1      26.201   2.143  52.720  1.00  0.00     0.207 C 
BRANCH  29  30
HETATM   30  C19 UNL     1      27.382   1.836  53.611  1.00  0.00     0.145 C 
HETATM   31  C20 UNL     1      27.213   0.537  54.370  1.00  0.00     0.036 C 
HETATM   32  C21 UNL     1      28.657   0.316  54.831  1.00  0.00     0.029 C 
HETATM   33  C22 UNL     1      29.418   0.988  53.729  1.00  0.00     0.168 C 
HETATM   34  O4  UNL     1      28.535   1.585  52.864  1.00  0.00    -0.384 OA
ENDBRANCH  29  30
ENDBRANCH  28  29
ENDBRANCH  21  28
TORSDOF 4
ENDMDL
MODEL 3
REMARK VINA RESULT:      -9.1      2.290      8.028
REMARK  4 active torsions:
REMARK  status: ('A' for Active; 'I' for Inactive)
REMARK    1  A    between atoms: C12_14  and  N3_15 
REMARK    2  A    between atoms: C17_22  and  O3_23 
REMARK    3  A    between atoms: O3_23  and  C18_24 
REMARK    4  A    between atoms: C18_24  and  C19_25 
ROOT
HETATM    1  C1  UNL     1      26.677   9.739  47.408  1.00  0.00     0.018 C 
HETATM    2  C2  UNL     1      26.780   8.581  47.797  1.00  0.00    -0.075 C 
HETATM    3  C3  UNL     1      26.922   7.224  48.239  1.00  0.00     0.044 A 
HETATM    4  C4  UNL     1      28.151   6.645  47.973  1.00  0.00     0.023 A 
HETATM    5  C5  UNL     1      28.342   5.344  48.373  1.00  0.00     0.002 A 
HETATM    6  C6  UNL     1      27.308   4.698  49.010  1.00  0.00     0.012 A 
HETATM    7  C7  UNL     1      26.078   5.244  49.289  1.00  0.00     0.015 A 
HETATM    8  C8  UNL     1      25.867   6.581  48.883  1.00  0.00     0.061 A 
HETATM    9  N1  UNL     1      24.809   7.580  48.920  1.00  0.00    -0.349 N 
HETATM   10  C9  UNL     1      23.353   7.492  49.029  1.00  0.00     0.208 C 
HETATM   11  N2  UNL     1      22.558   6.401  48.984  1.00  0.00    -0.244 NA
HETATM   12  C10 UNL     1      22.947   5.029  49.330  1.00  0.00     0.057 C 
HETATM   13  C11 UNL     1      24.011   4.284  48.939  1.00  0.00     0.054 C 
HETATM   14  C12 UNL     1      25.154   4.389  49.962  1.00  0.00     0.236 C 
HETATM   15  C13 UNL     1      25.265   3.080  50.441  1.00  0.00     0.228 C 
HETATM   16  O1  UNL     1      26.443   2.892  51.219  1.00  0.00    -0.374 OA
HETATM   17  C14 UNL     1      26.658   1.504  51.375  1.00  0.00     0.195 C 
HETATM   18  C15 UNL     1      25.660   1.085  52.431  1.00  0.00     0.201 C 
HETATM   19  O2  UNL     1      24.389   1.498  52.035  1.00  0.00    -0.348 OA
HETATM   20  C16 UNL     1      24.116   2.671  51.312  1.00  0.00     0.111 C 
HETATM   21  C17 UNL     1      22.870   2.909  51.757  1.00  0.00     0.100 C 
HETATM   22  C23 UNL     1      21.884   3.899  51.349  1.00  0.00     0.041 C 
HETATM   23  C24 UNL     1      21.853   4.749  50.291  1.00  0.00     0.034 C 
HETATM   24  H5  UNL     1      25.160   8.557  48.856  1.00  0.00     0.166 HD
ENDROOT
BRANCH  14  25
HETATM   25  N3  UNL     1      24.731   5.155  51.166  1.00  0.00     0.099 N 
HETATM   26  H8  UNL     1      23.830   5.618  51.047  1.00  0.00     0.314 HD
HETATM   27  H9  UNL     1      24.728   4.588  52.015  1.00  0.00     0.314 HD
ENDBRANCH  14  25
BRANCH  21  28
HETATM   28  O3  UNL     1      22.318   2.152  52.771  1.00  0.00    -0.346 OA
BRANCH  28  29
HETATM   29  C18 UNL     1      21.059   1.522  52.618  1.00  0.00     0.207 C 
BRANCH  29  30
HETATM   30  C19 UNL     1      21.107   0.049  52.953  1.00  0.00     0.145 C 
HETATM   31  C20 UNL     1      22.102  -0.263  54.051  1.00  0.00     0.036 C 
HETATM   32  C21 UNL     1      21.643  -1.677  54.422  1.00  0.00     0.029 C 
HETATM   33  C22 UNL     1      20.183  -1.603  54.091  1.00  0.00     0.168 C 
HETATM   34  O4  UNL     1      19.907  -0.386  53.520  1.00  0.00    -0.384 OA
ENDBRANCH  29  30
ENDBRANCH  28  29
ENDBRANCH  21  28
TORSDOF 4
ENDMDL
MODEL 4
REMARK VINA RESULT:      -8.8      2.823      4.771
REMARK  4 active torsions:
REMARK  status: ('A' for Active; 'I' for Inactive)
REMARK    1  A    between atoms: C12_14  and  N3_15 
REMARK    2  A    between atoms: C17_22  and  O3_23 
REMARK    3  A    between atoms: O3_23  and  C18_24 
REMARK    4  A    between atoms: C18_24  and  C19_25 
ROOT
HETATM    1  C1  UNL     1      25.343  -0.888  54.273  1.00  0.00     0.018 C 
HETATM    2  C2  UNL     1      24.604  -0.093  53.704  1.00  0.00    -0.075 C 
HETATM    3  C3  UNL     1      23.719   0.823  53.042  1.00  0.00     0.044 A 
HETATM    4  C4  UNL     1      22.371   0.572  53.225  1.00  0.00     0.023 A 
HETATM    5  C5  UNL     1      21.476   1.418  52.613  1.00  0.00     0.002 A 
HETATM    6  C6  UNL     1      21.971   2.456  51.858  1.00  0.00     0.012 A 
HETATM    7  C7  UNL     1      23.303   2.732  51.658  1.00  0.00     0.015 A 
HETATM    8  C8  UNL     1      24.233   1.871  52.281  1.00  0.00     0.061 A 
HETATM    9  N1  UNL     1      25.677   1.713  52.385  1.00  0.00    -0.349 N 
HETATM   10  C9  UNL     1      26.793   2.140  51.542  1.00  0.00     0.208 C 
HETATM   11  N2  UNL     1      26.769   2.702  50.313  1.00  0.00    -0.244 NA
HETATM   12  C10 UNL     1      25.670   3.488  49.740  1.00  0.00     0.057 C 
HETATM   13  C11 UNL     1      24.342   3.226  49.659  1.00  0.00     0.054 C 
HETATM   14  C12 UNL     1      23.589   3.865  50.838  1.00  0.00     0.236 C 
HETATM   15  C13 UNL     1      22.760   4.800  50.209  1.00  0.00     0.228 C 
HETATM   16  O1  UNL     1      21.782   5.332  51.096  1.00  0.00    -0.374 OA
HETATM   17  C14 UNL     1      20.795   5.990  50.328  1.00  0.00     0.195 C 
HETATM   18  C15 UNL     1      21.435   7.303  49.937  1.00  0.00     0.201 C 
HETATM   19  O2  UNL     1      22.658   7.040  49.322  1.00  0.00    -0.348 OA
HETATM   20  C16 UNL     1      23.510   5.975  49.656  1.00  0.00     0.111 C 
HETATM   21  C17 UNL     1      24.686   6.526  49.307  1.00  0.00     0.100 C 
HETATM   22  C23 UNL     1      26.025   5.960  49.247  1.00  0.00     0.041 C 
HETATM   23  C24 UNL     1      26.462   4.679  49.348  1.00  0.00     0.034 C 
HETATM   24  H5  UNL     1      25.977   1.189  53.232  1.00  0.00     0.166 HD
ENDROOT
BRANCH  14  25
HETATM   25  N3  UNL     1      24.494   4.713  51.660  1.00  0.00     0.099 N 
HETATM   26  H8  UNL     1      24.776   4.266  52.531  1.00  0.00     0.314 HD
HETATM   27  H9  UNL     1      25.315   5.033  51.143  1.00  0.00     0.314 HD
ENDBRANCH  14  25
BRANCH  21  28
HETATM   28  O3  UNL     1      24.765   7.848  48.918  1.00  0.00    -0.346 OA
BRANCH  28  29
HETATM   29  C18 UNL     1      25.190   8.857  49.817  1.00  0.00     0.207 C 
BRANCH  29  30
HETATM   30  C19 UNL     1      26.408   9.599  49.318  1.00  0.00     0.145 C 
HETATM   31  C20 UNL     1      27.663   9.232  50.082  1.00  0.00     0.036 C 
HETATM   32  C21 UNL     1      28.721   9.799  49.130  1.00  0.00     0.029 C 
HETATM   33  C22 UNL     1      28.021   9.670  47.811  1.00  0.00     0.168 C 
HETATM   34  O4  UNL     1      26.742   9.217  48.017  1.00  0.00    -0.384 OA
ENDBRANCH  29  30
ENDBRANCH  28  29
ENDBRANCH  21  28
TORSDOF 4
ENDMDL
MODEL 5
REMARK VINA RESULT:      -8.8      2.280      5.627
REMARK  4 active torsions:
REMARK  status: ('A' for Active; 'I' for Inactive)
REMARK    1  A    between atoms: C12_14  and  N3_15 
REMARK    2  A    between atoms: C17_22  and  O3_23 
REMARK    3  A    between atoms: O3_23  and  C18_24 
REMARK    4  A    between atoms: C18_24  and  C19_25 
ROOT
HETATM    1  C1  UNL     1      16.646   4.355  50.458  1.00  0.00     0.018 C 
HETATM    2  C2  UNL     1      17.848   4.280  50.233  1.00  0.00    -0.075 C 
HETATM    3  C3  UNL     1      19.253   4.205  49.950  1.00  0.00     0.044 A 
HETATM    4  C4  UNL     1      19.702   5.082  48.978  1.00  0.00     0.023 A 
HETATM    5  C5  UNL     1      21.041   5.054  48.664  1.00  0.00     0.002 A 
HETATM    6  C6  UNL     1      21.849   4.161  49.329  1.00  0.00     0.012 A 
HETATM    7  C7  UNL     1      21.433   3.279  50.299  1.00  0.00     0.015 A 
HETATM    8  C8  UNL     1      20.060   3.297  50.631  1.00  0.00     0.061 A 
HETATM    9  N1  UNL     1      19.144   2.607  51.528  1.00  0.00    -0.349 N 
HETATM   10  C9  UNL     1      19.179   1.301  52.183  1.00  0.00     0.208 C 
HETATM   11  N2  UNL     1      20.052   0.282  52.012  1.00  0.00    -0.244 NA
HETATM   12  C10 UNL     1      21.437   0.397  51.541  1.00  0.00     0.057 C 
HETATM   13  C11 UNL     1      21.958   1.040  50.467  1.00  0.00     0.054 C 
HETATM   14  C12 UNL     1      22.447   2.444  50.858  1.00  0.00     0.236 C 
HETATM   15  C13 UNL     1      23.826   2.368  50.637  1.00  0.00     0.228 C 
HETATM   16  O1  UNL     1      24.449   3.646  50.692  1.00  0.00    -0.374 OA
HETATM   17  C14 UNL     1      25.744   3.535  50.135  1.00  0.00     0.195 C 
HETATM   18  C15 UNL     1      26.565   2.873  51.219  1.00  0.00     0.201 C 
HETATM   19  O2  UNL     1      25.929   1.695  51.606  1.00  0.00    -0.348 OA
HETATM   20  C16 UNL     1      24.537   1.509  51.640  1.00  0.00     0.111 C 
HETATM   21  C17 UNL     1      24.469   0.588  52.617  1.00  0.00     0.100 C 
HETATM   22  C23 UNL     1      23.346  -0.187  53.122  1.00  0.00     0.041 C 
HETATM   23  C24 UNL     1      22.084  -0.348  52.649  1.00  0.00     0.034 C 
HETATM   24  H5  UNL     1      18.288   3.156  51.748  1.00  0.00     0.166 HD
ENDROOT
BRANCH  14  25
HETATM   25  N3  UNL     1      22.351   2.659  52.327  1.00  0.00     0.099 N 
HETATM   26  H8  UNL     1      23.169   3.128  52.715  1.00  0.00     0.314 HD
HETATM   27  H9  UNL     1      21.499   3.149  52.602  1.00  0.00     0.314 HD
ENDBRANCH  14  25
BRANCH  21  28
HETATM   28  O3  UNL     1      25.591   0.230  53.337  1.00  0.00    -0.346 OA
BRANCH  28  29
HETATM   29  C18 UNL     1      26.129  -1.079  53.262  1.00  0.00     0.207 C 
BRANCH  29  30
HETATM   30  C19 UNL     1      27.610  -1.077  52.967  1.00  0.00     0.145 C 
HETATM   31  C20 UNL     1      28.370  -0.083  53.821  1.00  0.00     0.036 C 
HETATM   32  C21 UNL     1      29.800  -0.586  53.593  1.00  0.00     0.029 C 
HETATM   33  C22 UNL     1      29.558  -2.045  53.352  1.00  0.00     0.168 C 
HETATM   34  O4  UNL     1      28.207  -2.286  53.332  1.00  0.00    -0.384 OA
ENDBRANCH  29  30
ENDBRANCH  28  29
ENDBRANCH  21  28
TORSDOF 4
ENDMDL
MODEL 6
REMARK VINA RESULT:      -8.7      2.393      8.526
REMARK  4 active torsions:
REMARK  status: ('A' for Active; 'I' for Inactive)
REMARK    1  A    between atoms: C12_14  and  N3_15 
REMARK    2  A    between atoms: C17_22  and  O3_23 
REMARK    3  A    between atoms: O3_23  and  C18_24 
REMARK    4  A    between atoms: C18_24  and  C19_25 
ROOT
HETATM    1  C1  UNL     1      28.803   5.412  48.311  1.00  0.00     0.018 C 
HETATM    2  C2  UNL     1      27.610   5.485  48.582  1.00  0.00    -0.075 C 
HETATM    3  C3  UNL     1      26.214   5.595  48.893  1.00  0.00     0.044 A 
HETATM    4  C4  UNL     1      25.607   6.763  48.464  1.00  0.00     0.023 A 
HETATM    5  C5  UNL     1      24.269   6.923  48.736  1.00  0.00     0.002 A 
HETATM    6  C6  UNL     1      23.616   5.920  49.416  1.00  0.00     0.012 A 
HETATM    7  C7  UNL     1      24.190   4.750  49.854  1.00  0.00     0.015 A 
HETATM    8  C8  UNL     1      25.565   4.572  49.581  1.00  0.00     0.061 A 
HETATM    9  N1  UNL     1      26.606   3.582  49.816  1.00  0.00    -0.349 N 
HETATM   10  C9  UNL     1      26.771   2.519  50.806  1.00  0.00     0.208 C 
HETATM   11  N2  UNL     1      26.028   2.250  51.902  1.00  0.00    -0.244 NA
HETATM   12  C10 UNL     1      24.617   2.601  52.101  1.00  0.00     0.057 C 
HETATM   13  C11 UNL     1      23.963   3.777  51.933  1.00  0.00     0.054 C 
HETATM   14  C12 UNL     1      23.321   3.847  50.537  1.00  0.00     0.236 C 
HETATM   15  C13 UNL     1      21.953   3.900  50.826  1.00  0.00     0.228 C 
HETATM   16  O1  UNL     1      21.176   4.229  49.680  1.00  0.00    -0.374 OA
HETATM   17  C14 UNL     1      19.879   4.592  50.110  1.00  0.00     0.195 C 
HETATM   18  C15 UNL     1      19.205   3.276  50.429  1.00  0.00     0.201 C 
HETATM   19  O2  UNL     1      20.006   2.569  51.325  1.00  0.00    -0.348 OA
HETATM   20  C16 UNL     1      21.409   2.603  51.345  1.00  0.00     0.111 C 
HETATM   21  C17 UNL     1      21.644   1.380  51.853  1.00  0.00     0.100 C 
HETATM   22  C23 UNL     1      22.881   0.746  52.283  1.00  0.00     0.041 C 
HETATM   23  C24 UNL     1      24.127   1.250  52.471  1.00  0.00     0.034 C 
HETATM   24  H5  UNL     1      27.395   3.644  49.141  1.00  0.00     0.166 HD
ENDROOT
BRANCH  14  25
HETATM   25  N3  UNL     1      23.464   2.556  49.812  1.00  0.00     0.099 N 
HETATM   26  H8  UNL     1      23.910   2.659  48.901  1.00  0.00     0.314 HD
HETATM   27  H9  UNL     1      23.944   1.843  50.363  1.00  0.00     0.314 HD
ENDBRANCH  14  25
BRANCH  21  28
HETATM   28  O3  UNL     1      20.615   0.480  52.047  1.00  0.00    -0.346 OA
BRANCH  28  29
HETATM   29  C18 UNL     1      20.418  -0.155  53.298  1.00  0.00     0.207 C 
BRANCH  29  30
HETATM   30  C19 UNL     1      19.006  -0.664  53.469  1.00  0.00     0.145 C 
HETATM   31  C20 UNL     1      18.179  -0.517  52.208  1.00  0.00     0.036 C 
HETATM   32  C21 UNL     1      17.008  -1.441  52.557  1.00  0.00     0.029 C 
HETATM   33  C22 UNL     1      17.679  -2.430  53.461  1.00  0.00     0.168 C 
HETATM   34  O4  UNL     1      18.980  -2.046  53.671  1.00  0.00    -0.384 OA
ENDBRANCH  29  30
ENDBRANCH  28  29
ENDBRANCH  21  28
TORSDOF 4
ENDMDL
MODEL 7
REMARK VINA RESULT:      -8.6      2.367      3.789
REMARK  4 active torsions:
REMARK  status: ('A' for Active; 'I' for Inactive)
REMARK    1  A    between atoms: C12_14  and  N3_15 
REMARK    2  A    between atoms: C17_22  and  O3_23 
REMARK    3  A    between atoms: O3_23  and  C18_24 
REMARK    4  A    between atoms: C18_24  and  C19_25 
ROOT
HETATM    1  C1  UNL     1      21.206  -1.744  54.498  1.00  0.00     0.018 C 
HETATM    2  C2  UNL     1      22.061  -0.999  54.035  1.00  0.00    -0.075 C 
HETATM    3  C3  UNL     1      23.079  -0.137  53.506  1.00  0.00     0.044 A 
HETATM    4  C4  UNL     1      24.379  -0.538  53.764  1.00  0.00     0.023 A 
HETATM    5  C5  UNL     1      25.397   0.250  53.282  1.00  0.00     0.002 A 
HETATM    6  C6  UNL     1      25.066   1.384  52.576  1.00  0.00     0.012 A 
HETATM    7  C7  UNL     1      23.787   1.808  52.303  1.00  0.00     0.015 A 
HETATM    8  C8  UNL     1      22.731   1.007  52.793  1.00  0.00     0.061 A 
HETATM    9  N1  UNL     1      21.275   1.001  52.795  1.00  0.00    -0.349 N 
HETATM   10  C9  UNL     1      20.270   2.052  52.643  1.00  0.00     0.208 C 
HETATM   11  N2  UNL     1      20.436   3.392  52.593  1.00  0.00    -0.244 NA
HETATM   12  C10 UNL     1      21.648   4.101  52.166  1.00  0.00     0.057 C 
HETATM   13  C11 UNL     1      22.944   3.942  52.534  1.00  0.00     0.054 C 
HETATM   14  C12 UNL     1      23.678   3.016  51.550  1.00  0.00     0.236 C 
HETATM   15  C13 UNL     1      24.641   3.860  50.986  1.00  0.00     0.228 C 
HETATM   16  O1  UNL     1      25.607   3.140  50.229  1.00  0.00    -0.374 OA
HETATM   17  C14 UNL     1      26.708   3.992  49.985  1.00  0.00     0.195 C 
HETATM   18  C15 UNL     1      26.238   4.908  48.877  1.00  0.00     0.201 C 
HETATM   19  O2  UNL     1      25.038   5.502  49.267  1.00  0.00    -0.348 OA
HETATM   20  C16 UNL     1      24.058   4.884  50.060  1.00  0.00     0.111 C 
HETATM   21  C17 UNL     1      22.973   5.532  49.600  1.00  0.00     0.100 C 
HETATM   22  C23 UNL     1      21.589   5.513  50.049  1.00  0.00     0.041 C 
HETATM   23  C24 UNL     1      21.014   4.988  51.160  1.00  0.00     0.034 C 
HETATM   24  H5  UNL     1      20.866   0.055  52.934  1.00  0.00     0.166 HD
ENDROOT
BRANCH  14  25
HETATM   25  N3  UNL     1      22.814   2.667  50.390  1.00  0.00     0.099 N 
HETATM   26  H8  UNL     1      21.826   2.602  50.635  1.00  0.00     0.314 HD
HETATM   27  H9  UNL     1      22.941   3.298  49.597  1.00  0.00     0.314 HD
ENDBRANCH  14  25
BRANCH  21  28
HETATM   28  O3  UNL     1      23.060   6.392  48.524  1.00  0.00    -0.346 OA
BRANCH  28  29
HETATM   29  C18 UNL     1      21.981   6.552  47.620  1.00  0.00     0.207 C 
BRANCH  29  30
HETATM   30  C19 UNL     1      22.144   5.714  46.373  1.00  0.00     0.145 C 
HETATM   31  C20 UNL     1      21.471   4.362  46.491  1.00  0.00     0.036 C 
HETATM   32  C21 UNL     1      21.461   3.949  45.016  1.00  0.00     0.029 C 
HETATM   33  C22 UNL     1      21.391   5.285  44.342  1.00  0.00     0.168 C 
HETATM   34  O4  UNL     1      21.471   6.277  45.287  1.00  0.00    -0.384 OA
ENDBRANCH  29  30
ENDBRANCH  28  29
ENDBRANCH  21  28
TORSDOF 4
ENDMDL
MODEL 8
REMARK VINA RESULT:      -8.6      3.162      5.962
REMARK  4 active torsions:
REMARK  status: ('A' for Active; 'I' for Inactive)
REMARK    1  A    between atoms: C12_14  and  N3_15 
REMARK    2  A    between atoms: C17_22  and  O3_23 
REMARK    3  A    between atoms: O3_23  and  C18_24 
REMARK    4  A    between atoms: C18_24  and  C19_25 
ROOT
HETATM    1  C1  UNL     1      19.838   6.172  47.693  1.00  0.00     0.018 C 
HETATM    2  C2  UNL     1      19.858   5.401  48.645  1.00  0.00    -0.075 C 
HETATM    3  C3  UNL     1      19.858   4.506  49.766  1.00  0.00     0.044 A 
HETATM    4  C4  UNL     1      18.628   4.331  50.377  1.00  0.00     0.023 A 
HETATM    5  C5  UNL     1      18.569   3.484  51.459  1.00  0.00     0.002 A 
HETATM    6  C6  UNL     1      19.728   2.866  51.868  1.00  0.00     0.012 A 
HETATM    7  C7  UNL     1      20.963   3.019  51.284  1.00  0.00     0.015 A 
HETATM    8  C8  UNL     1      21.038   3.887  50.171  1.00  0.00     0.061 A 
HETATM    9  N1  UNL     1      22.041   4.385  49.240  1.00  0.00    -0.349 N 
HETATM   10  C9  UNL     1      23.494   4.521  49.314  1.00  0.00     0.208 C 
HETATM   11  N2  UNL     1      24.317   4.337  50.370  1.00  0.00    -0.244 NA
HETATM   12  C10 UNL     1      24.057   3.481  51.533  1.00  0.00     0.057 C 
HETATM   13  C11 UNL     1      22.975   3.394  52.346  1.00  0.00     0.054 C 
HETATM   14  C12 UNL     1      22.029   2.277  51.874  1.00  0.00     0.236 C 
HETATM   15  C13 UNL     1      22.063   1.369  52.939  1.00  0.00     0.228 C 
HETATM   16  O1  UNL     1      21.052   0.373  52.826  1.00  0.00    -0.374 OA
HETATM   17  C14 UNL     1      20.930  -0.282  54.072  1.00  0.00     0.195 C 
HETATM   18  C15 UNL     1      22.118  -1.217  54.125  1.00  0.00     0.201 C 
HETATM   19  O2  UNL     1      23.279  -0.478  53.897  1.00  0.00    -0.348 OA
HETATM   20  C16 UNL     1      23.366   0.637  53.048  1.00  0.00     0.111 C 
HETATM   21  C17 UNL     1      24.660   0.535  52.696  1.00  0.00     0.100 C 
HETATM   22  C23 UNL     1      25.512   1.428  51.925  1.00  0.00     0.041 C 
HETATM   23  C24 UNL     1      25.317   2.699  51.489  1.00  0.00     0.034 C 
HETATM   24  H5  UNL     1      21.641   4.712  48.337  1.00  0.00     0.166 HD
ENDROOT
BRANCH  14  25
HETATM   25  N3  UNL     1      22.625   1.504  50.752  1.00  0.00     0.099 N 
HETATM   26  H8  UNL     1      22.156   0.613  50.589  1.00  0.00     0.314 HD
HETATM   27  H9  UNL     1      22.677   2.040  49.885  1.00  0.00     0.314 HD
ENDBRANCH  14  25
BRANCH  21  28
HETATM   28  O3  UNL     1      25.417  -0.556  53.071  1.00  0.00    -0.346 OA
BRANCH  28  29
HETATM   29  C18 UNL     1      26.468  -0.436  54.013  1.00  0.00     0.207 C 
BRANCH  29  30
HETATM   30  C19 UNL     1      27.830  -0.591  53.379  1.00  0.00     0.145 C 
HETATM   31  C20 UNL     1      28.835   0.409  53.913  1.00  0.00     0.036 C 
HETATM   32  C21 UNL     1      30.132  -0.235  53.414  1.00  0.00     0.029 C 
HETATM   33  C22 UNL     1      29.750  -1.683  53.402  1.00  0.00     0.168 C 
HETATM   34  O4  UNL     1      28.422  -1.807  53.728  1.00  0.00    -0.384 OA
ENDBRANCH  29  30
ENDBRANCH  28  29
ENDBRANCH  21  28
TORSDOF 4
ENDMDL
MODEL 9
REMARK VINA RESULT:      -8.3      2.106      2.948
REMARK  4 active torsions:
REMARK  status: ('A' for Active; 'I' for Inactive)
REMARK    1  A    between atoms: C12_14  and  N3_15 
REMARK    2  A    between atoms: C17_22  and  O3_23 
REMARK    3  A    between atoms: O3_23  and  C18_24 
REMARK    4  A    between atoms: C18_24  and  C19_25 
ROOT
HETATM    1  C1  UNL     1      20.597  -1.599  54.261  1.00  0.00     0.018 C 
HETATM    2  C2  UNL     1      21.535  -0.926  53.849  1.00  0.00    -0.075 C 
HETATM    3  C3  UNL     1      22.648  -0.151  53.380  1.00  0.00     0.044 A 
HETATM    4  C4  UNL     1      23.894  -0.674  53.681  1.00  0.00     0.023 A 
HETATM    5  C5  UNL     1      24.998   0.027  53.257  1.00  0.00     0.002 A 
HETATM    6  C6  UNL     1      24.801   1.200  52.566  1.00  0.00     0.012 A 
HETATM    7  C7  UNL     1      23.578   1.744  52.252  1.00  0.00     0.015 A 
HETATM    8  C8  UNL     1      22.435   1.034  52.681  1.00  0.00     0.061 A 
HETATM    9  N1  UNL     1      20.985   1.161  52.626  1.00  0.00    -0.349 N 
HETATM   10  C9  UNL     1      20.087   2.302  52.459  1.00  0.00     0.208 C 
HETATM   11  N2  UNL     1      20.376   3.622  52.447  1.00  0.00    -0.244 NA
HETATM   12  C10 UNL     1      21.664   4.225  52.084  1.00  0.00     0.057 C 
HETATM   13  C11 UNL     1      22.923   3.942  52.499  1.00  0.00     0.054 C 
HETATM   14  C12 UNL     1      23.610   2.971  51.523  1.00  0.00     0.236 C 
HETATM   15  C13 UNL     1      24.668   3.734  51.018  1.00  0.00     0.228 C 
HETATM   16  O1  UNL     1      25.596   2.944  50.283  1.00  0.00    -0.374 OA
HETATM   17  C14 UNL     1      26.779   3.696  50.102  1.00  0.00     0.195 C 
HETATM   18  C15 UNL     1      26.440   4.673  48.998  1.00  0.00     0.201 C 
HETATM   19  O2  UNL     1      25.284   5.367  49.354  1.00  0.00    -0.348 OA
HETATM   20  C16 UNL     1      24.220   4.826  50.094  1.00  0.00     0.111 C 
HETATM   21  C17 UNL     1      23.218   5.579  49.607  1.00  0.00     0.100 C 
HETATM   22  C23 UNL     1      21.820   5.679  49.999  1.00  0.00     0.041 C 
HETATM   23  C24 UNL     1      21.155   5.186  51.075  1.00  0.00     0.034 C 
HETATM   24  H5  UNL     1      20.486   0.254  52.727  1.00  0.00     0.166 HD
ENDROOT
BRANCH  14  25
HETATM   25  N3  UNL     1      22.767   2.726  50.323  1.00  0.00     0.099 N 
HETATM   26  H8  UNL     1      22.608   3.568  49.770  1.00  0.00     0.314 HD
HETATM   27  H9  UNL     1      23.128   1.977  49.731  1.00  0.00     0.314 HD
ENDBRANCH  14  25
BRANCH  21  28
HETATM   28  O3  UNL     1      23.426   6.448  48.554  1.00  0.00    -0.346 OA
BRANCH  28  29
HETATM   29  C18 UNL     1      22.973   7.789  48.604  1.00  0.00     0.207 C 
BRANCH  29  30
HETATM   30  C19 UNL     1      24.110   8.783  48.572  1.00  0.00     0.145 C 
HETATM   31  C20 UNL     1      25.212   8.374  47.617  1.00  0.00     0.036 C 
HETATM   32  C21 UNL     1      25.968   9.701  47.509  1.00  0.00     0.029 C 
HETATM   33  C22 UNL     1      24.860  10.684  47.734  1.00  0.00     0.168 C 
HETATM   34  O4  UNL     1      23.705  10.008  48.035  1.00  0.00    -0.384 OA
ENDBRANCH  29  30
ENDBRANCH  28  29
ENDBRANCH  21  28
TORSDOF 4
ENDMDL
