MODEL 1
REMARK VINA RESULT:      -8.2      0.000      0.000
REMARK  5 active torsions:
REMARK  status: ('A' for Active; 'I' for Inactive)
REMARK    1  A    between atoms: C2_2  and  N1_3 
REMARK    2  A    between atoms: N1_3  and  O1_4 
REMARK    3  A    between atoms: N1_3  and  C3_5 
REMARK    4  A    between atoms: C8_10  and  N2_11 
REMARK    5  A    between atoms: N2_11  and  C9_12 
ROOT
HETATM    1  N2  UNL     1      22.417   0.210  51.994  1.00  0.00    -0.209 N 
HETATM    2  H13 UNL     1      22.495  -0.733  51.607  1.00  0.00     0.179 HD
ENDROOT
BRANCH   1   3
HETATM    3  C8  UNL     1      21.109   0.788  52.005  1.00  0.00     0.174 A 
HETATM    4  C3  UNL     1      20.138   0.023  52.838  1.00  0.00     0.058 A 
HETATM    5  C4  UNL     1      18.914  -0.212  52.391  1.00  0.00     0.007 A 
HETATM    6  C5  UNL     1      18.300   0.200  51.084  1.00  0.00     0.056 A 
HETATM    7  C6  UNL     1      19.335   0.832  50.215  1.00  0.00    -0.024 A 
HETATM    8  C7  UNL     1      20.552   1.069  50.665  1.00  0.00     0.001 A 
BRANCH   4   9
HETATM    9  N1  UNL     1      20.651  -0.397  54.084  1.00  0.00    -0.263 N 
BRANCH   9  10
HETATM   10  C2  UNL     1      21.318  -1.659  54.381  1.00  0.00     0.151 C 
HETATM   11  C1  UNL     1      22.586  -1.487  55.176  1.00  0.00     0.029 C 
ENDBRANCH   9  10
BRANCH   9  12
HETATM   12  O1  UNL     1      20.522   0.454  55.155  1.00  0.00    -0.287 OA
HETATM   13  H6  UNL     1      20.166   0.015  55.951  1.00  0.00     0.244 HD
ENDBRANCH   9  12
ENDBRANCH   4   9
ENDBRANCH   1   3
BRANCH   1  14
HETATM   14  C9  UNL     1      23.583   0.872  52.483  1.00  0.00     0.723 A 
HETATM   15  N3  UNL     1      23.590   2.187  52.805  1.00  0.00    -0.075 NA
HETATM   16  C10 UNL     1      24.715   2.780  53.264  1.00  0.00     0.139 A 
HETATM   17  C11 UNL     1      25.872   2.063  53.412  1.00  0.00     0.053 A 
HETATM   18  C12 UNL     1      25.854   0.736  53.083  1.00  0.00     0.089 A 
HETATM   19  C13 UNL     1      27.031  -0.082  53.212  1.00  0.00     0.011 A 
HETATM   20  N5  UNL     1      24.726   0.195  52.636  1.00  0.00    -0.062 NA
HETATM   21  C14 UNL     1      28.272   0.326  53.656  1.00  0.00     0.017 A 
HETATM   22  C17 UNL     1      27.001  -1.439  52.873  1.00  0.00     0.130 A 
HETATM   23  C15 UNL     1      29.350  -0.519  53.751  1.00  0.00     0.020 A 
HETATM   24  C16 UNL     1      29.243  -1.848  53.398  1.00  0.00     0.116 A 
HETATM   25  N4  UNL     1      28.041  -2.268  52.961  1.00  0.00    -0.272 NA
ENDBRANCH   1  14
TORSDOF 5
ENDMDL
MODEL 2
REMARK VINA RESULT:      -8.2      4.297      6.806
REMARK  5 active torsions:
REMARK  status: ('A' for Active; 'I' for Inactive)
REMARK    1  A    between atoms: C2_2  and  N1_3 
REMARK    2  A    between atoms: N1_3  and  O1_4 
REMARK    3  A    between atoms: N1_3  and  C3_5 
REMARK    4  A    between atoms: C8_10  and  N2_11 
REMARK    5  A    between atoms: N2_11  and  C9_12 
ROOT
HETATM    1  N2  UNL     1      24.228   4.577  49.829  1.00  0.00    -0.209 N 
HETATM    2  H13 UNL     1      23.603   5.138  49.244  1.00  0.00     0.179 HD
ENDROOT
BRANCH   1   3
HETATM    3  C8  UNL     1      25.544   5.099  50.036  1.00  0.00     0.174 A 
HETATM    4  C3  UNL     1      25.592   6.588  50.023  1.00  0.00     0.058 A 
HETATM    5  C4  UNL     1      26.554   7.221  49.370  1.00  0.00     0.007 A 
HETATM    6  C5  UNL     1      27.691   6.636  48.582  1.00  0.00     0.056 A 
HETATM    7  C6  UNL     1      27.533   5.154  48.489  1.00  0.00    -0.024 A 
HETATM    8  C7  UNL     1      26.576   4.528  49.144  1.00  0.00     0.001 A 
BRANCH   4   9
HETATM    9  N1  UNL     1      24.549   7.206  50.748  1.00  0.00    -0.263 N 
BRANCH   9  10
HETATM   10  C2  UNL     1      23.599   8.195  50.252  1.00  0.00     0.151 C 
HETATM   11  C1  UNL     1      22.171   7.716  50.290  1.00  0.00     0.029 C 
ENDBRANCH   9  10
BRANCH   9  12
HETATM   12  O1  UNL     1      24.387   6.860  52.068  1.00  0.00    -0.287 OA
HETATM   13  H6  UNL     1      23.607   6.291  52.220  1.00  0.00     0.244 HD
ENDBRANCH   9  12
ENDBRANCH   4   9
ENDBRANCH   1   3
BRANCH   1  14
HETATM   14  C9  UNL     1      23.764   3.348  50.385  1.00  0.00     0.723 A 
HETATM   15  N3  UNL     1      22.644   2.729  49.944  1.00  0.00    -0.075 NA
HETATM   16  C10 UNL     1      22.234   1.566  50.498  1.00  0.00     0.139 A 
HETATM   17  C11 UNL     1      22.944   0.988  51.516  1.00  0.00     0.053 A 
HETATM   18  C12 UNL     1      24.073   1.622  51.954  1.00  0.00     0.089 A 
HETATM   19  C13 UNL     1      24.871   1.076  53.020  1.00  0.00     0.011 A 
HETATM   20  N5  UNL     1      24.438   2.764  51.380  1.00  0.00    -0.062 NA
HETATM   21  C14 UNL     1      24.629  -0.091  53.714  1.00  0.00     0.017 A 
HETATM   22  C17 UNL     1      26.026   1.733  53.459  1.00  0.00     0.130 A 
HETATM   23  C15 UNL     1      25.441  -0.546  54.723  1.00  0.00     0.020 A 
HETATM   24  C16 UNL     1      26.566   0.158  55.102  1.00  0.00     0.116 A 
HETATM   25  N4  UNL     1      26.822   1.300  54.437  1.00  0.00    -0.272 NA
ENDBRANCH   1  14
TORSDOF 5
ENDMDL
MODEL 3
REMARK VINA RESULT:      -8.1      2.102      7.478
REMARK  5 active torsions:
REMARK  status: ('A' for Active; 'I' for Inactive)
REMARK    1  A    between atoms: C2_2  and  N1_3 
REMARK    2  A    between atoms: N1_3  and  O1_4 
REMARK    3  A    between atoms: N1_3  and  C3_5 
REMARK    4  A    between atoms: C8_10  and  N2_11 
REMARK    5  A    between atoms: N2_11  and  C9_12 
ROOT
HETATM    1  N2  UNL     1      25.306   0.098  53.044  1.00  0.00    -0.209 N 
HETATM    2  H13 UNL     1      25.658  -0.235  52.144  1.00  0.00     0.179 HD
ENDROOT
BRANCH   1   3
HETATM    3  C8  UNL     1      26.205   0.893  53.824  1.00  0.00     0.174 A 
HETATM    4  C3  UNL     1      26.974   1.875  53.010  1.00  0.00     0.058 A 
HETATM    5  C4  UNL     1      28.271   2.045  53.216  1.00  0.00     0.007 A 
HETATM    6  C5  UNL     1      29.157   1.356  54.214  1.00  0.00     0.056 A 
HETATM    7  C6  UNL     1      28.395   0.278  54.910  1.00  0.00    -0.024 A 
HETATM    8  C7  UNL     1      27.103   0.115  54.705  1.00  0.00     0.001 A 
BRANCH   4   9
HETATM    9  N1  UNL     1      26.200   2.561  52.048  1.00  0.00    -0.263 N 
BRANCH   9  10
HETATM   10  C2  UNL     1      26.468   2.673  50.620  1.00  0.00     0.151 C 
HETATM   11  C1  UNL     1      26.060   4.003  50.043  1.00  0.00     0.029 C 
ENDBRANCH   9  10
BRANCH   9  12
HETATM   12  O1  UNL     1      25.063   3.205  52.475  1.00  0.00    -0.287 OA
HETATM   13  H6  UNL     1      25.123   4.176  52.396  1.00  0.00     0.244 HD
ENDBRANCH   9  12
ENDBRANCH   4   9
ENDBRANCH   1   3
BRANCH   1  14
HETATM   14  C9  UNL     1      23.982  -0.240  53.455  1.00  0.00     0.723 A 
HETATM   15  N3  UNL     1      23.722  -0.859  54.630  1.00  0.00    -0.075 NA
HETATM   16  C10 UNL     1      22.454  -1.165  54.984  1.00  0.00     0.139 A 
HETATM   17  C11 UNL     1      21.404  -0.854  54.162  1.00  0.00     0.053 A 
HETATM   18  C12 UNL     1      21.678  -0.229  52.978  1.00  0.00     0.089 A 
HETATM   19  C13 UNL     1      20.627   0.130  52.062  1.00  0.00     0.011 A 
HETATM   20  N5  UNL     1      22.940   0.053  52.670  1.00  0.00    -0.062 NA
HETATM   21  C14 UNL     1      19.276  -0.092  52.232  1.00  0.00     0.017 A 
HETATM   22  C17 UNL     1      20.919   0.771  50.853  1.00  0.00     0.130 A 
HETATM   23  C15 UNL     1      18.333   0.281  51.307  1.00  0.00     0.020 A 
HETATM   24  C16 UNL     1      18.697   0.911  50.135  1.00  0.00     0.116 A 
HETATM   25  N4  UNL     1      20.011   1.138  49.948  1.00  0.00    -0.272 NA
ENDBRANCH   1  14
TORSDOF 5
ENDMDL
MODEL 4
REMARK VINA RESULT:      -7.9      2.220      7.170
REMARK  5 active torsions:
REMARK  status: ('A' for Active; 'I' for Inactive)
REMARK    1  A    between atoms: C2_2  and  N1_3 
REMARK    2  A    between atoms: N1_3  and  O1_4 
REMARK    3  A    between atoms: N1_3  and  C3_5 
REMARK    4  A    between atoms: C8_10  and  N2_11 
REMARK    5  A    between atoms: N2_11  and  C9_12 
ROOT
HETATM    1  N2  UNL     1      23.562   1.401  53.049  1.00  0.00    -0.209 N 
HETATM    2  H13 UNL     1      23.675   2.247  53.611  1.00  0.00     0.179 HD
ENDROOT
BRANCH   1   3
HETATM    3  C8  UNL     1      24.346   1.321  51.855  1.00  0.00     0.174 A 
HETATM    4  C3  UNL     1      25.807   1.205  52.120  1.00  0.00     0.058 A 
HETATM    5  C4  UNL     1      26.674   1.918  51.418  1.00  0.00     0.007 A 
HETATM    6  C5  UNL     1      26.400   2.898  50.313  1.00  0.00     0.056 A 
HETATM    7  C6  UNL     1      24.929   3.104  50.171  1.00  0.00    -0.024 A 
HETATM    8  C7  UNL     1      24.070   2.388  50.868  1.00  0.00     0.001 A 
BRANCH   4   9
HETATM    9  N1  UNL     1      26.137   0.297  53.151  1.00  0.00    -0.263 N 
BRANCH   9  10
HETATM   10  C2  UNL     1      26.844   0.593  54.391  1.00  0.00     0.151 C 
HETATM   11  C1  UNL     1      28.278   0.130  54.380  1.00  0.00     0.029 C 
ENDBRANCH   9  10
BRANCH   9  12
HETATM   12  O1  UNL     1      25.765  -1.016  52.997  1.00  0.00    -0.287 OA
HETATM   13  H6  UNL     1      24.805  -1.157  53.111  1.00  0.00     0.244 HD
ENDBRANCH   9  12
ENDBRANCH   4   9
ENDBRANCH   1   3
BRANCH   1  14
HETATM   14  C9  UNL     1      22.658   0.383  53.475  1.00  0.00     0.723 A 
HETATM   15  N3  UNL     1      23.026  -0.610  54.316  1.00  0.00    -0.075 NA
HETATM   16  C10 UNL     1      22.141  -1.559  54.696  1.00  0.00     0.139 A 
HETATM   17  C11 UNL     1      20.851  -1.534  54.238  1.00  0.00     0.053 A 
HETATM   18  C12 UNL     1      20.489  -0.526  53.389  1.00  0.00     0.089 A 
HETATM   19  C13 UNL     1      19.151  -0.434  52.866  1.00  0.00     0.011 A 
HETATM   20  N5  UNL     1      21.392   0.384  53.042  1.00  0.00    -0.062 NA
HETATM   21  C14 UNL     1      18.105  -1.295  53.126  1.00  0.00     0.017 A 
HETATM   22  C17 UNL     1      18.792   0.602  51.997  1.00  0.00     0.130 A 
HETATM   23  C15 UNL     1      16.852  -1.138  52.586  1.00  0.00     0.020 A 
HETATM   24  C16 UNL     1      16.572  -0.089  51.735  1.00  0.00     0.116 A 
HETATM   25  N4  UNL     1      17.579   0.764  51.467  1.00  0.00    -0.272 NA
ENDBRANCH   1  14
TORSDOF 5
ENDMDL
MODEL 5
REMARK VINA RESULT:      -7.9      3.150      4.724
REMARK  5 active torsions:
REMARK  status: ('A' for Active; 'I' for Inactive)
REMARK    1  A    between atoms: C2_2  and  N1_3 
REMARK    2  A    between atoms: N1_3  and  O1_4 
REMARK    3  A    between atoms: N1_3  and  C3_5 
REMARK    4  A    between atoms: C8_10  and  N2_11 
REMARK    5  A    between atoms: N2_11  and  C9_12 
ROOT
HETATM    1  N2  UNL     1      22.689   2.268  51.338  1.00  0.00    -0.209 N 
HETATM    2  H13 UNL     1      21.869   2.798  51.641  1.00  0.00     0.179 HD
ENDROOT
BRANCH   1   3
HETATM    3  C8  UNL     1      23.153   2.518  50.008  1.00  0.00     0.174 A 
HETATM    4  C3  UNL     1      23.372   3.965  49.727  1.00  0.00     0.058 A 
HETATM    5  C4  UNL     1      22.961   4.494  48.584  1.00  0.00     0.007 A 
HETATM    6  C5  UNL     1      22.259   3.819  47.441  1.00  0.00     0.056 A 
HETATM    7  C6  UNL     1      21.923   2.413  47.811  1.00  0.00    -0.024 A 
HETATM    8  C7  UNL     1      22.338   1.889  48.947  1.00  0.00     0.001 A 
BRANCH   4   9
HETATM    9  N1  UNL     1      24.029   4.662  50.764  1.00  0.00    -0.263 N 
BRANCH   9  10
HETATM   10  C2  UNL     1      23.600   5.903  51.400  1.00  0.00     0.151 C 
HETATM   11  C1  UNL     1      24.354   7.111  50.909  1.00  0.00     0.029 C 
ENDBRANCH   9  10
BRANCH   9  12
HETATM   12  O1  UNL     1      25.205   4.141  51.248  1.00  0.00    -0.287 OA
HETATM   13  H6  UNL     1      25.982   4.391  50.712  1.00  0.00     0.244 HD
ENDBRANCH   9  12
ENDBRANCH   4   9
ENDBRANCH   1   3
BRANCH   1  14
HETATM   14  C9  UNL     1      23.302   1.340  52.232  1.00  0.00     0.723 A 
HETATM   15  N3  UNL     1      22.630   0.293  52.765  1.00  0.00    -0.075 NA
HETATM   16  C10 UNL     1      23.244  -0.564  53.610  1.00  0.00     0.139 A 
HETATM   17  C11 UNL     1      24.561  -0.392  53.947  1.00  0.00     0.053 A 
HETATM   18  C12 UNL     1      25.230   0.669  53.404  1.00  0.00     0.089 A 
HETATM   19  C13 UNL     1      26.614   0.916  53.710  1.00  0.00     0.011 A 
HETATM   20  N5  UNL     1      24.586   1.487  52.577  1.00  0.00    -0.062 NA
HETATM   21  C14 UNL     1      27.419   0.167  54.544  1.00  0.00     0.017 A 
HETATM   22  C17 UNL     1      27.289   2.005  53.147  1.00  0.00     0.130 A 
HETATM   23  C15 UNL     1      28.736   0.469  54.786  1.00  0.00     0.020 A 
HETATM   24  C16 UNL     1      29.334   1.562  54.193  1.00  0.00     0.116 A 
HETATM   25  N4  UNL     1      28.568   2.307  53.375  1.00  0.00    -0.272 NA
ENDBRANCH   1  14
TORSDOF 5
ENDMDL
MODEL 6
REMARK VINA RESULT:      -7.8      4.163      5.854
REMARK  5 active torsions:
REMARK  status: ('A' for Active; 'I' for Inactive)
REMARK    1  A    between atoms: C2_2  and  N1_3 
REMARK    2  A    between atoms: N1_3  and  O1_4 
REMARK    3  A    between atoms: N1_3  and  C3_5 
REMARK    4  A    between atoms: C8_10  and  N2_11 
REMARK    5  A    between atoms: N2_11  and  C9_12 
ROOT
HETATM    1  N2  UNL     1      23.466   1.872  50.923  1.00  0.00    -0.209 N 
HETATM    2  H13 UNL     1      23.579   1.097  50.265  1.00  0.00     0.179 HD
ENDROOT
BRANCH   1   3
HETATM    3  C8  UNL     1      23.241   1.517  52.291  1.00  0.00     0.174 A 
HETATM    4  C3  UNL     1      24.314   0.651  52.855  1.00  0.00     0.058 A 
HETATM    5  C4  UNL     1      24.004  -0.399  53.601  1.00  0.00     0.007 A 
HETATM    6  C5  UNL     1      22.643  -0.894  53.999  1.00  0.00     0.056 A 
HETATM    7  C6  UNL     1      21.590  -0.099  53.300  1.00  0.00    -0.024 A 
HETATM    8  C7  UNL     1      21.903   0.948  52.564  1.00  0.00     0.001 A 
BRANCH   4   9
HETATM    9  N1  UNL     1      25.623   1.061  52.519  1.00  0.00    -0.263 N 
BRANCH   9  10
HETATM   10  C2  UNL     1      26.714   0.217  52.045  1.00  0.00     0.151 C 
HETATM   11  C1  UNL     1      27.782  -0.008  53.084  1.00  0.00     0.029 C 
ENDBRANCH   9  10
BRANCH   9  12
HETATM   12  O1  UNL     1      25.934   2.393  52.643  1.00  0.00    -0.287 OA
HETATM   13  H6  UNL     1      25.591   2.935  51.906  1.00  0.00     0.244 HD
ENDBRANCH   9  12
ENDBRANCH   4   9
ENDBRANCH   1   3
BRANCH   1  14
HETATM   14  C9  UNL     1      23.537   3.217  50.453  1.00  0.00     0.723 A 
HETATM   15  N3  UNL     1      22.469   4.048  50.465  1.00  0.00    -0.075 NA
HETATM   16  C10 UNL     1      22.574   5.315  50.008  1.00  0.00     0.139 A 
HETATM   17  C11 UNL     1      23.765   5.787  49.524  1.00  0.00     0.053 A 
HETATM   18  C12 UNL     1      24.837   4.940  49.516  1.00  0.00     0.089 A 
HETATM   19  C13 UNL     1      26.121   5.364  49.023  1.00  0.00     0.011 A 
HETATM   20  N5  UNL     1      24.687   3.702  49.975  1.00  0.00    -0.062 NA
HETATM   21  C14 UNL     1      26.438   6.607  48.515  1.00  0.00     0.017 A 
HETATM   22  C17 UNL     1      27.212   4.488  49.020  1.00  0.00     0.130 A 
HETATM   23  C15 UNL     1      27.691   6.935  48.062  1.00  0.00     0.020 A 
HETATM   24  C16 UNL     1      28.720   6.016  48.092  1.00  0.00     0.116 A 
HETATM   25  N4  UNL     1      28.433   4.796  48.583  1.00  0.00    -0.272 NA
ENDBRANCH   1  14
TORSDOF 5
ENDMDL
MODEL 7
REMARK VINA RESULT:      -7.6      1.721      2.924
REMARK  5 active torsions:
REMARK  status: ('A' for Active; 'I' for Inactive)
REMARK    1  A    between atoms: C2_2  and  N1_3 
REMARK    2  A    between atoms: N1_3  and  O1_4 
REMARK    3  A    between atoms: N1_3  and  C3_5 
REMARK    4  A    between atoms: C8_10  and  N2_11 
REMARK    5  A    between atoms: N2_11  and  C9_12 
ROOT
HETATM    1  N2  UNL     1      21.814   1.395  53.167  1.00  0.00    -0.209 N 
HETATM    2  H13 UNL     1      21.343   1.946  53.889  1.00  0.00     0.179 HD
ENDROOT
BRANCH   1   3
HETATM    3  C8  UNL     1      21.156   0.192  52.756  1.00  0.00     0.174 A 
HETATM    4  C3  UNL     1      19.732   0.406  52.372  1.00  0.00     0.058 A 
HETATM    5  C4  UNL     1      18.796  -0.438  52.780  1.00  0.00     0.007 A 
HETATM    6  C5  UNL     1      18.951  -1.667  53.630  1.00  0.00     0.056 A 
HETATM    7  C6  UNL     1      20.357  -1.771  54.119  1.00  0.00    -0.024 A 
HETATM    8  C7  UNL     1      21.287  -0.933  53.707  1.00  0.00     0.001 A 
BRANCH   4   9
HETATM    9  N1  UNL     1      19.514   1.547  51.571  1.00  0.00    -0.263 N 
BRANCH   9  10
HETATM   10  C2  UNL     1      19.383   1.592  50.120  1.00  0.00     0.151 C 
HETATM   11  C1  UNL     1      20.658   1.240  49.398  1.00  0.00     0.029 C 
ENDBRANCH   9  10
BRANCH   9  12
HETATM   12  O1  UNL     1      19.412   2.766  52.198  1.00  0.00    -0.287 OA
HETATM   13  H6  UNL     1      20.074   2.888  52.905  1.00  0.00     0.244 HD
ENDBRANCH   9  12
ENDBRANCH   4   9
ENDBRANCH   1   3
BRANCH   1  14
HETATM   14  C9  UNL     1      23.057   1.844  52.631  1.00  0.00     0.723 A 
HETATM   15  N3  UNL     1      23.130   2.721  51.602  1.00  0.00    -0.075 NA
HETATM   16  C10 UNL     1      24.327   3.122  51.120  1.00  0.00     0.139 A 
HETATM   17  C11 UNL     1      25.493   2.650  51.661  1.00  0.00     0.053 A 
HETATM   18  C12 UNL     1      25.408   1.765  52.700  1.00  0.00     0.089 A 
HETATM   19  C13 UNL     1      26.589   1.226  53.321  1.00  0.00     0.011 A 
HETATM   20  N5  UNL     1      24.209   1.399  53.142  1.00  0.00    -0.062 NA
HETATM   21  C14 UNL     1      27.897   1.504  52.981  1.00  0.00     0.017 A 
HETATM   22  C17 UNL     1      26.490   0.321  54.383  1.00  0.00     0.130 A 
HETATM   23  C15 UNL     1      28.974   0.946  53.624  1.00  0.00     0.020 A 
HETATM   24  C16 UNL     1      28.797   0.059  54.666  1.00  0.00     0.116 A 
HETATM   25  N4  UNL     1      27.529  -0.226  55.015  1.00  0.00    -0.272 NA
ENDBRANCH   1  14
TORSDOF 5
ENDMDL
MODEL 8
REMARK VINA RESULT:      -7.6      3.693      6.523
REMARK  5 active torsions:
REMARK  status: ('A' for Active; 'I' for Inactive)
REMARK    1  A    between atoms: C2_2  and  N1_3 
REMARK    2  A    between atoms: N1_3  and  O1_4 
REMARK    3  A    between atoms: N1_3  and  C3_5 
REMARK    4  A    between atoms: C8_10  and  N2_11 
REMARK    5  A    between atoms: N2_11  and  C9_12 
ROOT
HETATM    1  N2  UNL     1      24.991   3.721  49.970  1.00  0.00    -0.209 N 
HETATM    2  H13 UNL     1      24.339   3.592  49.193  1.00  0.00     0.179 HD
ENDROOT
BRANCH   1   3
HETATM    3  C8  UNL     1      25.562   5.025  50.111  1.00  0.00     0.174 A 
HETATM    4  C3  UNL     1      24.551   6.076  50.419  1.00  0.00     0.058 A 
HETATM    5  C4  UNL     1      24.592   7.246  49.800  1.00  0.00     0.007 A 
HETATM    6  C5  UNL     1      25.567   7.719  48.759  1.00  0.00     0.056 A 
HETATM    7  C6  UNL     1      26.471   6.600  48.365  1.00  0.00    -0.024 A 
HETATM    8  C7  UNL     1      26.431   5.438  48.988  1.00  0.00     0.001 A 
BRANCH   4   9
HETATM    9  N1  UNL     1      23.601   5.696  51.392  1.00  0.00    -0.263 N 
BRANCH   9  10
HETATM   10  C2  UNL     1      22.150   5.790  51.289  1.00  0.00     0.151 C 
HETATM   11  C1  UNL     1      21.457   4.462  51.444  1.00  0.00     0.029 C 
ENDBRANCH   9  10
BRANCH   9  12
HETATM   12  O1  UNL     1      24.064   5.179  52.578  1.00  0.00    -0.287 OA
HETATM   13  H6  UNL     1      23.482   4.485  52.945  1.00  0.00     0.244 HD
ENDBRANCH   9  12
ENDBRANCH   4   9
ENDBRANCH   1   3
BRANCH   1  14
HETATM   14  C9  UNL     1      25.284   2.627  50.838  1.00  0.00     0.723 A 
HETATM   15  N3  UNL     1      26.529   2.113  50.965  1.00  0.00    -0.075 NA
HETATM   16  C10 UNL     1      26.768   1.075  51.796  1.00  0.00     0.139 A 
HETATM   17  C11 UNL     1      25.753   0.519  52.529  1.00  0.00     0.053 A 
HETATM   18  C12 UNL     1      24.499   1.045  52.394  1.00  0.00     0.089 A 
HETATM   19  C13 UNL     1      23.382   0.515  53.131  1.00  0.00     0.011 A 
HETATM   20  N5  UNL     1      24.311   2.067  51.564  1.00  0.00    -0.062 NA
HETATM   21  C14 UNL     1      23.411  -0.536  54.024  1.00  0.00     0.017 A 
HETATM   22  C17 UNL     1      22.103   1.062  52.985  1.00  0.00     0.130 A 
HETATM   23  C15 UNL     1      22.297  -0.985  54.690  1.00  0.00     0.020 A 
HETATM   24  C16 UNL     1      21.066  -0.393  54.494  1.00  0.00     0.116 A 
HETATM   25  N4  UNL     1      21.015   0.634  53.627  1.00  0.00    -0.272 NA
ENDBRANCH   1  14
TORSDOF 5
ENDMDL
MODEL 9
REMARK VINA RESULT:      -7.6      2.159      3.332
REMARK  5 active torsions:
REMARK  status: ('A' for Active; 'I' for Inactive)
REMARK    1  A    between atoms: C2_2  and  N1_3 
REMARK    2  A    between atoms: N1_3  and  O1_4 
REMARK    3  A    between atoms: N1_3  and  C3_5 
REMARK    4  A    between atoms: C8_10  and  N2_11 
REMARK    5  A    between atoms: N2_11  and  C9_12 
ROOT
HETATM    1  N2  UNL     1      22.245   2.780  52.332  1.00  0.00    -0.209 N 
HETATM    2  H13 UNL     1      21.943   3.464  53.030  1.00  0.00     0.179 HD
ENDROOT
BRANCH   1   3
HETATM    3  C8  UNL     1      21.895   3.060  50.974  1.00  0.00     0.174 A 
HETATM    4  C3  UNL     1      20.722   2.276  50.497  1.00  0.00     0.058 A 
HETATM    5  C4  UNL     1      20.737   1.709  49.300  1.00  0.00     0.007 A 
HETATM    6  C5  UNL     1      21.829   1.732  48.269  1.00  0.00     0.056 A 
HETATM    7  C6  UNL     1      23.042   2.396  48.830  1.00  0.00    -0.024 A 
HETATM    8  C7  UNL     1      23.021   2.963  50.019  1.00  0.00     0.001 A 
BRANCH   4   9
HETATM    9  N1  UNL     1      19.656   2.212  51.421  1.00  0.00    -0.263 N 
BRANCH   9  10
HETATM   10  C2  UNL     1      18.643   1.169  51.525  1.00  0.00     0.151 C 
HETATM   11  C1  UNL     1      19.119  -0.045  52.280  1.00  0.00     0.029 C 
ENDBRANCH   9  10
BRANCH   9  12
HETATM   12  O1  UNL     1      19.531   3.233  52.332  1.00  0.00    -0.287 OA
HETATM   13  H6  UNL     1      19.352   4.097  51.915  1.00  0.00     0.244 HD
ENDBRANCH   9  12
ENDBRANCH   4   9
ENDBRANCH   1   3
BRANCH   1  14
HETATM   14  C9  UNL     1      22.972   1.624  52.744  1.00  0.00     0.723 A 
HETATM   15  N3  UNL     1      22.399   0.402  52.846  1.00  0.00    -0.075 NA
HETATM   16  C10 UNL     1      23.121  -0.670  53.241  1.00  0.00     0.139 A 
HETATM   17  C11 UNL     1      24.450  -0.543  53.547  1.00  0.00     0.053 A 
HETATM   18  C12 UNL     1      25.019   0.695  53.441  1.00  0.00     0.089 A 
HETATM   19  C13 UNL     1      26.410   0.906  53.745  1.00  0.00     0.011 A 
HETATM   20  N5  UNL     1      24.271   1.720  53.049  1.00  0.00    -0.062 NA
HETATM   21  C14 UNL     1      27.315  -0.048  54.164  1.00  0.00     0.017 A 
HETATM   22  C17 UNL     1      26.982   2.178  53.633  1.00  0.00     0.130 A 
HETATM   23  C15 UNL     1      28.631   0.235  54.435  1.00  0.00     0.020 A 
HETATM   24  C16 UNL     1      29.124   1.516  54.301  1.00  0.00     0.116 A 
HETATM   25  N4  UNL     1      28.259   2.463  53.893  1.00  0.00    -0.272 NA
ENDBRANCH   1  14
TORSDOF 5
ENDMDL
