MODEL 1
REMARK VINA RESULT:      -7.0      0.000      0.000
REMARK  7 active torsions:
REMARK  status: ('A' for Active; 'I' for Inactive)
REMARK    1  A    between atoms: C2_2  and  C3_3 
REMARK    2  A    between atoms: C3_3  and  C4_5 
REMARK    3  A    between atoms: C5_6  and  C6_7 
REMARK    4  A    between atoms: C6_7  and  O1_8 
REMARK    5  A    between atoms: O1_8  and  C7_9 
REMARK    6  A    between atoms: C10_12  and  N1_13 
REMARK    7  A    between atoms: C11_14  and  P1_15 
ROOT
HETATM    1  C7  UNL     1      22.965   3.550  51.493  1.00  0.00     0.090 A 
HETATM    2  C8  UNL     1      23.731   3.847  52.596  1.00  0.00     0.041 A 
HETATM    3  C9  UNL     1      24.499   2.936  53.259  1.00  0.00     0.032 A 
HETATM    4  C10 UNL     1      24.551   1.623  52.849  1.00  0.00     0.033 A 
HETATM    5  C15 UNL     1      23.782   1.310  51.737  1.00  0.00     0.056 A 
HETATM    6  C16 UNL     1      22.992   2.231  51.048  1.00  0.00     0.069 A 
HETATM    7 CL1  UNL     1      22.038   1.779  49.645  1.00  0.00    -0.081 Cl
ENDROOT
BRANCH   4   8
HETATM    8  N1  UNL     1      25.246   0.499  53.363  1.00  0.00    -0.363 N 
HETATM    9  C11 UNL     1      25.787   0.094  52.208  1.00  0.00     0.122 C 
HETATM   10  H11 UNL     1      25.344   0.067  54.309  1.00  0.00     0.165 HD
BRANCH   9  11
HETATM   11  P1  UNL     1      27.311   0.625  52.545  1.00  0.00     0.074 P 
HETATM   12  C12 UNL     1      27.838  -0.161  53.917  1.00  0.00     0.054 A 
HETATM   13  C13 UNL     1      28.695   0.444  54.963  1.00  0.00     0.120 A 
HETATM   14  N2  UNL     1      29.045   1.660  54.784  1.00  0.00    -0.254 NA
HETATM   15  C14 UNL     1      28.680   2.474  53.670  1.00  0.00     0.232 A 
HETATM   16  N3  UNL     1      27.938   2.263  52.570  1.00  0.00    -0.245 NA
ENDBRANCH   9  11
ENDBRANCH   4   8
BRANCH   1  17
HETATM   17  O1  UNL     1      22.183   4.434  50.800  1.00  0.00    -0.346 OA
BRANCH  17  18
HETATM   18  C6  UNL     1      22.621   5.760  50.613  1.00  0.00     0.203 C 
BRANCH  18  19
HETATM   19  C5  UNL     1      23.213   5.821  49.248  1.00  0.00    -0.001 C 
HETATM   20  C4  UNL     1      24.471   5.709  48.879  1.00  0.00     0.012 C 
BRANCH  20  21
HETATM   21  C3  UNL     1      25.612   5.487  49.803  1.00  0.00     0.215 C 
HETATM   22  F1  UNL     1      26.227   6.716  50.046  1.00  0.00    -0.241 F 
BRANCH  21  23
HETATM   23  C2  UNL     1      26.609   4.564  49.199  1.00  0.00     0.004 C 
HETATM   24  C1  UNL     1      26.428   3.298  49.551  1.00  0.00     0.010 C 
ENDBRANCH  21  23
ENDBRANCH  20  21
ENDBRANCH  18  19
ENDBRANCH  17  18
ENDBRANCH   1  17
TORSDOF 7
ENDMDL
MODEL 2
REMARK VINA RESULT:      -6.6      2.813      4.492
REMARK  7 active torsions:
REMARK  status: ('A' for Active; 'I' for Inactive)
REMARK    1  A    between atoms: C2_2  and  C3_3 
REMARK    2  A    between atoms: C3_3  and  C4_5 
REMARK    3  A    between atoms: C5_6  and  C6_7 
REMARK    4  A    between atoms: C6_7  and  O1_8 
REMARK    5  A    between atoms: O1_8  and  C7_9 
REMARK    6  A    between atoms: C10_12  and  N1_13 
REMARK    7  A    between atoms: C11_14  and  P1_15 
ROOT
HETATM    1  C7  UNL     1      23.169   3.090  51.831  1.00  0.00     0.090 A 
HETATM    2  C8  UNL     1      23.768   3.120  53.069  1.00  0.00     0.041 A 
HETATM    3  C9  UNL     1      25.058   2.743  53.301  1.00  0.00     0.032 A 
HETATM    4  C10 UNL     1      25.860   2.296  52.276  1.00  0.00     0.033 A 
HETATM    5  C15 UNL     1      25.268   2.261  51.022  1.00  0.00     0.056 A 
HETATM    6  C16 UNL     1      23.950   2.643  50.768  1.00  0.00     0.069 A 
HETATM    7 CL1  UNL     1      23.252   2.579  49.158  1.00  0.00    -0.081 Cl
ENDROOT
BRANCH   4   8
HETATM    8  N1  UNL     1      27.203   1.842  52.256  1.00  0.00    -0.363 N 
HETATM    9  C11 UNL     1      27.431   1.929  53.572  1.00  0.00     0.122 C 
HETATM   10  H11 UNL     1      27.862   1.534  51.505  1.00  0.00     0.165 HD
BRANCH   9  11
HETATM   11  P1  UNL     1      27.360   0.307  53.858  1.00  0.00     0.074 P 
HETATM   12  C12 UNL     1      28.922  -0.262  53.982  1.00  0.00     0.054 A 
HETATM   13  C13 UNL     1      29.380  -1.587  53.504  1.00  0.00     0.120 A 
HETATM   14  N2  UNL     1      28.500  -2.335  52.957  1.00  0.00    -0.254 NA
HETATM   15  C14 UNL     1      27.125  -2.000  52.772  1.00  0.00     0.232 A 
HETATM   16  N3  UNL     1      26.385  -0.920  53.071  1.00  0.00    -0.245 NA
ENDBRANCH   9  11
ENDBRANCH   4   8
BRANCH   1  17
HETATM   17  O1  UNL     1      21.880   3.460  51.556  1.00  0.00    -0.346 OA
BRANCH  17  18
HETATM   18  C6  UNL     1      20.816   2.875  52.269  1.00  0.00     0.203 C 
BRANCH  18  19
HETATM   19  C5  UNL     1      20.547   1.560  51.624  1.00  0.00    -0.001 C 
HETATM   20  C4  UNL     1      20.938   0.358  51.987  1.00  0.00     0.012 C 
BRANCH  20  21
HETATM   21  C3  UNL     1      21.772   0.058  53.178  1.00  0.00     0.215 C 
HETATM   22  F1  UNL     1      23.067  -0.231  52.748  1.00  0.00    -0.241 F 
BRANCH  21  23
HETATM   23  C2  UNL     1      21.238  -1.119  53.913  1.00  0.00     0.004 C 
HETATM   24  C1  UNL     1      22.076  -1.586  54.829  1.00  0.00     0.010 C 
ENDBRANCH  21  23
ENDBRANCH  20  21
ENDBRANCH  18  19
ENDBRANCH  17  18
ENDBRANCH   1  17
TORSDOF 7
ENDMDL
MODEL 3
REMARK VINA RESULT:      -6.3      0.963      1.024
REMARK  7 active torsions:
REMARK  status: ('A' for Active; 'I' for Inactive)
REMARK    1  A    between atoms: C2_2  and  C3_3 
REMARK    2  A    between atoms: C3_3  and  C4_5 
REMARK    3  A    between atoms: C5_6  and  C6_7 
REMARK    4  A    between atoms: C6_7  and  O1_8 
REMARK    5  A    between atoms: O1_8  and  C7_9 
REMARK    6  A    between atoms: C10_12  and  N1_13 
REMARK    7  A    between atoms: C11_14  and  P1_15 
ROOT
HETATM    1  C7  UNL     1      22.758   3.270  51.628  1.00  0.00     0.090 A 
HETATM    2  C8  UNL     1      23.640   3.704  52.590  1.00  0.00     0.041 A 
HETATM    3  C9  UNL     1      24.476   2.880  53.285  1.00  0.00     0.032 A 
HETATM    4  C10 UNL     1      24.485   1.524  53.055  1.00  0.00     0.033 A 
HETATM    5  C15 UNL     1      23.599   1.073  52.086  1.00  0.00     0.056 A 
HETATM    6  C16 UNL     1      22.738   1.902  51.367  1.00  0.00     0.069 A 
HETATM    7 CL1  UNL     1      21.637   1.276  50.151  1.00  0.00    -0.081 Cl
ENDROOT
BRANCH   4   8
HETATM    8  N1  UNL     1      25.233   0.471  53.639  1.00  0.00    -0.363 N 
HETATM    9  C11 UNL     1      25.694  -0.060  52.500  1.00  0.00     0.122 C 
HETATM   10  H11 UNL     1      25.406   0.149  54.618  1.00  0.00     0.165 HD
BRANCH   9  11
HETATM   11  P1  UNL     1      27.231   0.517  52.661  1.00  0.00     0.074 P 
HETATM   12  C12 UNL     1      27.902  -0.179  54.019  1.00  0.00     0.054 A 
HETATM   13  C13 UNL     1      28.839   0.501  54.943  1.00  0.00     0.120 A 
HETATM   14  N2  UNL     1      29.142   1.711  54.665  1.00  0.00    -0.254 NA
HETATM   15  C14 UNL     1      28.655   2.452  53.547  1.00  0.00     0.232 A 
HETATM   16  N3  UNL     1      27.819   2.165  52.536  1.00  0.00    -0.245 NA
ENDBRANCH   9  11
ENDBRANCH   4   8
BRANCH   1  17
HETATM   17  O1  UNL     1      21.904   4.062  50.909  1.00  0.00    -0.346 OA
BRANCH  17  18
HETATM   18  C6  UNL     1      22.413   5.141  50.159  1.00  0.00     0.203 C 
BRANCH  18  19
HETATM   19  C5  UNL     1      23.357   4.558  49.167  1.00  0.00    -0.001 C 
HETATM   20  C4  UNL     1      24.424   5.095  48.616  1.00  0.00     0.012 C 
BRANCH  20  21
HETATM   21  C3  UNL     1      24.925   6.466  48.892  1.00  0.00     0.215 C 
HETATM   22  F1  UNL     1      24.785   7.227  47.730  1.00  0.00    -0.241 F 
BRANCH  21  23
HETATM   23  C2  UNL     1      26.361   6.436  49.274  1.00  0.00     0.004 C 
HETATM   24  C1  UNL     1      27.045   5.479  48.662  1.00  0.00     0.010 C 
ENDBRANCH  21  23
ENDBRANCH  20  21
ENDBRANCH  18  19
ENDBRANCH  17  18
ENDBRANCH   1  17
TORSDOF 7
ENDMDL
MODEL 4
REMARK VINA RESULT:      -6.3      2.997      3.922
REMARK  7 active torsions:
REMARK  status: ('A' for Active; 'I' for Inactive)
REMARK    1  A    between atoms: C2_2  and  C3_3 
REMARK    2  A    between atoms: C3_3  and  C4_5 
REMARK    3  A    between atoms: C5_6  and  C6_7 
REMARK    4  A    between atoms: C6_7  and  O1_8 
REMARK    5  A    between atoms: O1_8  and  C7_9 
REMARK    6  A    between atoms: C10_12  and  N1_13 
REMARK    7  A    between atoms: C11_14  and  P1_15 
ROOT
HETATM    1  C7  UNL     1      21.306   2.685  52.403  1.00  0.00     0.090 A 
HETATM    2  C8  UNL     1      22.309   3.471  51.888  1.00  0.00     0.041 A 
HETATM    3  C9  UNL     1      23.580   3.033  51.656  1.00  0.00     0.032 A 
HETATM    4  C10 UNL     1      23.941   1.735  51.935  1.00  0.00     0.033 A 
HETATM    5  C15 UNL     1      22.938   0.930  52.455  1.00  0.00     0.056 A 
HETATM    6  C16 UNL     1      21.634   1.363  52.698  1.00  0.00     0.069 A 
HETATM    7 CL1  UNL     1      20.402   0.300  53.357  1.00  0.00    -0.081 Cl
ENDROOT
BRANCH   4   8
HETATM    8  N1  UNL     1      25.174   1.047  51.800  1.00  0.00    -0.363 N 
HETATM    9  C11 UNL     1      25.971   2.122  51.840  1.00  0.00     0.122 C 
HETATM   10  H11 UNL     1      25.446   0.044  51.694  1.00  0.00     0.165 HD
BRANCH   9  11
HETATM   11  P1  UNL     1      26.512   1.868  53.377  1.00  0.00     0.074 P 
HETATM   12  C12 UNL     1      28.113   2.330  53.441  1.00  0.00     0.054 A 
HETATM   13  C13 UNL     1      29.156   1.659  54.252  1.00  0.00     0.120 A 
HETATM   14  N2  UNL     1      28.782   0.652  54.945  1.00  0.00    -0.254 NA
HETATM   15  C14 UNL     1      27.457   0.127  55.001  1.00  0.00     0.232 A 
HETATM   16  N3  UNL     1      26.297   0.471  54.415  1.00  0.00    -0.245 NA
ENDBRANCH   9  11
ENDBRANCH   4   8
BRANCH   1  17
HETATM   17  O1  UNL     1      20.020   3.086  52.650  1.00  0.00    -0.346 OA
BRANCH  17  18
HETATM   18  C6  UNL     1      19.239   3.615  51.604  1.00  0.00     0.203 C 
BRANCH  18  19
HETATM   19  C5  UNL     1      18.622   2.452  50.908  1.00  0.00    -0.001 C 
HETATM   20  C4  UNL     1      18.944   1.904  49.756  1.00  0.00     0.012 C 
BRANCH  20  21
HETATM   21  C3  UNL     1      20.049   2.361  48.876  1.00  0.00     0.215 C 
HETATM   22  F1  UNL     1      19.547   2.511  47.582  1.00  0.00    -0.241 F 
BRANCH  21  23
HETATM   23  C2  UNL     1      21.151   1.363  48.849  1.00  0.00     0.004 C 
HETATM   24  C1  UNL     1      22.265   1.831  48.301  1.00  0.00     0.010 C 
ENDBRANCH  21  23
ENDBRANCH  20  21
ENDBRANCH  18  19
ENDBRANCH  17  18
ENDBRANCH   1  17
TORSDOF 7
ENDMDL
MODEL 5
REMARK VINA RESULT:      -6.2      4.593      7.091
REMARK  7 active torsions:
REMARK  status: ('A' for Active; 'I' for Inactive)
REMARK    1  A    between atoms: C2_2  and  C3_3 
REMARK    2  A    between atoms: C3_3  and  C4_5 
REMARK    3  A    between atoms: C5_6  and  C6_7 
REMARK    4  A    between atoms: C6_7  and  O1_8 
REMARK    5  A    between atoms: O1_8  and  C7_9 
REMARK    6  A    between atoms: C10_12  and  N1_13 
REMARK    7  A    between atoms: C11_14  and  P1_15 
ROOT
HETATM    1  C7  UNL     1      24.582   1.406  52.450  1.00  0.00     0.090 A 
HETATM    2  C8  UNL     1      23.983   2.106  51.429  1.00  0.00     0.041 A 
HETATM    3  C9  UNL     1      22.747   1.818  50.930  1.00  0.00     0.032 A 
HETATM    4  C10 UNL     1      22.006   0.774  51.435  1.00  0.00     0.033 A 
HETATM    5  C15 UNL     1      22.599   0.059  52.466  1.00  0.00     0.056 A 
HETATM    6  C16 UNL     1      23.862   0.342  52.987  1.00  0.00     0.069 A 
HETATM    7 CL1  UNL     1      24.565  -0.597  54.294  1.00  0.00    -0.081 Cl
ENDROOT
BRANCH   4   8
HETATM    8  N1  UNL     1      20.727   0.269  51.090  1.00  0.00    -0.363 N 
HETATM    9  C11 UNL     1      20.156   0.423  52.291  1.00  0.00     0.122 C 
HETATM   10  H11 UNL     1      20.301  -0.118  50.218  1.00  0.00     0.165 HD
BRANCH   9  11
HETATM   11  P1  UNL     1      19.251   1.738  51.876  1.00  0.00     0.074 P 
HETATM   12  C12 UNL     1      18.715   1.520  50.312  1.00  0.00     0.054 A 
HETATM   13  C13 UNL     1      18.558   2.602  49.313  1.00  0.00     0.120 A 
HETATM   14  N2  UNL     1      18.863   3.784  49.695  1.00  0.00    -0.254 NA
HETATM   15  C14 UNL     1      19.337   4.140  50.993  1.00  0.00     0.232 A 
HETATM   16  N3  UNL     1      19.592   3.442  52.112  1.00  0.00    -0.245 NA
ENDBRANCH   9  11
ENDBRANCH   4   8
BRANCH   1  17
HETATM   17  O1  UNL     1      25.818   1.663  52.979  1.00  0.00    -0.346 OA
BRANCH  17  18
HETATM   18  C6  UNL     1      26.905   1.933  52.124  1.00  0.00     0.203 C 
BRANCH  18  19
HETATM   19  C5  UNL     1      28.053   2.294  53.001  1.00  0.00    -0.001 C 
HETATM   20  C4  UNL     1      28.759   1.530  53.806  1.00  0.00     0.012 C 
BRANCH  20  21
HETATM   21  C3  UNL     1      28.538   0.076  54.011  1.00  0.00     0.215 C 
HETATM   22  F1  UNL     1      28.305  -0.147  55.369  1.00  0.00    -0.241 F 
BRANCH  21  23
HETATM   23  C2  UNL     1      29.734  -0.704  53.596  1.00  0.00     0.004 C 
HETATM   24  C1  UNL     1      29.464  -1.978  53.342  1.00  0.00     0.010 C 
ENDBRANCH  21  23
ENDBRANCH  20  21
ENDBRANCH  18  19
ENDBRANCH  17  18
ENDBRANCH   1  17
TORSDOF 7
ENDMDL
MODEL 6
REMARK VINA RESULT:      -6.0      4.549      7.104
REMARK  7 active torsions:
REMARK  status: ('A' for Active; 'I' for Inactive)
REMARK    1  A    between atoms: C2_2  and  C3_3 
REMARK    2  A    between atoms: C3_3  and  C4_5 
REMARK    3  A    between atoms: C5_6  and  C6_7 
REMARK    4  A    between atoms: C6_7  and  O1_8 
REMARK    5  A    between atoms: O1_8  and  C7_9 
REMARK    6  A    between atoms: C10_12  and  N1_13 
REMARK    7  A    between atoms: C11_14  and  P1_15 
ROOT
HETATM    1  C7  UNL     1      23.502   0.856  52.450  1.00  0.00     0.090 A 
HETATM    2  C8  UNL     1      22.321   0.154  52.507  1.00  0.00     0.041 A 
HETATM    3  C9  UNL     1      21.359   0.200  51.540  1.00  0.00     0.032 A 
HETATM    4  C10 UNL     1      21.522   0.977  50.417  1.00  0.00     0.033 A 
HETATM    5  C15 UNL     1      22.710   1.691  50.348  1.00  0.00     0.056 A 
HETATM    6  C16 UNL     1      23.703   1.655  51.327  1.00  0.00     0.069 A 
HETATM    7 CL1  UNL     1      25.189   2.580  51.187  1.00  0.00    -0.081 Cl
ENDROOT
BRANCH   4   8
HETATM    8  N1  UNL     1      20.685   1.205  49.296  1.00  0.00    -0.363 N 
HETATM    9  C11 UNL     1      19.516   1.164  49.946  1.00  0.00     0.122 C 
HETATM   10  H11 UNL     1      20.851   1.356  48.275  1.00  0.00     0.165 HD
BRANCH   9  11
HETATM   11  P1  UNL     1      19.250   2.791  49.909  1.00  0.00     0.074 P 
HETATM   12  C12 UNL     1      19.533   3.322  48.355  1.00  0.00     0.054 A 
HETATM   13  C13 UNL     1      20.134   4.630  48.004  1.00  0.00     0.120 A 
HETATM   14  N2  UNL     1      20.455   5.393  48.979  1.00  0.00    -0.254 NA
HETATM   15  C14 UNL     1      20.283   5.089  50.362  1.00  0.00     0.232 A 
HETATM   16  N3  UNL     1      19.787   4.032  51.026  1.00  0.00    -0.245 NA
ENDBRANCH   9  11
ENDBRANCH   4   8
BRANCH   1  17
HETATM   17  O1  UNL     1      24.491   0.837  53.397  1.00  0.00    -0.346 OA
BRANCH  17  18
HETATM   18  C6  UNL     1      25.009  -0.394  53.843  1.00  0.00     0.203 C 
BRANCH  18  19
HETATM   19  C5  UNL     1      26.012  -0.823  52.829  1.00  0.00    -0.001 C 
HETATM   20  C4  UNL     1      27.276  -0.480  52.710  1.00  0.00     0.012 C 
BRANCH  20  21
HETATM   21  C3  UNL     1      27.993   0.455  53.614  1.00  0.00     0.215 C 
HETATM   22  F1  UNL     1      28.483   1.516  52.851  1.00  0.00    -0.241 F 
BRANCH  21  23
HETATM   23  C2  UNL     1      29.136  -0.224  54.278  1.00  0.00     0.004 C 
HETATM   24  C1  UNL     1      29.805  -1.033  53.467  1.00  0.00     0.010 C 
ENDBRANCH  21  23
ENDBRANCH  20  21
ENDBRANCH  18  19
ENDBRANCH  17  18
ENDBRANCH   1  17
TORSDOF 7
ENDMDL
MODEL 7
REMARK VINA RESULT:      -5.9      1.829      2.572
REMARK  7 active torsions:
REMARK  status: ('A' for Active; 'I' for Inactive)
REMARK    1  A    between atoms: C2_2  and  C3_3 
REMARK    2  A    between atoms: C3_3  and  C4_5 
REMARK    3  A    between atoms: C5_6  and  C6_7 
REMARK    4  A    between atoms: C6_7  and  O1_8 
REMARK    5  A    between atoms: O1_8  and  C7_9 
REMARK    6  A    between atoms: C10_12  and  N1_13 
REMARK    7  A    between atoms: C11_14  and  P1_15 
ROOT
HETATM    1  C7  UNL     1      22.644   2.964  51.615  1.00  0.00     0.090 A 
HETATM    2  C8  UNL     1      23.574   3.490  52.480  1.00  0.00     0.041 A 
HETATM    3  C9  UNL     1      24.459   2.740  53.198  1.00  0.00     0.032 A 
HETATM    4  C10 UNL     1      24.469   1.368  53.094  1.00  0.00     0.033 A 
HETATM    5  C15 UNL     1      23.535   0.824  52.224  1.00  0.00     0.056 A 
HETATM    6  C16 UNL     1      22.625   1.578  51.482  1.00  0.00     0.069 A 
HETATM    7 CL1  UNL     1      21.464   0.835  50.394  1.00  0.00    -0.081 Cl
ENDROOT
BRANCH   4   8
HETATM    8  N1  UNL     1      25.261   0.378  53.729  1.00  0.00    -0.363 N 
HETATM    9  C11 UNL     1      25.727  -0.204  52.617  1.00  0.00     0.122 C 
HETATM   10  H11 UNL     1      25.459   0.122  54.722  1.00  0.00     0.165 HD
BRANCH   9  11
HETATM   11  P1  UNL     1      27.244   0.435  52.720  1.00  0.00     0.074 P 
HETATM   12  C12 UNL     1      27.969  -0.182  54.089  1.00  0.00     0.054 A 
HETATM   13  C13 UNL     1      28.899   0.568  54.965  1.00  0.00     0.120 A 
HETATM   14  N2  UNL     1      29.151   1.777  54.632  1.00  0.00    -0.254 NA
HETATM   15  C14 UNL     1      28.614   2.454  53.497  1.00  0.00     0.232 A 
HETATM   16  N3  UNL     1      27.768   2.096  52.517  1.00  0.00    -0.245 NA
ENDBRANCH   9  11
ENDBRANCH   4   8
BRANCH   1  17
HETATM   17  O1  UNL     1      21.742   3.681  50.876  1.00  0.00    -0.346 OA
BRANCH  17  18
HETATM   18  C6  UNL     1      22.158   4.841  50.195  1.00  0.00     0.203 C 
BRANCH  18  19
HETATM   19  C5  UNL     1      21.392   5.974  50.784  1.00  0.00    -0.001 C 
HETATM   20  C4  UNL     1      21.621   7.267  50.700  1.00  0.00     0.012 C 
BRANCH  20  21
HETATM   21  C3  UNL     1      22.750   7.886  49.961  1.00  0.00     0.215 C 
HETATM   22  F1  UNL     1      23.722   8.274  50.885  1.00  0.00    -0.241 F 
BRANCH  21  23
HETATM   23  C2  UNL     1      22.296   9.087  49.211  1.00  0.00     0.004 C 
HETATM   24  C1  UNL     1      20.988   9.102  48.994  1.00  0.00     0.010 C 
ENDBRANCH  21  23
ENDBRANCH  20  21
ENDBRANCH  18  19
ENDBRANCH  17  18
ENDBRANCH   1  17
TORSDOF 7
ENDMDL
MODEL 8
REMARK VINA RESULT:      -5.9      3.147      4.867
REMARK  7 active torsions:
REMARK  status: ('A' for Active; 'I' for Inactive)
REMARK    1  A    between atoms: C2_2  and  C3_3 
REMARK    2  A    between atoms: C3_3  and  C4_5 
REMARK    3  A    between atoms: C5_6  and  C6_7 
REMARK    4  A    between atoms: C6_7  and  O1_8 
REMARK    5  A    between atoms: O1_8  and  C7_9 
REMARK    6  A    between atoms: C10_12  and  N1_13 
REMARK    7  A    between atoms: C11_14  and  P1_15 
ROOT
HETATM    1  C7  UNL     1      21.084   3.087  50.946  1.00  0.00     0.090 A 
HETATM    2  C8  UNL     1      21.599   3.772  52.022  1.00  0.00     0.041 A 
HETATM    3  C9  UNL     1      22.932   3.876  52.293  1.00  0.00     0.032 A 
HETATM    4  C10 UNL     1      23.868   3.281  51.479  1.00  0.00     0.033 A 
HETATM    5  C15 UNL     1      23.361   2.586  50.389  1.00  0.00     0.056 A 
HETATM    6  C16 UNL     1      22.001   2.471  50.098  1.00  0.00     0.069 A 
HETATM    7 CL1  UNL     1      21.416   1.579  48.704  1.00  0.00    -0.081 Cl
ENDROOT
BRANCH   4   8
HETATM    8  N1  UNL     1      25.283   3.229  51.546  1.00  0.00    -0.363 N 
HETATM    9  C11 UNL     1      25.378   2.897  52.839  1.00  0.00     0.122 C 
HETATM   10  H11 UNL     1      26.056   3.390  50.862  1.00  0.00     0.165 HD
BRANCH   9  11
HETATM   11  P1  UNL     1      25.781   1.320  52.575  1.00  0.00     0.074 P 
HETATM   12  C12 UNL     1      24.819   0.373  53.552  1.00  0.00     0.054 A 
HETATM   13  C13 UNL     1      25.254  -0.882  54.208  1.00  0.00     0.120 A 
HETATM   14  N2  UNL     1      26.461  -1.249  54.000  1.00  0.00    -0.254 NA
HETATM   15  C14 UNL     1      27.413  -0.554  53.195  1.00  0.00     0.232 A 
HETATM   16  N3  UNL     1      27.368   0.579  52.475  1.00  0.00    -0.245 NA
ENDBRANCH   9  11
ENDBRANCH   4   8
BRANCH   1  17
HETATM   17  O1  UNL     1      19.756   2.960  50.639  1.00  0.00    -0.346 OA
BRANCH  17  18
HETATM   18  C6  UNL     1      18.866   2.423  51.588  1.00  0.00     0.203 C 
BRANCH  18  19
HETATM   19  C5  UNL     1      18.782   0.963  51.311  1.00  0.00    -0.001 C 
HETATM   20  C4  UNL     1      19.445  -0.030  51.865  1.00  0.00     0.012 C 
BRANCH  20  21
HETATM   21  C3  UNL     1      20.463   0.119  52.935  1.00  0.00     0.215 C 
HETATM   22  F1  UNL     1      21.726   0.141  52.341  1.00  0.00    -0.241 F 
BRANCH  21  23
HETATM   23  C2  UNL     1      20.401  -1.022  53.886  1.00  0.00     0.004 C 
HETATM   24  C1  UNL     1      21.516  -1.178  54.587  1.00  0.00     0.010 C 
ENDBRANCH  21  23
ENDBRANCH  20  21
ENDBRANCH  18  19
ENDBRANCH  17  18
ENDBRANCH   1  17
TORSDOF 7
ENDMDL
MODEL 9
REMARK VINA RESULT:      -5.8      4.250      6.668
REMARK  7 active torsions:
REMARK  status: ('A' for Active; 'I' for Inactive)
REMARK    1  A    between atoms: C2_2  and  C3_3 
REMARK    2  A    between atoms: C3_3  and  C4_5 
REMARK    3  A    between atoms: C5_6  and  C6_7 
REMARK    4  A    between atoms: C6_7  and  O1_8 
REMARK    5  A    between atoms: O1_8  and  C7_9 
REMARK    6  A    between atoms: C10_12  and  N1_13 
REMARK    7  A    between atoms: C11_14  and  P1_15 
ROOT
HETATM    1  C7  UNL     1      22.581   1.165  52.218  1.00  0.00     0.090 A 
HETATM    2  C8  UNL     1      21.857   0.773  51.116  1.00  0.00     0.041 A 
HETATM    3  C9  UNL     1      21.903   1.406  49.909  1.00  0.00     0.032 A 
HETATM    4  C10 UNL     1      22.702   2.510  49.719  1.00  0.00     0.033 A 
HETATM    5  C15 UNL     1      23.439   2.915  50.823  1.00  0.00     0.056 A 
HETATM    6  C16 UNL     1      23.403   2.278  52.065  1.00  0.00     0.069 A 
HETATM    7 CL1  UNL     1      24.358   2.835  53.429  1.00  0.00    -0.081 Cl
ENDROOT
BRANCH   4   8
HETATM    8  N1  UNL     1      22.916   3.340  48.590  1.00  0.00    -0.363 N 
HETATM    9  C11 UNL     1      21.631   3.487  48.244  1.00  0.00     0.122 C 
HETATM   10  H11 UNL     1      23.761   3.737  48.121  1.00  0.00     0.165 HD
BRANCH   9  11
HETATM   11  P1  UNL     1      21.491   5.036  48.793  1.00  0.00     0.074 P 
HETATM   12  C12 UNL     1      22.890   5.851  48.397  1.00  0.00     0.054 A 
HETATM   13  C13 UNL     1      23.531   6.890  49.235  1.00  0.00     0.120 A 
HETATM   14  N2  UNL     1      22.955   7.169  50.343  1.00  0.00    -0.254 NA
HETATM   15  C14 UNL     1      21.758   6.565  50.830  1.00  0.00     0.232 A 
HETATM   16  N3  UNL     1      20.934   5.618  50.351  1.00  0.00    -0.245 NA
ENDBRANCH   9  11
ENDBRANCH   4   8
BRANCH   1  17
HETATM   17  O1  UNL     1      22.564   0.557  53.445  1.00  0.00    -0.346 OA
BRANCH  17  18
HETATM   18  C6  UNL     1      23.036  -0.763  53.580  1.00  0.00     0.203 C 
BRANCH  18  19
HETATM   19  C5  UNL     1      24.266  -0.689  54.417  1.00  0.00    -0.001 C 
HETATM   20  C4  UNL     1      25.527  -0.650  54.044  1.00  0.00     0.012 C 
BRANCH  20  21
HETATM   21  C3  UNL     1      25.999  -0.673  52.637  1.00  0.00     0.215 C 
HETATM   22  F1  UNL     1      26.482  -1.952  52.355  1.00  0.00    -0.241 F 
BRANCH  21  23
HETATM   23  C2  UNL     1      27.097   0.308  52.432  1.00  0.00     0.004 C 
HETATM   24  C1  UNL     1      26.803   1.240  51.535  1.00  0.00     0.010 C 
ENDBRANCH  21  23
ENDBRANCH  20  21
ENDBRANCH  18  19
ENDBRANCH  17  18
ENDBRANCH   1  17
TORSDOF 7
ENDMDL
