MODEL 1
REMARK VINA RESULT:      -8.9      0.000      0.000
REMARK  9 active torsions:
REMARK  status: ('A' for Active; 'I' for Inactive)
REMARK    1  A    between atoms: C3_3  and  O1_4 
REMARK    2  A    between atoms: C4_5  and  C5_6 
REMARK    3  A    between atoms: C5_6  and  N1_7 
REMARK    4  A    between atoms: N1_7  and  C6_8 
REMARK    5  A    between atoms: N1_7  and  C13_16 
REMARK    6  A    between atoms: C6_8  and  C7_9 
REMARK    7  A    between atoms: C10_12  and  O2_13 
REMARK    8  A    between atoms: C13_16  and  N2_18 
REMARK    9  A    between atoms: N2_18  and  C14_19 
ROOT
HETATM    1  N1  UNL     1      25.884   2.159  51.485  1.00  0.00    -0.349 N 
ENDROOT
BRANCH   1   2
HETATM    2  C5  UNL     1      26.267   2.391  50.137  1.00  0.00     0.168 C 
BRANCH   2   3
HETATM    3  C4  UNL     1      25.959   3.704  49.546  1.00  0.00     0.011 A 
HETATM    4  C3  UNL     1      26.898   4.811  49.230  1.00  0.00     0.077 A 
HETATM    5  C2  UNL     1      26.278   5.870  48.760  1.00  0.00    -0.045 A 
HETATM    6  C1  UNL     1      26.824   7.180  48.324  1.00  0.00     0.046 C 
HETATM    7  C21 UNL     1      24.844   5.591  48.707  1.00  0.00     0.088 A 
HETATM    8  C20 UNL     1      24.752   4.202  49.225  1.00  0.00     0.026 A 
HETATM    9 CL1  UNL     1      23.273   3.251  49.422  1.00  0.00    -0.088 Cl
BRANCH   4  10
HETATM   10  O1  UNL     1      28.297   4.775  49.398  1.00  0.00    -0.360 OA
HETATM   11  H4  UNL     1      28.630   4.641  50.335  1.00  0.00     0.217 HD
ENDBRANCH   4  10
ENDBRANCH   2   3
ENDBRANCH   1   2
BRANCH   1  12
HETATM   12  C6  UNL     1      27.149   2.033  52.237  1.00  0.00     0.164 C 
BRANCH  12  13
HETATM   13  C7  UNL     1      27.514   0.648  52.531  1.00  0.00    -0.040 A 
HETATM   14  C8  UNL     1      28.714   0.358  53.187  1.00  0.00     0.011 A 
HETATM   15  C9  UNL     1      29.056  -0.946  53.468  1.00  0.00     0.037 A 
HETATM   16  C10 UNL     1      28.257  -2.017  53.128  1.00  0.00     0.065 A 
HETATM   17  C11 UNL     1      27.064  -1.767  52.478  1.00  0.00     0.037 A 
HETATM   18  C12 UNL     1      26.731  -0.463  52.203  1.00  0.00     0.011 A 
BRANCH  16  19
HETATM   19  O2  UNL     1      28.578  -3.338  53.398  1.00  0.00    -0.361 OA
HETATM   20  H11 UNL     1      28.274  -4.022  52.707  1.00  0.00     0.217 HD
ENDBRANCH  16  19
ENDBRANCH  12  13
ENDBRANCH   1  12
BRANCH   1  21
HETATM   21  C13 UNL     1      24.598   2.115  52.086  1.00  0.00     0.174 C 
HETATM   22  S1  UNL     1      24.340   3.403  53.052  1.00  0.00    -0.041 SA
BRANCH  21  23
HETATM   23  N2  UNL     1      23.561   1.158  52.026  1.00  0.00    -0.333 N 
HETATM   24  H14 UNL     1      23.479   0.942  51.013  1.00  0.00     0.168 HD
BRANCH  23  25
HETATM   25  C14 UNL     1      22.741   0.535  52.946  1.00  0.00     0.034 A 
HETATM   26  C15 UNL     1      21.422   0.752  53.232  1.00  0.00     0.029 A 
HETATM   27  C16 UNL     1      20.662   0.088  54.170  1.00  0.00     0.002 A 
HETATM   28  C17 UNL     1      21.364  -0.877  54.856  1.00  0.00     0.000 A 
HETATM   29  C18 UNL     1      22.674  -1.172  54.650  1.00  0.00     0.002 A 
HETATM   30  C19 UNL     1      23.353  -0.472  53.706  1.00  0.00     0.029 A 
ENDBRANCH  23  25
ENDBRANCH  21  23
ENDBRANCH   1  21
TORSDOF 9
ENDMDL
MODEL 2
REMARK VINA RESULT:      -8.9      2.708      5.169
REMARK  9 active torsions:
REMARK  status: ('A' for Active; 'I' for Inactive)
REMARK    1  A    between atoms: C3_3  and  O1_4 
REMARK    2  A    between atoms: C4_5  and  C5_6 
REMARK    3  A    between atoms: C5_6  and  N1_7 
REMARK    4  A    between atoms: N1_7  and  C6_8 
REMARK    5  A    between atoms: N1_7  and  C13_16 
REMARK    6  A    between atoms: C6_8  and  C7_9 
REMARK    7  A    between atoms: C10_12  and  O2_13 
REMARK    8  A    between atoms: C13_16  and  N2_18 
REMARK    9  A    between atoms: N2_18  and  C14_19 
ROOT
HETATM    1  N1  UNL     1      24.406   2.796  51.748  1.00  0.00    -0.349 N 
ENDROOT
BRANCH   1   2
HETATM    2  C5  UNL     1      23.578   3.690  52.478  1.00  0.00     0.168 C 
BRANCH   2   3
HETATM    3  C4  UNL     1      22.964   4.815  51.753  1.00  0.00     0.011 A 
HETATM    4  C3  UNL     1      23.631   6.017  51.191  1.00  0.00     0.077 A 
HETATM    5  C2  UNL     1      22.774   6.856  50.654  1.00  0.00    -0.045 A 
HETATM    6  C1  UNL     1      23.007   8.162  49.989  1.00  0.00     0.046 C 
HETATM    7  C21 UNL     1      21.427   6.307  50.796  1.00  0.00     0.088 A 
HETATM    8  C20 UNL     1      21.660   5.021  51.503  1.00  0.00     0.026 A 
HETATM    9 CL1  UNL     1      20.425   3.851  51.987  1.00  0.00    -0.088 Cl
BRANCH   4  10
HETATM   10  O1  UNL     1      25.018   6.272  51.208  1.00  0.00    -0.360 OA
HETATM   11  H4  UNL     1      25.471   6.336  50.315  1.00  0.00     0.217 HD
ENDBRANCH   4  10
ENDBRANCH   2   3
ENDBRANCH   1   2
BRANCH   1  12
HETATM   12  C6  UNL     1      23.487   1.805  51.153  1.00  0.00     0.164 C 
BRANCH  12  13
HETATM   13  C7  UNL     1      22.888   0.906  52.138  1.00  0.00    -0.040 A 
HETATM   14  C8  UNL     1      21.525   0.599  52.077  1.00  0.00     0.011 A 
HETATM   15  C9  UNL     1      20.960  -0.252  53.002  1.00  0.00     0.037 A 
HETATM   16  C10 UNL     1      21.685  -0.835  54.019  1.00  0.00     0.065 A 
HETATM   17  C11 UNL     1      23.035  -0.553  54.110  1.00  0.00     0.037 A 
HETATM   18  C12 UNL     1      23.589   0.295  53.182  1.00  0.00     0.011 A 
BRANCH  16  19
HETATM   19  O2  UNL     1      21.142  -1.693  54.963  1.00  0.00    -0.361 OA
HETATM   20  H11 UNL     1      20.530  -1.265  55.655  1.00  0.00     0.217 HD
ENDBRANCH  16  19
ENDBRANCH  12  13
ENDBRANCH   1  12
BRANCH   1  21
HETATM   21  C13 UNL     1      25.808   2.814  51.519  1.00  0.00     0.174 C 
HETATM   22  S1  UNL     1      26.160   3.153  49.963  1.00  0.00    -0.041 SA
BRANCH  21  23
HETATM   23  N2  UNL     1      26.906   2.552  52.368  1.00  0.00    -0.333 N 
HETATM   24  H14 UNL     1      27.185   3.493  52.711  1.00  0.00     0.168 HD
BRANCH  23  25
HETATM   25  C14 UNL     1      27.588   1.423  52.777  1.00  0.00     0.034 A 
HETATM   26  C15 UNL     1      28.776   1.312  53.444  1.00  0.00     0.029 A 
HETATM   27  C16 UNL     1      29.402   0.144  53.821  1.00  0.00     0.002 A 
HETATM   28  C17 UNL     1      28.711  -0.988  53.457  1.00  0.00     0.000 A 
HETATM   29  C18 UNL     1      27.525  -0.989  52.793  1.00  0.00     0.002 A 
HETATM   30  C19 UNL     1      26.972   0.205  52.458  1.00  0.00     0.029 A 
ENDBRANCH  23  25
ENDBRANCH  21  23
ENDBRANCH   1  21
TORSDOF 9
ENDMDL
MODEL 3
REMARK VINA RESULT:      -8.6      2.003      4.327
REMARK  9 active torsions:
REMARK  status: ('A' for Active; 'I' for Inactive)
REMARK    1  A    between atoms: C3_3  and  O1_4 
REMARK    2  A    between atoms: C4_5  and  C5_6 
REMARK    3  A    between atoms: C5_6  and  N1_7 
REMARK    4  A    between atoms: N1_7  and  C6_8 
REMARK    5  A    between atoms: N1_7  and  C13_16 
REMARK    6  A    between atoms: C6_8  and  C7_9 
REMARK    7  A    between atoms: C10_12  and  O2_13 
REMARK    8  A    between atoms: C13_16  and  N2_18 
REMARK    9  A    between atoms: N2_18  and  C14_19 
ROOT
HETATM    1  N1  UNL     1      23.250   2.929  51.283  1.00  0.00    -0.349 N 
ENDROOT
BRANCH   1   2
HETATM    2  C5  UNL     1      23.588   2.923  49.903  1.00  0.00     0.168 C 
BRANCH   2   3
HETATM    3  C4  UNL     1      24.170   4.146  49.326  1.00  0.00     0.011 A 
HETATM    4  C3  UNL     1      25.524   4.711  49.550  1.00  0.00     0.077 A 
HETATM    5  C2  UNL     1      25.698   5.851  48.920  1.00  0.00    -0.045 A 
HETATM    6  C1  UNL     1      26.884   6.743  48.871  1.00  0.00     0.046 C 
HETATM    7  C21 UNL     1      24.470   6.181  48.197  1.00  0.00     0.088 A 
HETATM    8  C20 UNL     1      23.573   5.042  48.522  1.00  0.00     0.026 A 
HETATM    9 CL1  UNL     1      21.911   4.822  47.956  1.00  0.00    -0.088 Cl
BRANCH   4  10
HETATM   10  O1  UNL     1      26.539   4.129  50.338  1.00  0.00    -0.360 OA
HETATM   11  H4  UNL     1      27.120   4.763  50.855  1.00  0.00     0.217 HD
ENDBRANCH   4  10
ENDBRANCH   2   3
ENDBRANCH   1   2
BRANCH   1  12
HETATM   12  C6  UNL     1      21.956   2.222  51.375  1.00  0.00     0.164 C 
BRANCH  12  13
HETATM   13  C7  UNL     1      21.945   1.164  52.383  1.00  0.00    -0.040 A 
HETATM   14  C8  UNL     1      21.035   1.209  53.444  1.00  0.00     0.011 A 
HETATM   15  C9  UNL     1      21.020   0.210  54.392  1.00  0.00     0.037 A 
HETATM   16  C10 UNL     1      21.880  -0.866  54.354  1.00  0.00     0.065 A 
HETATM   17  C11 UNL     1      22.792  -0.943  53.320  1.00  0.00     0.037 A 
HETATM   18  C12 UNL     1      22.799   0.057  52.379  1.00  0.00     0.011 A 
BRANCH  16  19
HETATM   19  O2  UNL     1      21.887  -1.885  55.295  1.00  0.00    -0.361 OA
HETATM   20  H11 UNL     1      22.703  -2.493  55.289  1.00  0.00     0.217 HD
ENDBRANCH  16  19
ENDBRANCH  12  13
ENDBRANCH   1  12
BRANCH   1  21
HETATM   21  C13 UNL     1      23.969   3.416  52.408  1.00  0.00     0.174 C 
HETATM   22  S1  UNL     1      23.297   4.774  53.010  1.00  0.00    -0.041 SA
BRANCH  21  23
HETATM   23  N2  UNL     1      25.147   2.964  53.041  1.00  0.00    -0.333 N 
HETATM   24  H14 UNL     1      25.564   3.829  53.438  1.00  0.00     0.168 HD
BRANCH  23  25
HETATM   25  C14 UNL     1      25.770   1.743  53.209  1.00  0.00     0.034 A 
HETATM   26  C15 UNL     1      26.057   1.057  54.356  1.00  0.00     0.029 A 
HETATM   27  C16 UNL     1      26.684  -0.166  54.450  1.00  0.00     0.002 A 
HETATM   28  C17 UNL     1      27.033  -0.694  53.228  1.00  0.00     0.000 A 
HETATM   29  C18 UNL     1      26.795  -0.097  52.031  1.00  0.00     0.002 A 
HETATM   30  C19 UNL     1      26.170   1.108  52.025  1.00  0.00     0.029 A 
ENDBRANCH  23  25
ENDBRANCH  21  23
ENDBRANCH   1  21
TORSDOF 9
ENDMDL
MODEL 4
REMARK VINA RESULT:      -8.5      2.808      6.774
REMARK  9 active torsions:
REMARK  status: ('A' for Active; 'I' for Inactive)
REMARK    1  A    between atoms: C3_3  and  O1_4 
REMARK    2  A    between atoms: C4_5  and  C5_6 
REMARK    3  A    between atoms: C5_6  and  N1_7 
REMARK    4  A    between atoms: N1_7  and  C6_8 
REMARK    5  A    between atoms: N1_7  and  C13_16 
REMARK    6  A    between atoms: C6_8  and  C7_9 
REMARK    7  A    between atoms: C10_12  and  O2_13 
REMARK    8  A    between atoms: C13_16  and  N2_18 
REMARK    9  A    between atoms: N2_18  and  C14_19 
ROOT
HETATM    1  N1  UNL     1      24.722   2.130  52.604  1.00  0.00    -0.349 N 
ENDROOT
BRANCH   1   2
HETATM    2  C5  UNL     1      25.317   2.115  53.893  1.00  0.00     0.168 C 
BRANCH   2   3
HETATM    3  C4  UNL     1      26.583   1.384  54.064  1.00  0.00     0.011 A 
HETATM    4  C3  UNL     1      27.886   1.636  53.398  1.00  0.00     0.077 A 
HETATM    5  C2  UNL     1      28.799   0.755  53.740  1.00  0.00    -0.045 A 
HETATM    6  C1  UNL     1      30.216   0.636  53.315  1.00  0.00     0.046 C 
HETATM    7  C21 UNL     1      28.207  -0.195  54.680  1.00  0.00     0.088 A 
HETATM    8  C20 UNL     1      26.810   0.291  54.814  1.00  0.00     0.026 A 
HETATM    9 CL1  UNL     1      25.542  -0.424  55.820  1.00  0.00    -0.088 Cl
BRANCH   4  10
HETATM   10  O1  UNL     1      28.159   2.686  52.497  1.00  0.00    -0.360 OA
HETATM   11  H4  UNL     1      27.483   3.426  52.456  1.00  0.00     0.217 HD
ENDBRANCH   4  10
ENDBRANCH   2   3
ENDBRANCH   1   2
BRANCH   1  12
HETATM   12  C6  UNL     1      24.395   0.720  52.305  1.00  0.00     0.164 C 
BRANCH  12  13
HETATM   13  C7  UNL     1      23.039   0.344  52.700  1.00  0.00    -0.040 A 
HETATM   14  C8  UNL     1      22.826  -0.421  53.851  1.00  0.00     0.011 A 
HETATM   15  C9  UNL     1      21.548  -0.772  54.227  1.00  0.00     0.037 A 
HETATM   16  C10 UNL     1      20.431  -0.401  53.510  1.00  0.00     0.065 A 
HETATM   17  C11 UNL     1      20.605   0.355  52.367  1.00  0.00     0.037 A 
HETATM   18  C12 UNL     1      21.883   0.701  52.001  1.00  0.00     0.011 A 
BRANCH  16  19
HETATM   19  O2  UNL     1      19.135  -0.741  53.865  1.00  0.00    -0.361 OA
HETATM   20  H11 UNL     1      19.020  -1.165  54.783  1.00  0.00     0.217 HD
ENDBRANCH  16  19
ENDBRANCH  12  13
ENDBRANCH   1  12
BRANCH   1  21
HETATM   21  C13 UNL     1      24.401   3.216  51.746  1.00  0.00     0.174 C 
HETATM   22  S1  UNL     1      23.396   4.277  52.469  1.00  0.00    -0.041 SA
BRANCH  21  23
HETATM   23  N2  UNL     1      24.756   3.498  50.409  1.00  0.00    -0.333 N 
HETATM   24  H14 UNL     1      24.238   2.786  49.857  1.00  0.00     0.168 HD
BRANCH  23  25
HETATM   25  C14 UNL     1      25.561   4.427  49.778  1.00  0.00     0.034 A 
HETATM   26  C15 UNL     1      25.342   5.753  49.533  1.00  0.00     0.029 A 
HETATM   27  C16 UNL     1      26.194   6.625  48.893  1.00  0.00     0.002 A 
HETATM   28  C17 UNL     1      27.368   6.036  48.482  1.00  0.00     0.000 A 
HETATM   29  C18 UNL     1      27.686   4.729  48.675  1.00  0.00     0.002 A 
HETATM   30  C19 UNL     1      26.790   3.936  49.316  1.00  0.00     0.029 A 
ENDBRANCH  23  25
ENDBRANCH  21  23
ENDBRANCH   1  21
TORSDOF 9
ENDMDL
MODEL 5
REMARK VINA RESULT:      -8.5      1.822      6.523
REMARK  9 active torsions:
REMARK  status: ('A' for Active; 'I' for Inactive)
REMARK    1  A    between atoms: C3_3  and  O1_4 
REMARK    2  A    between atoms: C4_5  and  C5_6 
REMARK    3  A    between atoms: C5_6  and  N1_7 
REMARK    4  A    between atoms: N1_7  and  C6_8 
REMARK    5  A    between atoms: N1_7  and  C13_16 
REMARK    6  A    between atoms: C6_8  and  C7_9 
REMARK    7  A    between atoms: C10_12  and  O2_13 
REMARK    8  A    between atoms: C13_16  and  N2_18 
REMARK    9  A    between atoms: N2_18  and  C14_19 
ROOT
HETATM    1  N1  UNL     1      23.527   2.584  51.145  1.00  0.00    -0.349 N 
ENDROOT
BRANCH   1   2
HETATM    2  C5  UNL     1      22.724   1.413  51.108  1.00  0.00     0.168 C 
BRANCH   2   3
HETATM    3  C4  UNL     1      22.283   0.834  52.387  1.00  0.00     0.011 A 
HETATM    4  C3  UNL     1      22.934  -0.236  53.183  1.00  0.00     0.077 A 
HETATM    5  C2  UNL     1      22.240  -0.554  54.253  1.00  0.00    -0.045 A 
HETATM    6  C1  UNL     1      22.521  -1.559  55.309  1.00  0.00     0.046 C 
HETATM    7  C21 UNL     1      21.036   0.274  54.295  1.00  0.00     0.088 A 
HETATM    8  C20 UNL     1      21.161   1.111  53.074  1.00  0.00     0.026 A 
HETATM    9 CL1  UNL     1      20.017   2.345  52.526  1.00  0.00    -0.088 Cl
BRANCH   4  10
HETATM   10  O1  UNL     1      24.155  -0.869  52.868  1.00  0.00    -0.360 OA
HETATM   11  H4  UNL     1      24.091  -1.738  52.370  1.00  0.00     0.217 HD
ENDBRANCH   4  10
ENDBRANCH   2   3
ENDBRANCH   1   2
BRANCH   1  12
HETATM   12  C6  UNL     1      23.591   3.061  49.748  1.00  0.00     0.164 C 
BRANCH  12  13
HETATM   13  C7  UNL     1      24.759   3.896  49.474  1.00  0.00    -0.040 A 
HETATM   14  C8  UNL     1      26.040   3.334  49.454  1.00  0.00     0.011 A 
HETATM   15  C9  UNL     1      27.141   4.118  49.192  1.00  0.00     0.037 A 
HETATM   16  C10 UNL     1      27.051   5.470  48.940  1.00  0.00     0.065 A 
HETATM   17  C11 UNL     1      25.801   6.059  48.951  1.00  0.00     0.037 A 
HETATM   18  C12 UNL     1      24.709   5.268  49.213  1.00  0.00     0.011 A 
BRANCH  16  19
HETATM   19  O2  UNL     1      28.142   6.282  48.673  1.00  0.00    -0.361 OA
HETATM   20  H11 UNL     1      28.123   7.208  49.097  1.00  0.00     0.217 HD
ENDBRANCH  16  19
ENDBRANCH  12  13
ENDBRANCH   1  12
BRANCH   1  21
HETATM   21  C13 UNL     1      24.119   3.265  52.242  1.00  0.00     0.174 C 
HETATM   22  S1  UNL     1      23.272   4.597  52.651  1.00  0.00    -0.041 SA
BRANCH  21  23
HETATM   23  N2  UNL     1      25.296   3.017  52.981  1.00  0.00    -0.333 N 
HETATM   24  H14 UNL     1      25.506   3.931  53.429  1.00  0.00     0.168 HD
BRANCH  23  25
HETATM   25  C14 UNL     1      26.115   1.925  53.193  1.00  0.00     0.034 A 
HETATM   26  C15 UNL     1      26.965   1.288  52.334  1.00  0.00     0.029 A 
HETATM   27  C16 UNL     1      27.757   0.197  52.616  1.00  0.00     0.002 A 
HETATM   28  C17 UNL     1      27.630  -0.249  53.911  1.00  0.00     0.000 A 
HETATM   29  C18 UNL     1      26.816   0.311  54.845  1.00  0.00     0.002 A 
HETATM   30  C19 UNL     1      26.068   1.386  54.487  1.00  0.00     0.029 A 
ENDBRANCH  23  25
ENDBRANCH  21  23
ENDBRANCH   1  21
TORSDOF 9
ENDMDL
MODEL 6
REMARK VINA RESULT:      -8.4      2.568      6.551
REMARK  9 active torsions:
REMARK  status: ('A' for Active; 'I' for Inactive)
REMARK    1  A    between atoms: C3_3  and  O1_4 
REMARK    2  A    between atoms: C4_5  and  C5_6 
REMARK    3  A    between atoms: C5_6  and  N1_7 
REMARK    4  A    between atoms: N1_7  and  C6_8 
REMARK    5  A    between atoms: N1_7  and  C13_16 
REMARK    6  A    between atoms: C6_8  and  C7_9 
REMARK    7  A    between atoms: C10_12  and  O2_13 
REMARK    8  A    between atoms: C13_16  and  N2_18 
REMARK    9  A    between atoms: N2_18  and  C14_19 
ROOT
HETATM    1  N1  UNL     1      24.103   2.559  51.940  1.00  0.00    -0.349 N 
ENDROOT
BRANCH   1   2
HETATM    2  C5  UNL     1      23.515   2.113  53.154  1.00  0.00     0.168 C 
BRANCH   2   3
HETATM    3  C4  UNL     1      22.443   1.107  53.075  1.00  0.00     0.011 A 
HETATM    4  C3  UNL     1      21.104   1.240  52.447  1.00  0.00     0.077 A 
HETATM    5  C2  UNL     1      20.369   0.163  52.608  1.00  0.00    -0.045 A 
HETATM    6  C1  UNL     1      18.988  -0.128  52.148  1.00  0.00     0.046 C 
HETATM    7  C21 UNL     1      21.138  -0.822  53.368  1.00  0.00     0.088 A 
HETATM    8  C20 UNL     1      22.427  -0.125  53.612  1.00  0.00     0.026 A 
HETATM    9 CL1  UNL     1      23.820  -0.773  54.491  1.00  0.00    -0.088 Cl
BRANCH   4  10
HETATM   10  O1  UNL     1      20.632   2.371  51.749  1.00  0.00    -0.360 OA
HETATM   11  H4  UNL     1      20.004   2.194  50.986  1.00  0.00     0.217 HD
ENDBRANCH   4  10
ENDBRANCH   2   3
ENDBRANCH   1   2
BRANCH   1  12
HETATM   12  C6  UNL     1      24.897   1.415  51.444  1.00  0.00     0.164 C 
BRANCH  12  13
HETATM   13  C7  UNL     1      26.190   1.274  52.112  1.00  0.00    -0.040 A 
HETATM   14  C8  UNL     1      26.685   0.005  52.429  1.00  0.00     0.011 A 
HETATM   15  C9  UNL     1      27.906  -0.130  53.054  1.00  0.00     0.037 A 
HETATM   16  C10 UNL     1      28.691   0.950  53.397  1.00  0.00     0.065 A 
HETATM   17  C11 UNL     1      28.232   2.218  53.099  1.00  0.00     0.037 A 
HETATM   18  C12 UNL     1      27.014   2.342  52.474  1.00  0.00     0.011 A 
BRANCH  16  19
HETATM   19  O2  UNL     1      29.921   0.843  54.027  1.00  0.00    -0.361 OA
HETATM   20  H11 UNL     1      30.419  -0.034  53.887  1.00  0.00     0.217 HD
ENDBRANCH  16  19
ENDBRANCH  12  13
ENDBRANCH   1  12
BRANCH   1  21
HETATM   21  C13 UNL     1      23.960   3.786  51.240  1.00  0.00     0.174 C 
HETATM   22  S1  UNL     1      23.127   4.883  52.112  1.00  0.00    -0.041 SA
BRANCH  21  23
HETATM   23  N2  UNL     1      24.364   4.187  49.947  1.00  0.00    -0.333 N 
HETATM   24  H14 UNL     1      23.535   3.986  49.354  1.00  0.00     0.168 HD
BRANCH  23  25
HETATM   25  C14 UNL     1      25.509   4.728  49.396  1.00  0.00     0.034 A 
HETATM   26  C15 UNL     1      26.752   4.180  49.246  1.00  0.00     0.029 A 
HETATM   27  C16 UNL     1      27.855   4.782  48.683  1.00  0.00     0.002 A 
HETATM   28  C17 UNL     1      27.614   6.066  48.250  1.00  0.00     0.000 A 
HETATM   29  C18 UNL     1      26.418   6.703  48.350  1.00  0.00     0.002 A 
HETATM   30  C19 UNL     1      25.379   6.039  48.917  1.00  0.00     0.029 A 
ENDBRANCH  23  25
ENDBRANCH  21  23
ENDBRANCH   1  21
TORSDOF 9
ENDMDL
MODEL 7
REMARK VINA RESULT:      -8.3      1.580      2.155
REMARK  9 active torsions:
REMARK  status: ('A' for Active; 'I' for Inactive)
REMARK    1  A    between atoms: C3_3  and  O1_4 
REMARK    2  A    between atoms: C4_5  and  C5_6 
REMARK    3  A    between atoms: C5_6  and  N1_7 
REMARK    4  A    between atoms: N1_7  and  C6_8 
REMARK    5  A    between atoms: N1_7  and  C13_16 
REMARK    6  A    between atoms: C6_8  and  C7_9 
REMARK    7  A    between atoms: C10_12  and  O2_13 
REMARK    8  A    between atoms: C13_16  and  N2_18 
REMARK    9  A    between atoms: N2_18  and  C14_19 
ROOT
HETATM    1  N1  UNL     1      23.951   3.181  50.772  1.00  0.00    -0.349 N 
ENDROOT
BRANCH   1   2
HETATM    2  C5  UNL     1      24.381   3.350  49.429  1.00  0.00     0.168 C 
BRANCH   2   3
HETATM    3  C4  UNL     1      24.948   4.653  49.041  1.00  0.00     0.011 A 
HETATM    4  C3  UNL     1      26.373   5.071  49.045  1.00  0.00     0.077 A 
HETATM    5  C2  UNL     1      26.524   6.327  48.692  1.00  0.00    -0.045 A 
HETATM    6  C1  UNL     1      27.759   7.141  48.564  1.00  0.00     0.046 C 
HETATM    7  C21 UNL     1      25.208   6.897  48.408  1.00  0.00     0.088 A 
HETATM    8  C20 UNL     1      24.287   5.759  48.660  1.00  0.00     0.026 A 
HETATM    9 CL1  UNL     1      22.525   5.779  48.499  1.00  0.00    -0.088 Cl
BRANCH   4  10
HETATM   10  O1  UNL     1      27.470   4.251  49.383  1.00  0.00    -0.360 OA
HETATM   11  H4  UNL     1      28.381   4.644  49.237  1.00  0.00     0.217 HD
ENDBRANCH   4  10
ENDBRANCH   2   3
ENDBRANCH   1   2
BRANCH   1  12
HETATM   12  C6  UNL     1      25.131   3.494  51.605  1.00  0.00     0.164 C 
BRANCH  12  13
HETATM   13  C7  UNL     1      25.716   2.317  52.245  1.00  0.00    -0.040 A 
HETATM   14  C8  UNL     1      25.772   2.226  53.640  1.00  0.00     0.011 A 
HETATM   15  C9  UNL     1      26.319   1.116  54.244  1.00  0.00     0.037 A 
HETATM   16  C10 UNL     1      26.831   0.055  53.530  1.00  0.00     0.065 A 
HETATM   17  C11 UNL     1      26.792   0.110  52.150  1.00  0.00     0.037 A 
HETATM   18  C12 UNL     1      26.244   1.221  51.556  1.00  0.00     0.011 A 
BRANCH  16  19
HETATM   19  O2  UNL     1      27.387  -1.074  54.112  1.00  0.00    -0.361 OA
HETATM   20  H11 UNL     1      26.941  -1.401  54.967  1.00  0.00     0.217 HD
ENDBRANCH  16  19
ENDBRANCH  12  13
ENDBRANCH   1  12
BRANCH   1  21
HETATM   21  C13 UNL     1      22.672   2.860  51.299  1.00  0.00     0.174 C 
HETATM   22  S1  UNL     1      21.805   4.200  51.636  1.00  0.00    -0.041 SA
BRANCH  21  23
HETATM   23  N2  UNL     1      22.064   1.624  51.611  1.00  0.00    -0.333 N 
HETATM   24  H14 UNL     1      21.493   1.407  50.770  1.00  0.00     0.168 HD
BRANCH  23  25
HETATM   25  C14 UNL     1      22.085   0.760  52.688  1.00  0.00     0.034 A 
HETATM   26  C15 UNL     1      23.017  -0.176  53.043  1.00  0.00     0.029 A 
HETATM   27  C16 UNL     1      22.972  -1.009  54.138  1.00  0.00     0.002 A 
HETATM   28  C17 UNL     1      21.848  -0.832  54.912  1.00  0.00     0.000 A 
HETATM   29  C18 UNL     1      20.864   0.068  54.651  1.00  0.00     0.002 A 
HETATM   30  C19 UNL     1      20.984   0.853  53.551  1.00  0.00     0.029 A 
ENDBRANCH  23  25
ENDBRANCH  21  23
ENDBRANCH   1  21
TORSDOF 9
ENDMDL
MODEL 8
REMARK VINA RESULT:      -8.3      2.967      6.497
REMARK  9 active torsions:
REMARK  status: ('A' for Active; 'I' for Inactive)
REMARK    1  A    between atoms: C3_3  and  O1_4 
REMARK    2  A    between atoms: C4_5  and  C5_6 
REMARK    3  A    between atoms: C5_6  and  N1_7 
REMARK    4  A    between atoms: N1_7  and  C6_8 
REMARK    5  A    between atoms: N1_7  and  C13_16 
REMARK    6  A    between atoms: C6_8  and  C7_9 
REMARK    7  A    between atoms: C10_12  and  O2_13 
REMARK    8  A    between atoms: C13_16  and  N2_18 
REMARK    9  A    between atoms: N2_18  and  C14_19 
ROOT
HETATM    1  N1  UNL     1      22.772   2.666  50.529  1.00  0.00    -0.349 N 
ENDROOT
BRANCH   1   2
HETATM    2  C5  UNL     1      22.276   1.468  49.947  1.00  0.00     0.168 C 
BRANCH   2   3
HETATM    3  C4  UNL     1      20.919   1.031  50.312  1.00  0.00     0.011 A 
HETATM    4  C3  UNL     1      19.639   1.342  49.626  1.00  0.00     0.077 A 
HETATM    5  C2  UNL     1      18.602   0.835  50.253  1.00  0.00    -0.045 A 
HETATM    6  C1  UNL     1      17.157   0.904  49.918  1.00  0.00     0.046 C 
HETATM    7  C21 UNL     1      19.073   0.121  51.439  1.00  0.00     0.088 A 
HETATM    8  C20 UNL     1      20.545   0.308  51.382  1.00  0.00     0.026 A 
HETATM    9 CL1  UNL     1      21.728  -0.315  52.541  1.00  0.00    -0.088 Cl
BRANCH   4  10
HETATM   10  O1  UNL     1      19.504   2.091  48.438  1.00  0.00    -0.360 OA
HETATM   11  H4  UNL     1      18.881   2.876  48.476  1.00  0.00     0.217 HD
ENDBRANCH   4  10
ENDBRANCH   2   3
ENDBRANCH   1   2
BRANCH   1  12
HETATM   12  C6  UNL     1      23.029   3.577  49.394  1.00  0.00     0.164 C 
BRANCH  12  13
HETATM   13  C7  UNL     1      24.425   3.998  49.294  1.00  0.00    -0.040 A 
HETATM   14  C8  UNL     1      24.742   5.315  48.944  1.00  0.00     0.011 A 
HETATM   15  C9  UNL     1      26.057   5.714  48.853  1.00  0.00     0.037 A 
HETATM   16  C10 UNL     1      27.113   4.862  49.095  1.00  0.00     0.065 A 
HETATM   17  C11 UNL     1      26.837   3.554  49.443  1.00  0.00     0.037 A 
HETATM   18  C12 UNL     1      25.522   3.165  49.532  1.00  0.00     0.011 A 
BRANCH  16  19
HETATM   19  O2  UNL     1      28.445   5.237  49.011  1.00  0.00    -0.361 OA
HETATM   20  H11 UNL     1      29.116   4.480  48.893  1.00  0.00     0.217 HD
ENDBRANCH  16  19
ENDBRANCH  12  13
ENDBRANCH   1  12
BRANCH   1  21
HETATM   21  C13 UNL     1      22.946   3.029  51.891  1.00  0.00     0.174 C 
HETATM   22  S1  UNL     1      22.044   4.329  52.287  1.00  0.00    -0.041 SA
BRANCH  21  23
HETATM   23  N2  UNL     1      23.771   2.503  52.909  1.00  0.00    -0.333 N 
HETATM   24  H14 UNL     1      23.200   2.607  53.771  1.00  0.00     0.168 HD
BRANCH  23  25
HETATM   25  C14 UNL     1      25.034   1.946  52.965  1.00  0.00     0.034 A 
HETATM   26  C15 UNL     1      26.155   2.382  53.613  1.00  0.00     0.029 A 
HETATM   27  C16 UNL     1      27.390   1.772  53.624  1.00  0.00     0.002 A 
HETATM   28  C17 UNL     1      27.431   0.611  52.887  1.00  0.00     0.000 A 
HETATM   29  C18 UNL     1      26.376   0.090  52.207  1.00  0.00     0.002 A 
HETATM   30  C19 UNL     1      25.192   0.752  52.247  1.00  0.00     0.029 A 
ENDBRANCH  23  25
ENDBRANCH  21  23
ENDBRANCH   1  21
TORSDOF 9
ENDMDL
MODEL 9
REMARK VINA RESULT:      -8.2      2.420      6.469
REMARK  9 active torsions:
REMARK  status: ('A' for Active; 'I' for Inactive)
REMARK    1  A    between atoms: C3_3  and  O1_4 
REMARK    2  A    between atoms: C4_5  and  C5_6 
REMARK    3  A    between atoms: C5_6  and  N1_7 
REMARK    4  A    between atoms: N1_7  and  C6_8 
REMARK    5  A    between atoms: N1_7  and  C13_16 
REMARK    6  A    between atoms: C6_8  and  C7_9 
REMARK    7  A    between atoms: C10_12  and  O2_13 
REMARK    8  A    between atoms: C13_16  and  N2_18 
REMARK    9  A    between atoms: N2_18  and  C14_19 
ROOT
HETATM    1  N1  UNL     1      22.846   2.745  50.609  1.00  0.00    -0.349 N 
ENDROOT
BRANCH   1   2
HETATM    2  C5  UNL     1      22.235   1.591  50.049  1.00  0.00     0.168 C 
BRANCH   2   3
HETATM    3  C4  UNL     1      20.972   1.119  50.641  1.00  0.00     0.011 A 
HETATM    4  C3  UNL     1      20.783   0.279  51.850  1.00  0.00     0.077 A 
HETATM    5  C2  UNL     1      19.518  -0.005  52.066  1.00  0.00    -0.045 A 
HETATM    6  C1  UNL     1      18.892  -0.807  53.147  1.00  0.00     0.046 C 
HETATM    7  C21 UNL     1      18.711   0.617  51.018  1.00  0.00     0.088 A 
HETATM    8  C20 UNL     1      19.725   1.299  50.173  1.00  0.00     0.026 A 
HETATM    9 CL1  UNL     1      19.407   2.252  48.716  1.00  0.00    -0.088 Cl
BRANCH   4  10
HETATM   10  O1  UNL     1      21.810  -0.185  52.698  1.00  0.00    -0.360 OA
HETATM   11  H4  UNL     1      22.647  -0.507  52.249  1.00  0.00     0.217 HD
ENDBRANCH   4  10
ENDBRANCH   2   3
ENDBRANCH   1   2
BRANCH   1  12
HETATM   12  C6  UNL     1      23.091   3.653  49.470  1.00  0.00     0.164 C 
BRANCH  12  13
HETATM   13  C7  UNL     1      24.489   4.058  49.342  1.00  0.00    -0.040 A 
HETATM   14  C8  UNL     1      25.515   3.135  49.567  1.00  0.00     0.011 A 
HETATM   15  C9  UNL     1      26.834   3.514  49.443  1.00  0.00     0.037 A 
HETATM   16  C10 UNL     1      27.212   4.795  49.100  1.00  0.00     0.065 A 
HETATM   17  C11 UNL     1      26.224   5.733  48.871  1.00  0.00     0.037 A 
HETATM   18  C12 UNL     1      24.912   5.345  48.996  1.00  0.00     0.011 A 
BRANCH  16  19
HETATM   19  O2  UNL     1      28.530   5.204  48.969  1.00  0.00    -0.361 OA
HETATM   20  H11 UNL     1      28.768   6.090  49.408  1.00  0.00     0.217 HD
ENDBRANCH  16  19
ENDBRANCH  12  13
ENDBRANCH   1  12
BRANCH   1  21
HETATM   21  C13 UNL     1      23.130   3.076  51.961  1.00  0.00     0.174 C 
HETATM   22  S1  UNL     1      22.488   4.516  52.376  1.00  0.00    -0.041 SA
BRANCH  21  23
HETATM   23  N2  UNL     1      23.885   2.415  52.955  1.00  0.00    -0.333 N 
HETATM   24  H14 UNL     1      23.267   2.432  53.790  1.00  0.00     0.168 HD
BRANCH  23  25
HETATM   25  C14 UNL     1      25.132   1.825  53.015  1.00  0.00     0.034 A 
HETATM   26  C15 UNL     1      26.243   2.194  53.721  1.00  0.00     0.029 A 
HETATM   27  C16 UNL     1      27.462   1.553  53.733  1.00  0.00     0.002 A 
HETATM   28  C17 UNL     1      27.499   0.437  52.930  1.00  0.00     0.000 A 
HETATM   29  C18 UNL     1      26.455  -0.017  52.189  1.00  0.00     0.002 A 
HETATM   30  C19 UNL     1      25.285   0.671  52.233  1.00  0.00     0.029 A 
ENDBRANCH  23  25
ENDBRANCH  21  23
ENDBRANCH   1  21
TORSDOF 9
ENDMDL
