MODEL 1
REMARK VINA RESULT:      -8.5      0.000      0.000
REMARK  6 active torsions:
REMARK  status: ('A' for Active; 'I' for Inactive)
REMARK    1  A    between atoms: C7_7  and  N1_8 
REMARK    2  A    between atoms: N1_8  and  C8_9 
REMARK    3  A    between atoms: C11_15  and  C12_16 
REMARK    4  A    between atoms: C12_16  and  C13_17 
REMARK    5  A    between atoms: C12_16  and  C16_20 
REMARK    6  A    between atoms: C16_20  and  C17_21 
ROOT
HETATM    1  C1  UNL     1      18.993   0.600  51.015  1.00  0.00     0.018 C 
HETATM    2  C2  UNL     1      19.860   0.301  51.797  1.00  0.00    -0.078 C 
HETATM    3  C3  UNL     1      20.899  -0.068  52.714  1.00  0.00     0.019 A 
HETATM    4  C4  UNL     1      20.553  -0.219  54.056  1.00  0.00     0.021 A 
HETATM    5  C5  UNL     1      21.495  -0.582  54.998  1.00  0.00     0.004 A 
HETATM    6  C6  UNL     1      22.808  -0.810  54.642  1.00  0.00     0.029 A 
HETATM    7  C7  UNL     1      23.142  -0.660  53.313  1.00  0.00     0.035 A 
HETATM    8  C19 UNL     1      22.220  -0.295  52.344  1.00  0.00     0.050 A 
ENDROOT
BRANCH   7   9
HETATM    9  N1  UNL     1      24.453  -0.879  52.799  1.00  0.00    -0.339 N 
HETATM   10  H5  UNL     1      24.696  -1.559  52.052  1.00  0.00     0.167 HD
BRANCH   9  11
HETATM   11  C8  UNL     1      25.463  -0.078  53.388  1.00  0.00     0.165 A 
HETATM   12  N2  UNL     1      26.291  -0.564  54.251  1.00  0.00    -0.219 NA
HETATM   13  C9  UNL     1      27.288   0.281  54.811  1.00  0.00     0.265 A 
HETATM   14  N3  UNL     1      27.466   1.552  54.535  1.00  0.00    -0.121 NA
HETATM   15  O1  UNL     1      26.625   2.152  53.622  1.00  0.00    -0.209 OA
HETATM   16  C10 UNL     1      25.642   1.354  53.057  1.00  0.00     0.144 A 
HETATM   17  C11 UNL     1      24.813   1.903  52.175  1.00  0.00     0.025 C 
BRANCH  17  18
HETATM   18  C12 UNL     1      24.802   3.339  51.684  1.00  0.00     0.038 C 
BRANCH  18  19
HETATM   19  C13 UNL     1      23.640   4.070  52.161  1.00  0.00    -0.022 C 
HETATM   20  C14 UNL     1      22.363   4.433  52.168  1.00  0.00    -0.034 C 
HETATM   21  C15 UNL     1      21.429   3.830  51.147  1.00  0.00     0.036 C 
ENDBRANCH  18  19
BRANCH  18  22
HETATM   22  C16 UNL     1      24.927   3.225  50.180  1.00  0.00     0.070 C 
BRANCH  22  23
HETATM   23  C17 UNL     1      25.940   4.117  49.619  1.00  0.00     0.049 C 
HETATM   24  N4  UNL     1      27.188   3.969  49.293  1.00  0.00    -0.172 NA
HETATM   25  N5  UNL     1      27.716   5.161  48.787  1.00  0.00    -0.242 N 
HETATM   26  N6  UNL     1      26.953   6.132  49.488  1.00  0.00    -0.218 NA
HETATM   27  H16 UNL     1      28.441   5.472  48.107  1.00  0.00     0.204 HD
HETATM   28  C18 UNL     1      25.614   5.550  49.294  1.00  0.00     0.168 C 
HETATM   29  H17 UNL     1      27.186   5.933  50.508  1.00  0.00     0.148 HD
ENDBRANCH  22  23
ENDBRANCH  18  22
ENDBRANCH  17  18
ENDBRANCH   9  11
ENDBRANCH   7   9
TORSDOF 6
ENDMDL
MODEL 2
REMARK VINA RESULT:      -8.1      2.437      6.091
REMARK  6 active torsions:
REMARK  status: ('A' for Active; 'I' for Inactive)
REMARK    1  A    between atoms: C7_7  and  N1_8 
REMARK    2  A    between atoms: N1_8  and  C8_9 
REMARK    3  A    between atoms: C11_15  and  C12_16 
REMARK    4  A    between atoms: C12_16  and  C13_17 
REMARK    5  A    between atoms: C12_16  and  C16_20 
REMARK    6  A    between atoms: C16_20  and  C17_21 
ROOT
HETATM    1  C1  UNL     1      23.824   8.189  49.637  1.00  0.00     0.018 C 
HETATM    2  C2  UNL     1      24.637   7.316  49.458  1.00  0.00    -0.078 C 
HETATM    3  C3  UNL     1      25.600   6.271  49.265  1.00  0.00     0.019 A 
HETATM    4  C4  UNL     1      26.809   6.611  48.659  1.00  0.00     0.021 A 
HETATM    5  C5  UNL     1      27.791   5.663  48.448  1.00  0.00     0.004 A 
HETATM    6  C6  UNL     1      27.609   4.351  48.831  1.00  0.00     0.029 A 
HETATM    7  C7  UNL     1      26.411   4.023  49.429  1.00  0.00     0.035 A 
HETATM    8  C19 UNL     1      25.406   4.951  49.654  1.00  0.00     0.050 A 
ENDROOT
BRANCH   7   9
HETATM    9  N1  UNL     1      26.092   2.713  49.890  1.00  0.00    -0.339 N 
HETATM   10  H5  UNL     1      25.727   1.943  49.297  1.00  0.00     0.167 HD
BRANCH   9  11
HETATM   11  C8  UNL     1      26.311   2.502  51.275  1.00  0.00     0.165 A 
HETATM   12  N2  UNL     1      27.486   2.621  51.797  1.00  0.00    -0.219 NA
HETATM   13  C9  UNL     1      27.652   2.401  53.191  1.00  0.00     0.265 A 
HETATM   14  N3  UNL     1      26.704   2.077  54.040  1.00  0.00    -0.121 NA
HETATM   15  O1  UNL     1      25.419   1.931  53.567  1.00  0.00    -0.209 OA
HETATM   16  C10 UNL     1      25.223   2.139  52.210  1.00  0.00     0.144 A 
HETATM   17  C11 UNL     1      23.993   2.003  51.721  1.00  0.00     0.025 C 
BRANCH  17  18
HETATM   18  C12 UNL     1      22.731   1.639  52.480  1.00  0.00     0.038 C 
BRANCH  18  19
HETATM   19  C13 UNL     1      22.533   0.201  52.551  1.00  0.00    -0.022 C 
HETATM   20  C14 UNL     1      22.412  -0.971  53.162  1.00  0.00    -0.034 C 
HETATM   21  C15 UNL     1      22.518  -1.022  54.668  1.00  0.00     0.036 C 
ENDBRANCH  18  19
BRANCH  18  22
HETATM   22  C16 UNL     1      21.634   2.413  51.782  1.00  0.00     0.070 C 
BRANCH  22  23
HETATM   23  C17 UNL     1      21.896   3.850  51.721  1.00  0.00     0.049 C 
HETATM   24  N4  UNL     1      22.260   4.736  52.598  1.00  0.00    -0.172 NA
HETATM   25  N5  UNL     1      22.375   6.000  52.012  1.00  0.00    -0.242 N 
HETATM   26  N6  UNL     1      21.402   5.926  50.980  1.00  0.00    -0.218 NA
HETATM   27  H16 UNL     1      22.928   6.874  52.131  1.00  0.00     0.204 HD
HETATM   28  C18 UNL     1      21.758   4.608  50.428  1.00  0.00     0.168 C 
HETATM   29  H17 UNL     1      20.495   5.756  51.513  1.00  0.00     0.148 HD
ENDBRANCH  22  23
ENDBRANCH  18  22
ENDBRANCH  17  18
ENDBRANCH   9  11
ENDBRANCH   7   9
TORSDOF 6
ENDMDL
MODEL 3
REMARK VINA RESULT:      -8.1      2.571      7.204
REMARK  6 active torsions:
REMARK  status: ('A' for Active; 'I' for Inactive)
REMARK    1  A    between atoms: C7_7  and  N1_8 
REMARK    2  A    between atoms: N1_8  and  C8_9 
REMARK    3  A    between atoms: C11_15  and  C12_16 
REMARK    4  A    between atoms: C12_16  and  C13_17 
REMARK    5  A    between atoms: C12_16  and  C16_20 
REMARK    6  A    between atoms: C16_20  and  C17_21 
ROOT
HETATM    1  C1  UNL     1      26.394   8.687  47.482  1.00  0.00     0.018 C 
HETATM    2  C2  UNL     1      26.241   7.602  47.985  1.00  0.00    -0.078 C 
HETATM    3  C3  UNL     1      26.050   6.321  48.600  1.00  0.00     0.019 A 
HETATM    4  C4  UNL     1      27.123   5.430  48.585  1.00  0.00     0.021 A 
HETATM    5  C5  UNL     1      27.020   4.181  49.166  1.00  0.00     0.004 A 
HETATM    6  C6  UNL     1      25.854   3.775  49.781  1.00  0.00     0.029 A 
HETATM    7  C7  UNL     1      24.798   4.661  49.792  1.00  0.00     0.035 A 
HETATM    8  C19 UNL     1      24.870   5.921  49.217  1.00  0.00     0.050 A 
ENDROOT
BRANCH   7   9
HETATM    9  N1  UNL     1      23.542   4.385  50.405  1.00  0.00    -0.339 N 
HETATM   10  H5  UNL     1      23.117   4.940  51.173  1.00  0.00     0.167 HD
BRANCH   9  11
HETATM   11  C8  UNL     1      22.863   3.254  49.884  1.00  0.00     0.165 A 
HETATM   12  N2  UNL     1      22.286   3.288  48.729  1.00  0.00    -0.219 NA
HETATM   13  C9  UNL     1      21.621   2.127  48.251  1.00  0.00     0.265 A 
HETATM   14  N3  UNL     1      21.525   0.978  48.880  1.00  0.00    -0.121 NA
HETATM   15  O1  UNL     1      22.114   0.854  50.119  1.00  0.00    -0.209 OA
HETATM   16  C10 UNL     1      22.772   1.970  50.614  1.00  0.00     0.144 A 
HETATM   17  C11 UNL     1      23.348   1.885  51.810  1.00  0.00     0.025 C 
BRANCH  17  18
HETATM   18  C12 UNL     1      23.385   0.683  52.735  1.00  0.00     0.038 C 
BRANCH  18  19
HETATM   19  C13 UNL     1      22.155   0.544  53.498  1.00  0.00    -0.022 C 
HETATM   20  C14 UNL     1      21.250  -0.106  54.218  1.00  0.00    -0.034 C 
HETATM   21  C15 UNL     1      21.469  -1.571  54.512  1.00  0.00     0.036 C 
ENDBRANCH  18  19
BRANCH  18  22
HETATM   22  C16 UNL     1      24.641   0.878  53.557  1.00  0.00     0.070 C 
BRANCH  22  23
HETATM   23  C17 UNL     1      25.680  -0.107  53.258  1.00  0.00     0.049 C 
HETATM   24  N4  UNL     1      25.862  -1.349  53.589  1.00  0.00    -0.172 NA
HETATM   25  N5  UNL     1      27.041  -1.847  53.026  1.00  0.00    -0.242 N 
HETATM   26  N6  UNL     1      27.846  -0.678  52.967  1.00  0.00    -0.218 NA
HETATM   27  H16 UNL     1      27.427  -2.751  52.682  1.00  0.00     0.204 HD
HETATM   28  C18 UNL     1      26.856   0.248  52.389  1.00  0.00     0.168 C 
HETATM   29  H17 UNL     1      27.923  -0.385  53.988  1.00  0.00     0.148 HD
ENDBRANCH  22  23
ENDBRANCH  18  22
ENDBRANCH  17  18
ENDBRANCH   9  11
ENDBRANCH   7   9
TORSDOF 6
ENDMDL
MODEL 4
REMARK VINA RESULT:      -7.9      2.825      4.992
REMARK  6 active torsions:
REMARK  status: ('A' for Active; 'I' for Inactive)
REMARK    1  A    between atoms: C7_7  and  N1_8 
REMARK    2  A    between atoms: N1_8  and  C8_9 
REMARK    3  A    between atoms: C11_15  and  C12_16 
REMARK    4  A    between atoms: C12_16  and  C13_17 
REMARK    5  A    between atoms: C12_16  and  C16_20 
REMARK    6  A    between atoms: C16_20  and  C17_21 
ROOT
HETATM    1  C1  UNL     1      27.156  -0.649  53.177  1.00  0.00     0.018 C 
HETATM    2  C2  UNL     1      25.978  -0.441  53.325  1.00  0.00    -0.078 C 
HETATM    3  C3  UNL     1      24.581  -0.172  53.503  1.00  0.00     0.019 A 
HETATM    4  C4  UNL     1      23.854  -1.041  54.317  1.00  0.00     0.021 A 
HETATM    5  C5  UNL     1      22.507  -0.843  54.546  1.00  0.00     0.004 A 
HETATM    6  C6  UNL     1      21.837   0.221  53.980  1.00  0.00     0.029 A 
HETATM    7  C7  UNL     1      22.561   1.076  53.177  1.00  0.00     0.035 A 
HETATM    8  C19 UNL     1      23.914   0.904  52.928  1.00  0.00     0.050 A 
ENDROOT
BRANCH   7   9
HETATM    9  N1  UNL     1      22.006   2.224  52.543  1.00  0.00    -0.339 N 
HETATM   10  H5  UNL     1      21.932   3.167  52.973  1.00  0.00     0.167 HD
BRANCH   9  11
HETATM   11  C8  UNL     1      21.536   2.004  51.224  1.00  0.00     0.165 A 
HETATM   12  N2  UNL     1      20.430   1.376  50.998  1.00  0.00    -0.219 NA
HETATM   13  C9  UNL     1      20.002   1.183  49.656  1.00  0.00     0.265 A 
HETATM   14  N3  UNL     1      20.633   1.590  48.579  1.00  0.00    -0.121 NA
HETATM   15  O1  UNL     1      21.822   2.270  48.729  1.00  0.00    -0.209 OA
HETATM   16  C10 UNL     1      22.267   2.475  50.026  1.00  0.00     0.144 A 
HETATM   17  C11 UNL     1      23.413   3.126  50.205  1.00  0.00     0.025 C 
BRANCH  17  18
HETATM   18  C12 UNL     1      24.328   3.697  49.139  1.00  0.00     0.038 C 
BRANCH  18  19
HETATM   19  C13 UNL     1      25.731   3.566  49.497  1.00  0.00    -0.022 C 
HETATM   20  C14 UNL     1      27.020   3.880  49.460  1.00  0.00    -0.034 C 
HETATM   21  C15 UNL     1      27.465   5.022  48.576  1.00  0.00     0.036 C 
ENDBRANCH  18  19
BRANCH  18  22
HETATM   22  C16 UNL     1      23.838   5.115  48.941  1.00  0.00     0.070 C 
BRANCH  22  23
HETATM   23  C17 UNL     1      24.063   5.968  50.107  1.00  0.00     0.049 C 
HETATM   24  N4  UNL     1      24.979   6.832  50.426  1.00  0.00    -0.172 NA
HETATM   25  N5  UNL     1      24.723   7.387  51.684  1.00  0.00    -0.242 N 
HETATM   26  N6  UNL     1      24.057   6.316  52.339  1.00  0.00    -0.218 NA
HETATM   27  H16 UNL     1      24.882   8.280  52.195  1.00  0.00     0.204 HD
HETATM   28  C18 UNL     1      23.109   5.954  51.271  1.00  0.00     0.168 C 
HETATM   29  H17 UNL     1      24.783   5.536  52.328  1.00  0.00     0.148 HD
ENDBRANCH  22  23
ENDBRANCH  18  22
ENDBRANCH  17  18
ENDBRANCH   9  11
ENDBRANCH   7   9
TORSDOF 6
ENDMDL
MODEL 5
REMARK VINA RESULT:      -7.9      2.582      5.308
REMARK  6 active torsions:
REMARK  status: ('A' for Active; 'I' for Inactive)
REMARK    1  A    between atoms: C7_7  and  N1_8 
REMARK    2  A    between atoms: N1_8  and  C8_9 
REMARK    3  A    between atoms: C11_15  and  C12_16 
REMARK    4  A    between atoms: C12_16  and  C13_17 
REMARK    5  A    between atoms: C12_16  and  C16_20 
REMARK    6  A    between atoms: C16_20  and  C17_21 
ROOT
HETATM    1  C1  UNL     1      22.788  -1.037  53.496  1.00  0.00     0.018 C 
HETATM    2  C2  UNL     1      22.203  -0.454  52.618  1.00  0.00    -0.078 C 
HETATM    3  C3  UNL     1      21.519   0.257  51.577  1.00  0.00     0.019 A 
HETATM    4  C4  UNL     1      20.145   0.055  51.453  1.00  0.00     0.021 A 
HETATM    5  C5  UNL     1      19.414   0.711  50.482  1.00  0.00     0.004 A 
HETATM    6  C6  UNL     1      20.017   1.589  49.607  1.00  0.00     0.029 A 
HETATM    7  C7  UNL     1      21.376   1.783  49.736  1.00  0.00     0.035 A 
HETATM    8  C19 UNL     1      22.138   1.139  50.699  1.00  0.00     0.050 A 
ENDROOT
BRANCH   7   9
HETATM    9  N1  UNL     1      22.128   2.671  48.914  1.00  0.00    -0.339 N 
HETATM   10  H5  UNL     1      22.495   2.445  47.969  1.00  0.00     0.167 HD
BRANCH   9  11
HETATM   11  C8  UNL     1      22.361   3.950  49.480  1.00  0.00     0.165 A 
HETATM   12  N2  UNL     1      21.409   4.812  49.612  1.00  0.00    -0.219 NA
HETATM   13  C9  UNL     1      21.694   6.080  50.188  1.00  0.00     0.265 A 
HETATM   14  N3  UNL     1      22.866   6.486  50.619  1.00  0.00    -0.121 NA
HETATM   15  O1  UNL     1      23.939   5.627  50.517  1.00  0.00    -0.209 OA
HETATM   16  C10 UNL     1      23.694   4.382  49.959  1.00  0.00     0.144 A 
HETATM   17  C11 UNL     1      24.709   3.530  49.844  1.00  0.00     0.025 C 
BRANCH  17  18
HETATM   18  C12 UNL     1      26.151   3.748  50.260  1.00  0.00     0.038 C 
BRANCH  18  19
HETATM   19  C13 UNL     1      26.936   4.366  49.204  1.00  0.00    -0.022 C 
HETATM   20  C14 UNL     1      27.323   5.358  48.412  1.00  0.00    -0.034 C 
HETATM   21  C15 UNL     1      26.661   6.708  48.559  1.00  0.00     0.036 C 
ENDBRANCH  18  19
BRANCH  18  22
HETATM   22  C16 UNL     1      26.625   2.383  50.709  1.00  0.00     0.070 C 
BRANCH  22  23
HETATM   23  C17 UNL     1      26.708   2.254  52.163  1.00  0.00     0.049 C 
HETATM   24  N4  UNL     1      25.833   2.308  53.121  1.00  0.00    -0.172 NA
HETATM   25  N5  UNL     1      26.444   2.115  54.365  1.00  0.00    -0.242 N 
HETATM   26  N6  UNL     1      27.738   2.652  54.134  1.00  0.00    -0.218 NA
HETATM   27  H16 UNL     1      26.211   1.725  55.301  1.00  0.00     0.204 HD
HETATM   28  C18 UNL     1      28.026   2.001  52.844  1.00  0.00     0.168 C 
HETATM   29  H17 UNL     1      27.538   3.668  53.881  1.00  0.00     0.148 HD
ENDBRANCH  22  23
ENDBRANCH  18  22
ENDBRANCH  17  18
ENDBRANCH   9  11
ENDBRANCH   7   9
TORSDOF 6
ENDMDL
MODEL 6
REMARK VINA RESULT:      -7.8      2.287      5.149
REMARK  6 active torsions:
REMARK  status: ('A' for Active; 'I' for Inactive)
REMARK    1  A    between atoms: C7_7  and  N1_8 
REMARK    2  A    between atoms: N1_8  and  C8_9 
REMARK    3  A    between atoms: C11_15  and  C12_16 
REMARK    4  A    between atoms: C12_16  and  C13_17 
REMARK    5  A    between atoms: C12_16  and  C16_20 
REMARK    6  A    between atoms: C16_20  and  C17_21 
ROOT
HETATM    1  C1  UNL     1      21.466  -1.966  54.469  1.00  0.00     0.018 C 
HETATM    2  C2  UNL     1      21.041  -1.049  53.811  1.00  0.00    -0.078 C 
HETATM    3  C3  UNL     1      20.541   0.055  53.045  1.00  0.00     0.019 A 
HETATM    4  C4  UNL     1      19.359  -0.137  52.330  1.00  0.00     0.021 A 
HETATM    5  C5  UNL     1      18.808   0.881  51.577  1.00  0.00     0.004 A 
HETATM    6  C6  UNL     1      19.407   2.121  51.509  1.00  0.00     0.029 A 
HETATM    7  C7  UNL     1      20.575   2.304  52.218  1.00  0.00     0.035 A 
HETATM    8  C19 UNL     1      21.153   1.301  52.982  1.00  0.00     0.050 A 
ENDROOT
BRANCH   7   9
HETATM    9  N1  UNL     1      21.293   3.534  52.254  1.00  0.00    -0.339 N 
HETATM   10  H5  UNL     1      21.184   4.268  52.982  1.00  0.00     0.167 HD
BRANCH   9  11
HETATM   11  C8  UNL     1      22.213   3.716  51.192  1.00  0.00     0.165 A 
HETATM   12  N2  UNL     1      21.909   4.412  50.147  1.00  0.00    -0.219 NA
HETATM   13  C9  UNL     1      22.869   4.565  49.111  1.00  0.00     0.265 A 
HETATM   14  N3  UNL     1      24.079   4.057  49.098  1.00  0.00    -0.121 NA
HETATM   15  O1  UNL     1      24.487   3.300  50.174  1.00  0.00    -0.209 OA
HETATM   16  C10 UNL     1      23.573   3.131  51.204  1.00  0.00     0.144 A 
HETATM   17  C11 UNL     1      23.935   2.404  52.257  1.00  0.00     0.025 C 
BRANCH  17  18
HETATM   18  C12 UNL     1      25.265   1.712  52.490  1.00  0.00     0.038 C 
BRANCH  18  19
HETATM   19  C13 UNL     1      25.115   0.272  52.618  1.00  0.00    -0.022 C 
HETATM   20  C14 UNL     1      24.957  -0.871  53.275  1.00  0.00    -0.034 C 
HETATM   21  C15 UNL     1      24.856  -0.836  54.782  1.00  0.00     0.036 C 
ENDBRANCH  18  19
BRANCH  18  22
HETATM   22  C16 UNL     1      25.850   2.415  53.696  1.00  0.00     0.070 C 
BRANCH  22  23
HETATM   23  C17 UNL     1      27.202   1.964  54.022  1.00  0.00     0.049 C 
HETATM   24  N4  UNL     1      27.690   1.152  54.910  1.00  0.00    -0.172 NA
HETATM   25  N5  UNL     1      29.081   1.065  54.796  1.00  0.00    -0.242 N 
HETATM   26  N6  UNL     1      29.408   2.358  54.307  1.00  0.00    -0.218 NA
HETATM   27  H16 UNL     1      29.841   0.373  54.961  1.00  0.00     0.204 HD
HETATM   28  C18 UNL     1      28.392   2.462  53.246  1.00  0.00     0.168 C 
HETATM   29  H17 UNL     1      29.058   3.005  55.078  1.00  0.00     0.148 HD
ENDBRANCH  22  23
ENDBRANCH  18  22
ENDBRANCH  17  18
ENDBRANCH   9  11
ENDBRANCH   7   9
TORSDOF 6
ENDMDL
MODEL 7
REMARK VINA RESULT:      -7.6      3.259      5.224
REMARK  6 active torsions:
REMARK  status: ('A' for Active; 'I' for Inactive)
REMARK    1  A    between atoms: C7_7  and  N1_8 
REMARK    2  A    between atoms: N1_8  and  C8_9 
REMARK    3  A    between atoms: C11_15  and  C12_16 
REMARK    4  A    between atoms: C12_16  and  C13_17 
REMARK    5  A    between atoms: C12_16  and  C16_20 
REMARK    6  A    between atoms: C16_20  and  C17_21 
ROOT
HETATM    1  C1  UNL     1      26.174   0.070  52.402  1.00  0.00     0.018 C 
HETATM    2  C2  UNL     1      25.060   0.037  52.861  1.00  0.00    -0.078 C 
HETATM    3  C3  UNL     1      23.735   0.019  53.409  1.00  0.00     0.019 A 
HETATM    4  C4  UNL     1      23.436  -0.972  54.344  1.00  0.00     0.021 A 
HETATM    5  C5  UNL     1      22.186  -1.049  54.925  1.00  0.00     0.004 A 
HETATM    6  C6  UNL     1      21.193  -0.148  54.602  1.00  0.00     0.029 A 
HETATM    7  C7  UNL     1      21.496   0.829  53.677  1.00  0.00     0.035 A 
HETATM    8  C19 UNL     1      22.741   0.932  53.076  1.00  0.00     0.050 A 
ENDROOT
BRANCH   7   9
HETATM    9  N1  UNL     1      20.577   1.835  53.261  1.00  0.00    -0.339 N 
HETATM   10  H5  UNL     1      20.393   2.723  53.768  1.00  0.00     0.167 HD
BRANCH   9  11
HETATM   11  C8  UNL     1      19.890   1.549  52.055  1.00  0.00     0.165 A 
HETATM   12  N2  UNL     1      19.007   0.609  51.988  1.00  0.00    -0.219 NA
HETATM   13  C9  UNL     1      18.345   0.364  50.754  1.00  0.00     0.265 A 
HETATM   14  N3  UNL     1      18.541   1.015  49.631  1.00  0.00    -0.121 NA
HETATM   15  O1  UNL     1      19.467   2.035  49.613  1.00  0.00    -0.209 OA
HETATM   16  C10 UNL     1      20.130   2.299  50.801  1.00  0.00     0.144 A 
HETATM   17  C11 UNL     1      21.032   3.277  50.817  1.00  0.00     0.025 C 
BRANCH  17  18
HETATM   18  C12 UNL     1      21.444   4.174  49.666  1.00  0.00     0.038 C 
BRANCH  18  19
HETATM   19  C13 UNL     1      22.738   3.800  49.118  1.00  0.00    -0.022 C 
HETATM   20  C14 UNL     1      23.978   3.332  49.168  1.00  0.00    -0.034 C 
HETATM   21  C15 UNL     1      24.532   2.875  50.497  1.00  0.00     0.036 C 
ENDBRANCH  18  19
BRANCH  18  22
HETATM   22  C16 UNL     1      21.357   5.576  50.230  1.00  0.00     0.070 C 
BRANCH  22  23
HETATM   23  C17 UNL     1      22.578   5.994  50.918  1.00  0.00     0.049 C 
HETATM   24  N4  UNL     1      23.124   5.676  52.052  1.00  0.00    -0.172 NA
HETATM   25  N5  UNL     1      24.319   6.377  52.244  1.00  0.00    -0.242 N 
HETATM   26  N6  UNL     1      24.059   7.582  51.538  1.00  0.00    -0.218 NA
HETATM   27  H16 UNL     1      25.237   6.249  52.717  1.00  0.00     0.204 HD
HETATM   28  C18 UNL     1      23.506   7.005  50.301  1.00  0.00     0.168 C 
HETATM   29  H17 UNL     1      23.213   7.984  52.047  1.00  0.00     0.148 HD
ENDBRANCH  22  23
ENDBRANCH  18  22
ENDBRANCH  17  18
ENDBRANCH   9  11
ENDBRANCH   7   9
TORSDOF 6
ENDMDL
MODEL 8
REMARK VINA RESULT:      -7.6      2.578      5.311
REMARK  6 active torsions:
REMARK  status: ('A' for Active; 'I' for Inactive)
REMARK    1  A    between atoms: C7_7  and  N1_8 
REMARK    2  A    between atoms: N1_8  and  C8_9 
REMARK    3  A    between atoms: C11_15  and  C12_16 
REMARK    4  A    between atoms: C12_16  and  C13_17 
REMARK    5  A    between atoms: C12_16  and  C16_20 
REMARK    6  A    between atoms: C16_20  and  C17_21 
ROOT
HETATM    1  C1  UNL     1      30.176  -1.284  53.637  1.00  0.00     0.018 C 
HETATM    2  C2  UNL     1      29.155  -0.649  53.548  1.00  0.00    -0.078 C 
HETATM    3  C3  UNL     1      27.937   0.097  53.424  1.00  0.00     0.019 A 
HETATM    4  C4  UNL     1      27.964   1.444  53.784  1.00  0.00     0.021 A 
HETATM    5  C5  UNL     1      26.834   2.231  53.682  1.00  0.00     0.004 A 
HETATM    6  C6  UNL     1      25.644   1.712  53.220  1.00  0.00     0.029 A 
HETATM    7  C7  UNL     1      25.624   0.380  52.865  1.00  0.00     0.035 A 
HETATM    8  C19 UNL     1      26.741  -0.437  52.957  1.00  0.00     0.050 A 
ENDROOT
BRANCH   7   9
HETATM    9  N1  UNL     1      24.472  -0.285  52.356  1.00  0.00    -0.339 N 
HETATM   10  H5  UNL     1      24.431  -0.808  51.460  1.00  0.00     0.167 HD
BRANCH   9  11
HETATM   11  C8  UNL     1      23.322  -0.194  53.180  1.00  0.00     0.165 A 
HETATM   12  N2  UNL     1      23.216  -0.883  54.268  1.00  0.00    -0.219 NA
HETATM   13  C9  UNL     1      22.043  -0.754  55.060  1.00  0.00     0.265 A 
HETATM   14  N3  UNL     1      21.014   0.020  54.797  1.00  0.00    -0.121 NA
HETATM   15  O1  UNL     1      21.045   0.790  53.655  1.00  0.00    -0.209 OA
HETATM   16  C10 UNL     1      22.176   0.688  52.860  1.00  0.00     0.144 A 
HETATM   17  C11 UNL     1      22.236   1.417  51.749  1.00  0.00     0.025 C 
BRANCH  17  18
HETATM   18  C12 UNL     1      21.193   2.383  51.220  1.00  0.00     0.038 C 
BRANCH  18  19
HETATM   19  C13 UNL     1      20.165   1.706  50.447  1.00  0.00    -0.022 C 
HETATM   20  C14 UNL     1      19.153   1.630  49.592  1.00  0.00    -0.034 C 
HETATM   21  C15 UNL     1      18.641   2.900  48.955  1.00  0.00     0.036 C 
ENDBRANCH  18  19
BRANCH  18  22
HETATM   22  C16 UNL     1      21.992   3.425  50.467  1.00  0.00     0.070 C 
BRANCH  22  23
HETATM   23  C17 UNL     1      22.809   4.264  51.343  1.00  0.00     0.049 C 
HETATM   24  N4  UNL     1      22.588   4.866  52.472  1.00  0.00    -0.172 NA
HETATM   25  N5  UNL     1      23.729   5.554  52.901  1.00  0.00    -0.242 N 
HETATM   26  N6  UNL     1      24.339   5.895  51.665  1.00  0.00    -0.218 NA
HETATM   27  H16 UNL     1      24.183   5.841  53.792  1.00  0.00     0.204 HD
HETATM   28  C18 UNL     1      24.237   4.587  50.994  1.00  0.00     0.168 C 
HETATM   29  H17 UNL     1      23.601   6.498  51.188  1.00  0.00     0.148 HD
ENDBRANCH  22  23
ENDBRANCH  18  22
ENDBRANCH  17  18
ENDBRANCH   9  11
ENDBRANCH   7   9
TORSDOF 6
ENDMDL
MODEL 9
REMARK VINA RESULT:      -7.3      3.120      6.899
REMARK  6 active torsions:
REMARK  status: ('A' for Active; 'I' for Inactive)
REMARK    1  A    between atoms: C7_7  and  N1_8 
REMARK    2  A    between atoms: N1_8  and  C8_9 
REMARK    3  A    between atoms: C11_15  and  C12_16 
REMARK    4  A    between atoms: C12_16  and  C13_17 
REMARK    5  A    between atoms: C12_16  and  C16_20 
REMARK    6  A    between atoms: C16_20  and  C17_21 
ROOT
HETATM    1  C1  UNL     1      29.603   7.013  47.168  1.00  0.00     0.018 C 
HETATM    2  C2  UNL     1      28.645   6.699  47.829  1.00  0.00    -0.078 C 
HETATM    3  C3  UNL     1      27.499   6.313  48.601  1.00  0.00     0.019 A 
HETATM    4  C4  UNL     1      26.763   7.325  49.215  1.00  0.00     0.021 A 
HETATM    5  C5  UNL     1      25.641   7.034  49.967  1.00  0.00     0.004 A 
HETATM    6  C6  UNL     1      25.212   5.734  50.132  1.00  0.00     0.029 A 
HETATM    7  C7  UNL     1      25.945   4.739  49.522  1.00  0.00     0.035 A 
HETATM    8  C19 UNL     1      27.076   4.999  48.762  1.00  0.00     0.050 A 
ENDROOT
BRANCH   7   9
HETATM    9  N1  UNL     1      25.610   3.356  49.591  1.00  0.00    -0.339 N 
HETATM   10  H5  UNL     1      25.173   2.807  48.825  1.00  0.00     0.167 HD
BRANCH   9  11
HETATM   11  C8  UNL     1      25.923   2.731  50.825  1.00  0.00     0.165 A 
HETATM   12  N2  UNL     1      27.116   2.774  51.319  1.00  0.00    -0.219 NA
HETATM   13  C9  UNL     1      27.377   2.133  52.560  1.00  0.00     0.265 A 
HETATM   14  N3  UNL     1      26.504   1.476  53.289  1.00  0.00    -0.121 NA
HETATM   15  O1  UNL     1      25.206   1.382  52.836  1.00  0.00    -0.209 OA
HETATM   16  C10 UNL     1      24.918   1.997  51.627  1.00  0.00     0.144 A 
HETATM   17  C11 UNL     1      23.675   1.922  51.160  1.00  0.00     0.025 C 
BRANCH  17  18
HETATM   18  C12 UNL     1      22.487   1.230  51.801  1.00  0.00     0.038 C 
BRANCH  18  19
HETATM   19  C13 UNL     1      21.565   0.701  50.809  1.00  0.00    -0.022 C 
HETATM   20  C14 UNL     1      21.024   0.592  49.602  1.00  0.00    -0.034 C 
HETATM   21  C15 UNL     1      21.564   1.449  48.482  1.00  0.00     0.036 C 
ENDBRANCH  18  19
BRANCH  18  22
HETATM   22  C16 UNL     1      21.908   2.266  52.740  1.00  0.00     0.070 C 
BRANCH  22  23
HETATM   23  C17 UNL     1      20.831   3.049  52.137  1.00  0.00     0.049 C 
HETATM   24  N4  UNL     1      19.536   2.963  52.159  1.00  0.00    -0.172 NA
HETATM   25  N5  UNL     1      18.955   3.984  51.400  1.00  0.00    -0.242 N 
HETATM   26  N6  UNL     1      19.947   4.201  50.406  1.00  0.00    -0.218 NA
HETATM   27  H16 UNL     1      18.084   4.554  51.386  1.00  0.00     0.204 HD
HETATM   28  C18 UNL     1      21.133   4.247  51.278  1.00  0.00     0.168 C 
HETATM   29  H17 UNL     1      20.011   3.256  49.918  1.00  0.00     0.148 HD
ENDBRANCH  22  23
ENDBRANCH  18  22
ENDBRANCH  17  18
ENDBRANCH   9  11
ENDBRANCH   7   9
TORSDOF 6
ENDMDL
