MODEL 1
REMARK VINA RESULT:      -9.9      0.000      0.000
REMARK  3 active torsions:
REMARK  status: ('A' for Active; 'I' for Inactive)
REMARK    1  A    between atoms: C3_3  and  C4_4 
REMARK    2  A    between atoms: C17_19  and  N2_20 
REMARK    3  A    between atoms: N2_20  and  S1_22 
ROOT
HETATM    1  C4  UNL     1      25.493  -0.063  52.766  1.00  0.00     0.048 C 
HETATM    2  C5  UNL     1      24.722  -0.342  53.967  1.00  0.00    -0.014 C 
HETATM    3  C6  UNL     1      23.480  -0.540  54.394  1.00  0.00     0.026 C 
HETATM    4  C7  UNL     1      22.290  -0.495  53.494  1.00  0.00     0.035 C 
HETATM    5  C8  UNL     1      21.094  -0.735  53.967  1.00  0.00     0.043 C 
HETATM    6  C9  UNL     1      19.788  -0.770  53.347  1.00  0.00    -0.008 A 
HETATM    7  C10 UNL     1      19.118  -1.885  53.871  1.00  0.00     0.014 A 
HETATM    8  C11 UNL     1      17.830  -2.350  53.578  1.00  0.00     0.001 A 
HETATM    9  C12 UNL     1      17.166  -1.585  52.649  1.00  0.00     0.002 A 
HETATM   10  C13 UNL     1      17.821  -0.463  52.112  1.00  0.00     0.030 A 
HETATM   11  C14 UNL     1      19.118  -0.022  52.427  1.00  0.00     0.040 A 
HETATM   12  N1  UNL     1      19.200   1.115  51.589  1.00  0.00    -0.368 N 
HETATM   13  C15 UNL     1      19.226   2.550  51.715  1.00  0.00     0.290 C 
HETATM   14  O1  UNL     1      20.494   3.088  51.826  1.00  0.00    -0.370 OA
HETATM   15  C16 UNL     1      21.149   2.722  50.632  1.00  0.00     0.196 C 
HETATM   16  C17 UNL     1      22.581   3.276  50.597  1.00  0.00     0.133 C 
HETATM   17  C20 UNL     1      23.342   2.685  51.792  1.00  0.00     0.121 C 
HETATM   18  C21 UNL     1      24.760   3.035  51.878  1.00  0.00     0.130 C 
HETATM   19  N3  UNL     1      25.546   2.455  52.853  1.00  0.00    -0.419 N 
HETATM   20  C22 UNL     1      26.197   1.237  52.815  1.00  0.00     0.126 C 
HETATM   21  C23 UNL     1      22.962   1.320  52.109  1.00  0.00     0.230 C 
HETATM   22  O4  UNL     1      22.639   1.140  53.332  1.00  0.00    -0.273 OA
HETATM   23  N4  UNL     1      22.634  -0.115  52.131  1.00  0.00    -0.327 N 
HETATM   24  H14 UNL     1      19.280   0.897  50.542  1.00  0.00     0.161 HD
HETATM   25  H29 UNL     1      25.606   2.989  53.756  1.00  0.00     0.153 HD
HETATM   26  H32 UNL     1      22.670  -0.678  51.253  1.00  0.00     0.169 HD
ENDROOT
BRANCH  16  27
HETATM   27  N2  UNL     1      22.514   4.672  50.624  1.00  0.00    -0.308 N 
HETATM   28  C18 UNL     1      22.228   5.353  51.816  1.00  0.00     0.163 C 
BRANCH  27  29
HETATM   29  S1  UNL     1      22.161   5.454  49.163  1.00  0.00     0.224 S 
HETATM   30  C19 UNL     1      23.034   7.016  49.163  1.00  0.00     0.186 C 
HETATM   31  O2  UNL     1      20.707   5.735  48.954  1.00  0.00    -0.206 OA
HETATM   32  O3  UNL     1      22.636   4.643  47.992  1.00  0.00    -0.206 OA
ENDBRANCH  27  29
ENDBRANCH  16  27
BRANCH   1  33
HETATM   33  C3  UNL     1      26.624  -1.160  52.755  1.00  0.00    -0.021 C 
HETATM   34  C2  UNL     1      27.908  -1.042  53.100  1.00  0.00    -0.034 C 
HETATM   35  C1  UNL     1      29.173  -1.813  53.206  1.00  0.00     0.036 C 
ENDBRANCH   1  33
TORSDOF 3
ENDMDL
MODEL 2
REMARK VINA RESULT:      -9.3      2.881      6.683
REMARK  3 active torsions:
REMARK  status: ('A' for Active; 'I' for Inactive)
REMARK    1  A    between atoms: C3_3  and  C4_4 
REMARK    2  A    between atoms: C17_19  and  N2_20 
REMARK    3  A    between atoms: N2_20  and  S1_22 
ROOT
HETATM    1  C4  UNL     1      25.323   1.587  52.900  1.00  0.00     0.048 C 
HETATM    2  C5  UNL     1      26.231   1.506  51.768  1.00  0.00    -0.014 C 
HETATM    3  C6  UNL     1      26.653   2.189  50.709  1.00  0.00     0.026 C 
HETATM    4  C7  UNL     1      26.139   3.546  50.356  1.00  0.00     0.035 C 
HETATM    5  C8  UNL     1      26.621   4.186  49.322  1.00  0.00     0.043 C 
HETATM    6  C9  UNL     1      26.331   5.485  48.756  1.00  0.00    -0.008 A 
HETATM    7  C10 UNL     1      27.561   6.065  48.414  1.00  0.00     0.014 A 
HETATM    8  C11 UNL     1      27.809   7.318  47.842  1.00  0.00     0.001 A 
HETATM    9  C12 UNL     1      26.670   8.048  47.598  1.00  0.00     0.002 A 
HETATM   10  C13 UNL     1      25.427   7.484  47.934  1.00  0.00     0.030 A 
HETATM   11  C14 UNL     1      25.211   6.220  48.509  1.00  0.00     0.040 A 
HETATM   12  N1  UNL     1      23.799   6.230  48.600  1.00  0.00    -0.368 N 
HETATM   13  C15 UNL     1      22.671   5.582  47.979  1.00  0.00     0.290 C 
HETATM   14  O1  UNL     1      22.262   4.425  48.613  1.00  0.00    -0.370 OA
HETATM   15  C16 UNL     1      21.898   4.831  49.912  1.00  0.00     0.196 C 
HETATM   16  C17 UNL     1      21.392   3.640  50.741  1.00  0.00     0.133 C 
HETATM   17  C20 UNL     1      22.531   2.615  50.833  1.00  0.00     0.121 C 
HETATM   18  C21 UNL     1      22.262   1.440  51.662  1.00  0.00     0.130 C 
HETATM   19  N3  UNL     1      23.270   0.527  51.894  1.00  0.00    -0.419 N 
HETATM   20  C22 UNL     1      24.253   0.566  52.864  1.00  0.00     0.126 C 
HETATM   21  C23 UNL     1      23.850   3.215  50.917  1.00  0.00     0.230 C 
HETATM   22  O4  UNL     1      24.680   2.770  50.054  1.00  0.00    -0.273 OA
HETATM   23  N4  UNL     1      25.065   3.984  51.236  1.00  0.00    -0.327 N 
HETATM   24  H14 UNL     1      23.402   6.892  49.345  1.00  0.00     0.161 HD
HETATM   25  H29 UNL     1      23.322  -0.267  51.208  1.00  0.00     0.153 HD
HETATM   26  H32 UNL     1      25.049   4.707  51.989  1.00  0.00     0.169 HD
ENDROOT
BRANCH  16  27
HETATM   27  N2  UNL     1      20.244   3.133  50.126  1.00  0.00    -0.308 N 
HETATM   28  C18 UNL     1      20.328   2.438  48.911  1.00  0.00     0.163 C 
BRANCH  27  29
HETATM   29  S1  UNL     1      18.772   3.880  50.507  1.00  0.00     0.224 S 
HETATM   30  C19 UNL     1      17.478   2.996  49.643  1.00  0.00     0.186 C 
HETATM   31  O2  UNL     1      18.695   5.320  50.111  1.00  0.00    -0.206 OA
HETATM   32  O3  UNL     1      18.497   3.803  51.982  1.00  0.00    -0.206 OA
ENDBRANCH  27  29
ENDBRANCH  16  27
BRANCH   1  33
HETATM   33  C3  UNL     1      26.212   1.229  54.151  1.00  0.00    -0.021 C 
HETATM   34  C2  UNL     1      27.407   0.636  54.185  1.00  0.00    -0.034 C 
HETATM   35  C1  UNL     1      28.464   0.172  55.121  1.00  0.00     0.036 C 
ENDBRANCH   1  33
TORSDOF 3
ENDMDL
MODEL 3
REMARK VINA RESULT:      -9.2      2.028      2.362
REMARK  3 active torsions:
REMARK  status: ('A' for Active; 'I' for Inactive)
REMARK    1  A    between atoms: C3_3  and  C4_4 
REMARK    2  A    between atoms: C17_19  and  N2_20 
REMARK    3  A    between atoms: N2_20  and  S1_22 
ROOT
HETATM    1  C4  UNL     1      25.603   1.559  51.541  1.00  0.00     0.048 C 
HETATM    2  C5  UNL     1      24.785   1.700  52.735  1.00  0.00    -0.014 C 
HETATM    3  C6  UNL     1      23.543   1.551  53.180  1.00  0.00     0.026 C 
HETATM    4  C7  UNL     1      22.415   1.095  52.315  1.00  0.00     0.035 C 
HETATM    5  C8  UNL     1      21.219   0.930  52.819  1.00  0.00     0.043 C 
HETATM    6  C9  UNL     1      19.966   0.501  52.240  1.00  0.00    -0.008 A 
HETATM    7  C10 UNL     1      19.372  -0.378  53.158  1.00  0.00     0.014 A 
HETATM    8  C11 UNL     1      18.156  -1.064  53.052  1.00  0.00     0.001 A 
HETATM    9  C12 UNL     1      17.484  -0.817  51.879  1.00  0.00     0.002 A 
HETATM   10  C13 UNL     1      18.063   0.060  50.945  1.00  0.00     0.030 A 
HETATM   11  C14 UNL     1      19.288   0.735  51.081  1.00  0.00     0.040 A 
HETATM   12  N1  UNL     1      19.317   1.441  49.856  1.00  0.00    -0.368 N 
HETATM   13  C15 UNL     1      19.197   2.799  49.388  1.00  0.00     0.290 C 
HETATM   14  O1  UNL     1      20.398   3.476  49.297  1.00  0.00    -0.370 OA
HETATM   15  C16 UNL     1      21.161   2.739  48.369  1.00  0.00     0.196 C 
HETATM   16  C17 UNL     1      22.534   3.391  48.142  1.00  0.00     0.133 C 
HETATM   17  C20 UNL     1      23.268   3.420  49.490  1.00  0.00     0.121 C 
HETATM   18  C21 UNL     1      24.638   3.933  49.456  1.00  0.00     0.130 C 
HETATM   19  N3  UNL     1      25.409   3.888  50.599  1.00  0.00    -0.419 N 
HETATM   20  C22 UNL     1      26.175   2.839  51.072  1.00  0.00     0.126 C 
HETATM   21  C23 UNL     1      23.000   2.264  50.326  1.00  0.00     0.230 C 
HETATM   22  O4  UNL     1      22.616   2.555  51.510  1.00  0.00    -0.273 OA
HETATM   23  N4  UNL     1      22.809   0.931  50.922  1.00  0.00    -0.327 N 
HETATM   24  H14 UNL     1      19.485   0.832  48.989  1.00  0.00     0.161 HD
HETATM   25  H29 UNL     1      25.360   4.742  51.208  1.00  0.00     0.153 HD
HETATM   26  H32 UNL     1      22.956   0.071  50.350  1.00  0.00     0.169 HD
ENDROOT
BRANCH  16  27
HETATM   27  N2  UNL     1      22.332   4.663  47.598  1.00  0.00    -0.308 N 
HETATM   28  C18 UNL     1      22.124   5.773  48.428  1.00  0.00     0.163 C 
BRANCH  27  29
HETATM   29  S1  UNL     1      21.732   4.736  46.016  1.00  0.00     0.224 S 
HETATM   30  C19 UNL     1      22.381   6.224  45.262  1.00  0.00     0.186 C 
HETATM   31  O2  UNL     1      20.240   4.784  45.927  1.00  0.00    -0.206 OA
HETATM   32  O3  UNL     1      22.193   3.554  45.211  1.00  0.00    -0.206 OA
ENDBRANCH  27  29
ENDBRANCH  16  27
BRANCH   1  33
HETATM   33  C3  UNL     1      26.832   0.685  52.000  1.00  0.00    -0.021 C 
HETATM   34  C2  UNL     1      27.372   0.575  53.216  1.00  0.00    -0.034 C 
HETATM   35  C1  UNL     1      28.461  -0.107  53.961  1.00  0.00     0.036 C 
ENDBRANCH   1  33
TORSDOF 3
ENDMDL
MODEL 4
REMARK VINA RESULT:      -8.7      3.831      7.955
REMARK  3 active torsions:
REMARK  status: ('A' for Active; 'I' for Inactive)
REMARK    1  A    between atoms: C3_3  and  C4_4 
REMARK    2  A    between atoms: C17_19  and  N2_20 
REMARK    3  A    between atoms: N2_20  and  S1_22 
ROOT
HETATM    1  C4  UNL     1      24.598   2.934  51.855  1.00  0.00     0.048 C 
HETATM    2  C5  UNL     1      25.530   2.453  50.848  1.00  0.00    -0.014 C 
HETATM    3  C6  UNL     1      26.385   2.873  49.922  1.00  0.00     0.026 C 
HETATM    4  C7  UNL     1      26.628   4.317  49.632  1.00  0.00     0.035 C 
HETATM    5  C8  UNL     1      27.511   4.671  48.733  1.00  0.00     0.043 C 
HETATM    6  C9  UNL     1      27.955   5.962  48.256  1.00  0.00    -0.008 A 
HETATM    7  C10 UNL     1      29.351   5.892  48.133  1.00  0.00     0.014 A 
HETATM    8  C11 UNL     1      30.243   6.888  47.717  1.00  0.00     0.001 A 
HETATM    9  C12 UNL     1      29.633   8.076  47.395  1.00  0.00     0.002 A 
HETATM   10  C13 UNL     1      28.234   8.166  47.512  1.00  0.00     0.030 A 
HETATM   11  C14 UNL     1      27.364   7.146  47.934  1.00  0.00     0.040 A 
HETATM   12  N1  UNL     1      26.127   7.825  47.841  1.00  0.00    -0.368 N 
HETATM   13  C15 UNL     1      24.942   7.805  47.021  1.00  0.00     0.290 C 
HETATM   14  O1  UNL     1      23.944   6.970  47.486  1.00  0.00    -0.370 OA
HETATM   15  C16 UNL     1      23.611   7.475  48.758  1.00  0.00     0.196 C 
HETATM   16  C17 UNL     1      22.482   6.653  49.400  1.00  0.00     0.133 C 
HETATM   17  C20 UNL     1      22.979   5.208  49.544  1.00  0.00     0.121 C 
HETATM   18  C21 UNL     1      22.065   4.287  50.220  1.00  0.00     0.130 C 
HETATM   19  N3  UNL     1      22.477   2.999  50.495  1.00  0.00    -0.419 N 
HETATM   20  C22 UNL     1      23.197   2.547  51.585  1.00  0.00     0.126 C 
HETATM   21  C23 UNL     1      24.394   5.105  49.856  1.00  0.00     0.230 C 
HETATM   22  O4  UNL     1      25.045   4.336  49.071  1.00  0.00    -0.273 OA
HETATM   23  N4  UNL     1      25.759   5.197  50.400  1.00  0.00    -0.327 N 
HETATM   24  H14 UNL     1      25.972   8.582  48.585  1.00  0.00     0.161 HD
HETATM   25  H29 UNL     1      22.260   2.290  49.751  1.00  0.00     0.153 HD
HETATM   26  H32 UNL     1      25.964   5.825  51.208  1.00  0.00     0.169 HD
ENDROOT
BRANCH  16  27
HETATM   27  N2  UNL     1      21.344   6.765  48.596  1.00  0.00    -0.308 N 
HETATM   28  C18 UNL     1      21.227   6.023  47.413  1.00  0.00     0.163 C 
BRANCH  27  29
HETATM   29  S1  UNL     1      20.453   8.201  48.721  1.00  0.00     0.224 S 
HETATM   30  C19 UNL     1      18.796   7.858  48.136  1.00  0.00     0.186 C 
HETATM   31  O2  UNL     1      21.003   9.336  47.917  1.00  0.00    -0.206 OA
HETATM   32  O3  UNL     1      20.369   8.658  50.149  1.00  0.00    -0.206 OA
ENDBRANCH  27  29
ENDBRANCH  16  27
BRANCH   1  33
HETATM   33  C3  UNL     1      25.006   2.172  53.172  1.00  0.00    -0.021 C 
HETATM   34  C2  UNL     1      25.139   0.859  53.371  1.00  0.00    -0.034 C 
HETATM   35  C1  UNL     1      25.484  -0.144  54.412  1.00  0.00     0.036 C 
ENDBRANCH   1  33
TORSDOF 3
ENDMDL
MODEL 5
REMARK VINA RESULT:      -8.4      2.512      6.302
REMARK  3 active torsions:
REMARK  status: ('A' for Active; 'I' for Inactive)
REMARK    1  A    between atoms: C3_3  and  C4_4 
REMARK    2  A    between atoms: C17_19  and  N2_20 
REMARK    3  A    between atoms: N2_20  and  S1_22 
ROOT
HETATM    1  C4  UNL     1      17.553   3.949  51.067  1.00  0.00     0.048 C 
HETATM    2  C5  UNL     1      17.523   2.508  50.879  1.00  0.00    -0.014 C 
HETATM    3  C6  UNL     1      18.177   1.394  51.191  1.00  0.00     0.026 C 
HETATM    4  C7  UNL     1      19.422   1.383  52.013  1.00  0.00     0.035 C 
HETATM    5  C8  UNL     1      20.002   0.250  52.320  1.00  0.00     0.043 C 
HETATM    6  C9  UNL     1      21.185  -0.064  53.089  1.00  0.00    -0.008 A 
HETATM    7  C10 UNL     1      20.868  -1.174  53.888  1.00  0.00     0.014 A 
HETATM    8  C11 UNL     1      21.678  -1.846  54.811  1.00  0.00     0.001 A 
HETATM    9  C12 UNL     1      22.942  -1.321  54.922  1.00  0.00     0.002 A 
HETATM   10  C13 UNL     1      23.279  -0.208  54.130  1.00  0.00     0.030 A 
HETATM   11  C14 UNL     1      22.442   0.446  53.210  1.00  0.00     0.040 A 
HETATM   12  N1  UNL     1      23.324   1.450  52.747  1.00  0.00    -0.368 N 
HETATM   13  C15 UNL     1      24.054   1.778  51.549  1.00  0.00     0.290 C 
HETATM   14  O1  UNL     1      23.369   2.598  50.673  1.00  0.00    -0.370 OA
HETATM   15  C16 UNL     1      23.125   3.782  51.398  1.00  0.00     0.196 C 
HETATM   16  C17 UNL     1      22.381   4.813  50.536  1.00  0.00     0.133 C 
HETATM   17  C20 UNL     1      21.041   4.193  50.116  1.00  0.00     0.121 C 
HETATM   18  C21 UNL     1      20.148   5.067  49.353  1.00  0.00     0.130 C 
HETATM   19  N3  UNL     1      18.879   4.630  49.035  1.00  0.00    -0.419 N 
HETATM   20  C22 UNL     1      17.733   4.698  49.805  1.00  0.00     0.126 C 
HETATM   21  C23 UNL     1      20.447   3.341  51.131  1.00  0.00     0.230 C 
HETATM   22  O4  UNL     1      20.131   2.176  50.713  1.00  0.00    -0.273 OA
HETATM   23  N4  UNL     1      19.887   2.723  52.344  1.00  0.00    -0.327 N 
HETATM   24  H14 UNL     1      23.536   2.225  53.458  1.00  0.00     0.161 HD
HETATM   25  H29 UNL     1      18.792   4.137  48.112  1.00  0.00     0.153 HD
HETATM   26  H32 UNL     1      19.876   3.247  53.247  1.00  0.00     0.169 HD
ENDROOT
BRANCH  16  27
HETATM   27  N2  UNL     1      23.195   5.149  49.451  1.00  0.00    -0.308 N 
HETATM   28  C18 UNL     1      23.137   4.418  48.257  1.00  0.00     0.163 C 
BRANCH  27  29
HETATM   29  S1  UNL     1      24.626   5.988  49.795  1.00  0.00     0.224 S 
HETATM   30  C19 UNL     1      24.975   7.053  48.399  1.00  0.00     0.186 C 
HETATM   31  O2  UNL     1      25.815   5.108  50.015  1.00  0.00    -0.206 OA
HETATM   32  O3  UNL     1      24.466   6.844  51.018  1.00  0.00    -0.206 OA
ENDBRANCH  27  29
ENDBRANCH  16  27
BRANCH   1  33
HETATM   33  C3  UNL     1      16.108   4.315  51.578  1.00  0.00    -0.021 C 
HETATM   34  C2  UNL     1      15.533   4.016  52.745  1.00  0.00    -0.034 C 
HETATM   35  C1  UNL     1      14.272   4.186  53.513  1.00  0.00     0.036 C 
ENDBRANCH   1  33
TORSDOF 3
ENDMDL
MODEL 6
REMARK VINA RESULT:      -7.9      3.444      5.871
REMARK  3 active torsions:
REMARK  status: ('A' for Active; 'I' for Inactive)
REMARK    1  A    between atoms: C3_3  and  C4_4 
REMARK    2  A    between atoms: C17_19  and  N2_20 
REMARK    3  A    between atoms: N2_20  and  S1_22 
ROOT
HETATM    1  C4  UNL     1      25.648   5.898  48.604  1.00  0.00     0.048 C 
HETATM    2  C5  UNL     1      25.288   5.956  50.012  1.00  0.00    -0.014 C 
HETATM    3  C6  UNL     1      24.664   5.273  50.965  1.00  0.00     0.026 C 
HETATM    4  C7  UNL     1      24.015   3.950  50.729  1.00  0.00     0.035 C 
HETATM    5  C8  UNL     1      23.448   3.306  51.717  1.00  0.00     0.043 C 
HETATM    6  C9  UNL     1      22.765   2.034  51.788  1.00  0.00    -0.008 A 
HETATM    7  C10 UNL     1      23.202   1.402  52.962  1.00  0.00     0.014 A 
HETATM    8  C11 UNL     1      22.838   0.149  53.469  1.00  0.00     0.001 A 
HETATM    9  C12 UNL     1      21.931  -0.521  52.685  1.00  0.00     0.002 A 
HETATM   10  C13 UNL     1      21.480   0.095  51.504  1.00  0.00     0.030 A 
HETATM   11  C14 UNL     1      21.866   1.357  51.021  1.00  0.00     0.040 A 
HETATM   12  N1  UNL     1      21.094   1.412  49.836  1.00  0.00    -0.368 N 
HETATM   13  C15 UNL     1      19.951   2.124  49.323  1.00  0.00     0.290 C 
HETATM   14  O1  UNL     1      20.264   3.288  48.647  1.00  0.00    -0.370 OA
HETATM   15  C16 UNL     1      21.068   2.876  47.566  1.00  0.00     0.196 C 
HETATM   16  C17 UNL     1      21.480   4.074  46.697  1.00  0.00     0.133 C 
HETATM   17  C20 UNL     1      22.279   5.042  47.581  1.00  0.00     0.121 C 
HETATM   18  C21 UNL     1      22.833   6.213  46.901  1.00  0.00     0.130 C 
HETATM   19  N3  UNL     1      23.660   7.073  47.593  1.00  0.00    -0.419 N 
HETATM   20  C22 UNL     1      25.023   6.969  47.798  1.00  0.00     0.126 C 
HETATM   21  C23 UNL     1      23.110   4.378  48.570  1.00  0.00     0.230 C 
HETATM   22  O4  UNL     1      22.934   4.799  49.764  1.00  0.00    -0.273 OA
HETATM   23  N4  UNL     1      24.058   3.547  49.330  1.00  0.00    -0.327 N 
HETATM   24  H14 UNL     1      21.424   0.757  49.054  1.00  0.00     0.161 HD
HETATM   25  H29 UNL     1      23.177   7.876  48.068  1.00  0.00     0.153 HD
HETATM   26  H32 UNL     1      24.620   2.812  48.847  1.00  0.00     0.169 HD
ENDROOT
BRANCH  16  27
HETATM   27  N2  UNL     1      20.323   4.647  46.161  1.00  0.00    -0.308 N 
HETATM   28  C18 UNL     1      19.329   5.172  46.998  1.00  0.00     0.163 C 
BRANCH  27  29
HETATM   29  S1  UNL     1      19.866   4.146  44.608  1.00  0.00     0.224 S 
HETATM   30  C19 UNL     1      19.319   5.597  43.714  1.00  0.00     0.186 C 
HETATM   31  O2  UNL     1      18.756   3.144  44.589  1.00  0.00    -0.206 OA
HETATM   32  O3  UNL     1      21.029   3.545  43.874  1.00  0.00    -0.206 OA
ENDBRANCH  27  29
ENDBRANCH  16  27
BRANCH   1  33
HETATM   33  C3  UNL     1      27.196   6.190  48.576  1.00  0.00    -0.021 C 
HETATM   34  C2  UNL     1      27.862   7.100  47.863  1.00  0.00    -0.034 C 
HETATM   35  C1  UNL     1      29.230   7.620  47.603  1.00  0.00     0.036 C 
ENDBRANCH   1  33
TORSDOF 3
ENDMDL
MODEL 7
REMARK VINA RESULT:      -7.9      7.638     11.886
REMARK  3 active torsions:
REMARK  status: ('A' for Active; 'I' for Inactive)
REMARK    1  A    between atoms: C3_3  and  C4_4 
REMARK    2  A    between atoms: C17_19  and  N2_20 
REMARK    3  A    between atoms: N2_20  and  S1_22 
ROOT
HETATM    1  C4  UNL     1      26.067   6.530  49.359  1.00  0.00     0.048 C 
HETATM    2  C5  UNL     1      26.845   5.656  48.497  1.00  0.00    -0.014 C 
HETATM    3  C6  UNL     1      28.077   5.456  48.041  1.00  0.00     0.026 C 
HETATM    4  C7  UNL     1      29.234   6.325  48.407  1.00  0.00     0.035 C 
HETATM    5  C8  UNL     1      30.432   6.055  47.956  1.00  0.00     0.043 C 
HETATM    6  C9  UNL     1      31.713   6.699  48.144  1.00  0.00    -0.008 A 
HETATM    7  C10 UNL     1      32.656   5.679  48.338  1.00  0.00     0.014 A 
HETATM    8  C11 UNL     1      34.033   5.792  48.570  1.00  0.00     0.001 A 
HETATM    9  C12 UNL     1      34.481   7.091  48.605  1.00  0.00     0.002 A 
HETATM   10  C13 UNL     1      33.550   8.127  48.412  1.00  0.00     0.030 A 
HETATM   11  C14 UNL     1      32.172   7.981  48.181  1.00  0.00     0.040 A 
HETATM   12  N1  UNL     1      31.796   9.340  48.071  1.00  0.00    -0.368 N 
HETATM   13  C15 UNL     1      31.356  10.261  47.054  1.00  0.00     0.290 C 
HETATM   14  O1  UNL     1      29.985  10.328  46.903  1.00  0.00    -0.370 OA
HETATM   15  C16 UNL     1      29.503  10.764  48.153  1.00  0.00     0.196 C 
HETATM   16  C17 UNL     1      27.973  10.912  48.133  1.00  0.00     0.133 C 
HETATM   17  C20 UNL     1      27.374   9.535  47.813  1.00  0.00     0.121 C 
HETATM   18  C21 UNL     1      25.913   9.458  47.835  1.00  0.00     0.130 C 
HETATM   19  N3  UNL     1      25.294   8.236  47.673  1.00  0.00    -0.419 N 
HETATM   20  C22 UNL     1      25.020   7.282  48.635  1.00  0.00     0.126 C 
HETATM   21  C23 UNL     1      28.118   8.427  48.385  1.00  0.00     0.230 C 
HETATM   22  O4  UNL     1      28.437   7.524  47.540  1.00  0.00    -0.273 OA
HETATM   23  N4  UNL     1      28.842   7.461  49.229  1.00  0.00    -0.327 N 
HETATM   24  H14 UNL     1      31.817   9.888  48.993  1.00  0.00     0.161 HD
HETATM   25  H29 UNL     1      25.053   7.983  46.683  1.00  0.00     0.153 HD
HETATM   26  H32 UNL     1      28.998   7.659  50.242  1.00  0.00     0.169 HD
ENDROOT
BRANCH  16  27
HETATM   27  N2  UNL     1      27.638  11.890  47.193  1.00  0.00    -0.308 N 
HETATM   28  C18 UNL     1      27.819  11.659  45.822  1.00  0.00     0.163 C 
BRANCH  27  29
HETATM   29  S1  UNL     1      27.620  13.497  47.727  1.00  0.00     0.224 S 
HETATM   30  C19 UNL     1      29.077  14.300  47.067  1.00  0.00     0.186 C 
HETATM   31  O2  UNL     1      27.641  13.649  49.215  1.00  0.00    -0.206 OA
HETATM   32  O3  UNL     1      26.406  14.219  47.218  1.00  0.00    -0.206 OA
ENDBRANCH  27  29
ENDBRANCH  16  27
BRANCH   1  33
HETATM   33  C3  UNL     1      25.299   5.554  50.328  1.00  0.00    -0.021 C 
HETATM   34  C2  UNL     1      25.085   4.243  50.198  1.00  0.00    -0.034 C 
HETATM   35  C1  UNL     1      24.445   3.082  50.870  1.00  0.00     0.036 C 
ENDBRANCH   1  33
TORSDOF 3
ENDMDL
MODEL 8
REMARK VINA RESULT:      -7.9      2.918      4.601
REMARK  3 active torsions:
REMARK  status: ('A' for Active; 'I' for Inactive)
REMARK    1  A    between atoms: C3_3  and  C4_4 
REMARK    2  A    between atoms: C17_19  and  N2_20 
REMARK    3  A    between atoms: N2_20  and  S1_22 
ROOT
HETATM    1  C4  UNL     1      21.897   1.684  51.696  1.00  0.00     0.048 C 
HETATM    2  C5  UNL     1      21.589   1.121  53.001  1.00  0.00    -0.014 C 
HETATM    3  C6  UNL     1      20.729   0.322  53.623  1.00  0.00     0.026 C 
HETATM    4  C7  UNL     1      19.581  -0.336  52.933  1.00  0.00     0.035 C 
HETATM    5  C8  UNL     1      18.789  -1.143  53.591  1.00  0.00     0.043 C 
HETATM    6  C9  UNL     1      17.630  -1.912  53.194  1.00  0.00    -0.008 A 
HETATM    7  C10 UNL     1      17.751  -3.173  53.796  1.00  0.00     0.014 A 
HETATM    8  C11 UNL     1      16.887  -4.271  53.708  1.00  0.00     0.001 A 
HETATM    9  C12 UNL     1      15.784  -4.044  52.920  1.00  0.00     0.002 A 
HETATM   10  C13 UNL     1      15.645  -2.786  52.308  1.00  0.00     0.030 A 
HETATM   11  C14 UNL     1      16.532  -1.701  52.415  1.00  0.00     0.040 A 
HETATM   12  N1  UNL     1      15.863  -0.756  51.602  1.00  0.00    -0.368 N 
HETATM   13  C15 UNL     1      15.133   0.477  51.756  1.00  0.00     0.290 C 
HETATM   14  O1  UNL     1      15.914   1.614  51.668  1.00  0.00    -0.370 OA
HETATM   15  C16 UNL     1      16.473   1.572  50.375  1.00  0.00     0.196 C 
HETATM   16  C17 UNL     1      17.359   2.800  50.117  1.00  0.00     0.133 C 
HETATM   17  C20 UNL     1      18.489   2.789  51.156  1.00  0.00     0.121 C 
HETATM   18  C21 UNL     1      19.492   3.845  51.015  1.00  0.00     0.130 C 
HETATM   19  N3  UNL     1      20.602   3.842  51.833  1.00  0.00    -0.419 N 
HETATM   20  C22 UNL     1      21.791   3.159  51.659  1.00  0.00     0.126 C 
HETATM   21  C23 UNL     1      18.954   1.457  51.499  1.00  0.00     0.230 C 
HETATM   22  O4  UNL     1      18.968   1.218  52.754  1.00  0.00    -0.273 OA
HETATM   23  N4  UNL     1      19.456   0.073  51.541  1.00  0.00    -0.327 N 
HETATM   24  H14 UNL     1      15.887  -0.970  50.552  1.00  0.00     0.161 HD
HETATM   25  H29 UNL     1      20.503   4.387  52.726  1.00  0.00     0.153 HD
HETATM   26  H32 UNL     1      19.654  -0.443  50.655  1.00  0.00     0.169 HD
ENDROOT
BRANCH  16  27
HETATM   27  N2  UNL     1      16.558   3.943  50.188  1.00  0.00    -0.308 N 
HETATM   28  C18 UNL     1      16.042   4.382  51.415  1.00  0.00     0.163 C 
BRANCH  27  29
HETATM   29  S1  UNL     1      15.734   4.394  48.778  1.00  0.00     0.224 S 
HETATM   30  C19 UNL     1      14.121   4.996  49.266  1.00  0.00     0.186 C 
HETATM   31  O2  UNL     1      15.537   3.279  47.800  1.00  0.00    -0.206 OA
HETATM   32  O3  UNL     1      16.458   5.498  48.063  1.00  0.00    -0.206 OA
ENDBRANCH  27  29
ENDBRANCH  16  27
BRANCH   1  33
HETATM   33  C3  UNL     1      23.423   1.361  51.472  1.00  0.00    -0.021 C 
HETATM   34  C2  UNL     1      24.319   0.905  52.351  1.00  0.00    -0.034 C 
HETATM   35  C1  UNL     1      25.746   0.514  52.479  1.00  0.00     0.036 C 
ENDBRANCH   1  33
TORSDOF 3
ENDMDL
MODEL 9
REMARK VINA RESULT:      -7.8      4.899      9.221
REMARK  3 active torsions:
REMARK  status: ('A' for Active; 'I' for Inactive)
REMARK    1  A    between atoms: C3_3  and  C4_4 
REMARK    2  A    between atoms: C17_19  and  N2_20 
REMARK    3  A    between atoms: N2_20  and  S1_22 
ROOT
HETATM    1  C4  UNL     1      26.029   3.872  50.131  1.00  0.00     0.048 C 
HETATM    2  C5  UNL     1      27.040   4.155  49.125  1.00  0.00    -0.014 C 
HETATM    3  C6  UNL     1      27.692   5.157  48.544  1.00  0.00     0.026 C 
HETATM    4  C7  UNL     1      27.456   6.590  48.886  1.00  0.00     0.035 C 
HETATM    5  C8  UNL     1      28.157   7.532  48.307  1.00  0.00     0.043 C 
HETATM    6  C9  UNL     1      28.155   8.972  48.439  1.00  0.00    -0.008 A 
HETATM    7  C10 UNL     1      29.497   9.381  48.453  1.00  0.00     0.014 A 
HETATM    8  C11 UNL     1      30.016  10.676  48.571  1.00  0.00     0.001 A 
HETATM    9  C12 UNL     1      29.051  11.648  48.687  1.00  0.00     0.002 A 
HETATM   10  C13 UNL     1      27.700  11.257  48.676  1.00  0.00     0.030 A 
HETATM   11  C14 UNL     1      27.211   9.946  48.556  1.00  0.00     0.040 A 
HETATM   12  N1  UNL     1      25.819  10.198  48.608  1.00  0.00    -0.368 N 
HETATM   13  C15 UNL     1      24.682  10.165  47.724  1.00  0.00     0.290 C 
HETATM   14  O1  UNL     1      24.014   8.956  47.703  1.00  0.00    -0.370 OA
HETATM   15  C16 UNL     1      23.570   8.763  49.027  1.00  0.00     0.196 C 
HETATM   16  C17 UNL     1      22.778   7.452  49.157  1.00  0.00     0.133 C 
HETATM   17  C20 UNL     1      23.712   6.299  48.764  1.00  0.00     0.121 C 
HETATM   18  C21 UNL     1      23.156   4.954  48.908  1.00  0.00     0.130 C 
HETATM   19  N3  UNL     1      23.963   3.857  48.688  1.00  0.00    -0.419 N 
HETATM   20  C22 UNL     1      24.817   3.231  49.576  1.00  0.00     0.126 C 
HETATM   21  C23 UNL     1      25.094   6.506  49.161  1.00  0.00     0.230 C 
HETATM   22  O4  UNL     1      25.935   6.365  48.209  1.00  0.00    -0.273 OA
HETATM   23  N4  UNL     1      26.373   6.767  49.842  1.00  0.00    -0.327 N 
HETATM   24  H14 UNL     1      25.452  10.493  49.572  1.00  0.00     0.161 HD
HETATM   25  H29 UNL     1      23.964   3.491  47.703  1.00  0.00     0.153 HD
HETATM   26  H32 UNL     1      26.388   7.034  50.852  1.00  0.00     0.169 HD
ENDROOT
BRANCH  16  27
HETATM   27  N2  UNL     1      21.643   7.541  48.346  1.00  0.00    -0.308 N 
HETATM   28  C18 UNL     1      21.750   7.931  47.004  1.00  0.00     0.163 C 
BRANCH  27  29
HETATM   29  S1  UNL     1      20.159   7.787  49.124  1.00  0.00     0.224 S 
HETATM   30  C19 UNL     1      19.503   6.178  49.554  1.00  0.00     0.186 C 
HETATM   31  O2  UNL     1      19.140   8.496  48.291  1.00  0.00    -0.206 OA
HETATM   32  O3  UNL     1      20.340   8.579  50.387  1.00  0.00    -0.206 OA
ENDBRANCH  27  29
ENDBRANCH  16  27
BRANCH   1  33
HETATM   33  C3  UNL     1      26.692   2.793  51.069  1.00  0.00    -0.021 C 
HETATM   34  C2  UNL     1      26.228   1.591  51.418  1.00  0.00    -0.034 C 
HETATM   35  C1  UNL     1      26.563   0.391  52.228  1.00  0.00     0.036 C 
ENDBRANCH   1  33
TORSDOF 3
ENDMDL
