MODEL 1
REMARK VINA RESULT:      -8.8      0.000      0.000
REMARK  2 active torsions:
REMARK  status: ('A' for Active; 'I' for Inactive)
REMARK    1  A    between atoms: O1_2  and  C2_3 
REMARK    2  A    between atoms: C8_10  and  C9_11 
ROOT
HETATM    1  C2  UNL     1      22.136   2.191  49.277  1.00  0.00     0.069 A 
HETATM    2  C3  UNL     1      23.074   3.176  49.096  1.00  0.00     0.033 A 
HETATM    3  C4  UNL     1      24.054   3.106  50.103  1.00  0.00    -0.011 A 
HETATM    4  C5  UNL     1      24.184   2.225  51.184  1.00  0.00     0.034 A 
HETATM    5  C6  UNL     1      23.121   1.279  51.202  1.00  0.00     0.044 A 
HETATM    6  C7  UNL     1      22.134   1.266  50.279  1.00  0.00     0.064 A 
HETATM    7  N1  UNL     1      23.571   0.736  52.221  1.00  0.00    -0.263 NA
HETATM    8  C8  UNL     1      23.221  -0.346  53.064  1.00  0.00     0.257 C 
HETATM    9  N2  UNL     1      24.414  -0.442  53.990  1.00  0.00    -0.271 NA
HETATM   10  C10 UNL     1      25.574  -0.443  53.461  1.00  0.00     0.125 C 
HETATM   11  C11 UNL     1      27.043  -0.481  53.409  1.00  0.00    -0.011 A 
HETATM   12  C12 UNL     1      27.744  -1.647  53.214  1.00  0.00     0.013 A 
HETATM   13  C13 UNL     1      29.122  -1.645  53.197  1.00  0.00     0.001 A 
HETATM   14  C14 UNL     1      29.676  -0.401  53.389  1.00  0.00     0.001 A 
HETATM   15  C15 UNL     1      28.996   0.777  53.587  1.00  0.00     0.010 A 
HETATM   16  C16 UNL     1      27.613   0.770  53.604  1.00  0.00    -0.029 A 
HETATM   17  C17 UNL     1      26.868   2.031  53.816  1.00  0.00     0.154 C 
HETATM   18  N3  UNL     1      26.198   2.602  52.707  1.00  0.00    -0.410 N 
HETATM   19  C18 UNL     1      25.327   2.825  51.633  1.00  0.00     0.162 C 
HETATM   20  H17 UNL     1      26.541   3.573  52.361  1.00  0.00     0.154 HD
ENDROOT
BRANCH   1  21
HETATM   21  O1  UNL     1      21.051   2.015  48.435  1.00  0.00    -0.356 OA
HETATM   22  C1  UNL     1      19.720   2.273  48.840  1.00  0.00     0.210 C 
ENDBRANCH   1  21
BRANCH   8  23
HETATM   23  C9  UNL     1      22.092  -0.019  54.014  1.00  0.00     0.272 C 
HETATM   24  F1  UNL     1      22.330  -0.725  55.178  1.00  0.00    -0.251 F 
ENDBRANCH   8  23
TORSDOF 2
ENDMDL
MODEL 2
REMARK VINA RESULT:      -8.4      2.588      3.904
REMARK  2 active torsions:
REMARK  status: ('A' for Active; 'I' for Inactive)
REMARK    1  A    between atoms: O1_2  and  C2_3 
REMARK    2  A    between atoms: C8_10  and  C9_11 
ROOT
HETATM    1  C2  UNL     1      20.771   2.414  52.701  1.00  0.00     0.069 A 
HETATM    2  C3  UNL     1      20.816   1.197  53.332  1.00  0.00     0.033 A 
HETATM    3  C4  UNL     1      22.090   0.618  53.184  1.00  0.00    -0.011 A 
HETATM    4  C5  UNL     1      23.231   1.092  52.524  1.00  0.00     0.034 A 
HETATM    5  C6  UNL     1      22.989   2.364  51.935  1.00  0.00     0.044 A 
HETATM    6  C7  UNL     1      21.800   2.999  52.023  1.00  0.00     0.064 A 
HETATM    7  N1  UNL     1      24.145   2.420  51.492  1.00  0.00    -0.263 NA
HETATM    8  C8  UNL     1      24.924   3.327  50.732  1.00  0.00     0.257 C 
HETATM    9  N2  UNL     1      26.301   2.700  50.784  1.00  0.00    -0.271 NA
HETATM   10  C10 UNL     1      26.742   2.335  51.922  1.00  0.00     0.125 C 
HETATM   11  C11 UNL     1      27.687   1.765  52.893  1.00  0.00    -0.011 A 
HETATM   12  C12 UNL     1      28.571   2.540  53.605  1.00  0.00     0.013 A 
HETATM   13  C13 UNL     1      29.460   1.966  54.488  1.00  0.00     0.001 A 
HETATM   14  C14 UNL     1      29.357   0.596  54.563  1.00  0.00     0.001 A 
HETATM   15  C15 UNL     1      28.482  -0.199  53.862  1.00  0.00     0.010 A 
HETATM   16  C16 UNL     1      27.593   0.382  52.977  1.00  0.00    -0.029 A 
HETATM   17  C17 UNL     1      26.646  -0.463  52.215  1.00  0.00     0.154 C 
HETATM   18  N3  UNL     1      25.280  -0.431  52.587  1.00  0.00    -0.410 N 
HETATM   19  C18 UNL     1      23.966  -0.017  52.840  1.00  0.00     0.162 C 
HETATM   20  H17 UNL     1      24.844  -1.349  52.971  1.00  0.00     0.154 HD
ENDROOT
BRANCH   1  21
HETATM   21  O1  UNL     1      19.642   3.215  52.681  1.00  0.00    -0.356 OA
HETATM   22  C1  UNL     1      18.779   3.292  51.563  1.00  0.00     0.210 C 
ENDBRANCH   1  21
BRANCH   8  23
HETATM   23  C9  UNL     1      24.602   3.295  49.256  1.00  0.00     0.272 C 
HETATM   24  F1  UNL     1      24.529   4.610  48.833  1.00  0.00    -0.251 F 
ENDBRANCH   8  23
TORSDOF 2
ENDMDL
MODEL 3
REMARK VINA RESULT:      -7.9      3.081      6.121
REMARK  2 active torsions:
REMARK  status: ('A' for Active; 'I' for Inactive)
REMARK    1  A    between atoms: O1_2  and  C2_3 
REMARK    2  A    between atoms: C8_10  and  C9_11 
ROOT
HETATM    1  C2  UNL     1      25.392  -0.389  54.100  1.00  0.00     0.069 A 
HETATM    2  C3  UNL     1      26.699  -0.075  53.828  1.00  0.00     0.033 A 
HETATM    3  C4  UNL     1      26.768   0.867  52.785  1.00  0.00    -0.011 A 
HETATM    4  C5  UNL     1      25.747   1.477  52.045  1.00  0.00     0.034 A 
HETATM    5  C6  UNL     1      24.467   1.027  52.472  1.00  0.00     0.044 A 
HETATM    6  C7  UNL     1      24.300   0.125  53.465  1.00  0.00     0.064 A 
HETATM    7  N1  UNL     1      23.895   1.744  51.639  1.00  0.00    -0.263 NA
HETATM    8  C8  UNL     1      22.563   2.025  51.249  1.00  0.00     0.257 C 
HETATM    9  N2  UNL     1      22.742   3.159  50.263  1.00  0.00    -0.271 NA
HETATM   10  C10 UNL     1      23.485   4.135  50.611  1.00  0.00     0.125 C 
HETATM   11  C11 UNL     1      24.181   5.423  50.488  1.00  0.00    -0.011 A 
HETATM   12  C12 UNL     1      23.651   6.598  50.964  1.00  0.00     0.013 A 
HETATM   13  C13 UNL     1      24.323   7.790  50.806  1.00  0.00     0.001 A 
HETATM   14  C14 UNL     1      25.524   7.665  50.149  1.00  0.00     0.001 A 
HETATM   15  C15 UNL     1      26.075   6.502  49.663  1.00  0.00     0.010 A 
HETATM   16  C16 UNL     1      25.396   5.308  49.824  1.00  0.00    -0.029 A 
HETATM   17  C17 UNL     1      25.977   4.049  49.306  1.00  0.00     0.154 C 
HETATM   18  N3  UNL     1      26.496   3.123  50.242  1.00  0.00    -0.410 N 
HETATM   19  C18 UNL     1      26.626   2.196  51.284  1.00  0.00     0.162 C 
HETATM   20  H17 UNL     1      27.563   2.918  50.205  1.00  0.00     0.154 HD
ENDROOT
BRANCH   1  21
HETATM   21  O1  UNL     1      25.017  -1.290  55.082  1.00  0.00    -0.356 OA
HETATM   22  C1  UNL     1      23.694  -1.377  55.575  1.00  0.00     0.210 C 
ENDBRANCH   1  21
BRANCH   8  23
HETATM   23  C9  UNL     1      21.953   0.939  50.394  1.00  0.00     0.272 C 
HETATM   24  F1  UNL     1      21.557  -0.072  51.251  1.00  0.00    -0.251 F 
ENDBRANCH   8  23
TORSDOF 2
ENDMDL
MODEL 4
REMARK VINA RESULT:      -7.6      1.432      1.558
REMARK  2 active torsions:
REMARK  status: ('A' for Active; 'I' for Inactive)
REMARK    1  A    between atoms: O1_2  and  C2_3 
REMARK    2  A    between atoms: C8_10  and  C9_11 
ROOT
HETATM    1  C2  UNL     1      21.913   2.853  48.165  1.00  0.00     0.069 A 
HETATM    2  C3  UNL     1      22.946   3.753  48.107  1.00  0.00     0.033 A 
HETATM    3  C4  UNL     1      23.768   3.627  49.242  1.00  0.00    -0.011 A 
HETATM    4  C5  UNL     1      23.670   2.764  50.342  1.00  0.00     0.034 A 
HETATM    5  C6  UNL     1      22.539   1.909  50.221  1.00  0.00     0.044 A 
HETATM    6  C7  UNL     1      21.693   1.956  49.168  1.00  0.00     0.064 A 
HETATM    7  N1  UNL     1      22.795   1.356  51.299  1.00  0.00    -0.263 NA
HETATM    8  C8  UNL     1      22.240   0.326  52.097  1.00  0.00     0.257 C 
HETATM    9  N2  UNL     1      23.280   0.154  53.183  1.00  0.00    -0.271 NA
HETATM   10  C10 UNL     1      24.499   0.046  52.823  1.00  0.00     0.125 C 
HETATM   11  C11 UNL     1      25.952  -0.114  52.979  1.00  0.00    -0.011 A 
HETATM   12  C12 UNL     1      26.572  -1.337  52.898  1.00  0.00     0.013 A 
HETATM   13  C13 UNL     1      27.934  -1.450  53.076  1.00  0.00     0.001 A 
HETATM   14  C14 UNL     1      28.559  -0.251  53.329  1.00  0.00     0.001 A 
HETATM   15  C15 UNL     1      27.960   0.983  53.415  1.00  0.00     0.010 A 
HETATM   16  C16 UNL     1      26.593   1.091  53.237  1.00  0.00    -0.029 A 
HETATM   17  C17 UNL     1      25.935   2.413  53.328  1.00  0.00     0.154 C 
HETATM   18  N3  UNL     1      25.477   3.010  52.128  1.00  0.00    -0.410 N 
HETATM   19  C18 UNL     1      24.786   3.278  50.940  1.00  0.00     0.162 C 
HETATM   20  H17 UNL     1      25.945   3.942  51.822  1.00  0.00     0.154 HD
ENDROOT
BRANCH   1  21
HETATM   21  O1  UNL     1      20.944   2.747  47.181  1.00  0.00    -0.356 OA
HETATM   22  C1  UNL     1      19.598   3.126  47.390  1.00  0.00     0.210 C 
ENDBRANCH   1  21
BRANCH   8  23
HETATM   23  C9  UNL     1      21.022   0.768  52.875  1.00  0.00     0.272 C 
HETATM   24  F1  UNL     1      20.068   1.143  51.947  1.00  0.00    -0.251 F 
ENDBRANCH   8  23
TORSDOF 2
ENDMDL
MODEL 5
REMARK VINA RESULT:      -7.5      3.026      7.051
REMARK  2 active torsions:
REMARK  status: ('A' for Active; 'I' for Inactive)
REMARK    1  A    between atoms: O1_2  and  C2_3 
REMARK    2  A    between atoms: C8_10  and  C9_11 
ROOT
HETATM    1  C2  UNL     1      26.819   0.072  52.912  1.00  0.00     0.069 A 
HETATM    2  C3  UNL     1      26.327  -1.018  53.583  1.00  0.00     0.033 A 
HETATM    3  C4  UNL     1      24.947  -0.866  53.814  1.00  0.00    -0.011 A 
HETATM    4  C5  UNL     1      24.079   0.180  53.472  1.00  0.00     0.034 A 
HETATM    5  C6  UNL     1      24.772   1.214  52.783  1.00  0.00     0.044 A 
HETATM    6  C7  UNL     1      26.095   1.158  52.515  1.00  0.00     0.064 A 
HETATM    7  N1  UNL     1      23.736   1.884  52.671  1.00  0.00    -0.263 NA
HETATM    8  C8  UNL     1      23.360   3.131  52.114  1.00  0.00     0.257 C 
HETATM    9  N2  UNL     1      21.853   3.113  52.257  1.00  0.00    -0.271 NA
HETATM   10  C10 UNL     1      21.234   2.069  51.868  1.00  0.00     0.125 C 
HETATM   11  C11 UNL     1      20.085   1.190  51.607  1.00  0.00    -0.011 A 
HETATM   12  C12 UNL     1      19.460   1.136  50.384  1.00  0.00     0.013 A 
HETATM   13  C13 UNL     1      18.369   0.318  50.186  1.00  0.00     0.001 A 
HETATM   14  C14 UNL     1      18.006  -0.399  51.302  1.00  0.00     0.001 A 
HETATM   15  C15 UNL     1      18.615  -0.362  52.534  1.00  0.00     0.010 A 
HETATM   16  C16 UNL     1      19.709   0.461  52.728  1.00  0.00    -0.029 A 
HETATM   17  C17 UNL     1      20.374   0.511  54.049  1.00  0.00     0.154 C 
HETATM   18  N3  UNL     1      21.642  -0.106  54.178  1.00  0.00    -0.410 N 
HETATM   19  C18 UNL     1      22.997  -0.433  54.039  1.00  0.00     0.162 C 
HETATM   20  H17 UNL     1      21.720  -0.956  54.849  1.00  0.00     0.154 HD
ENDROOT
BRANCH   1  21
HETATM   21  O1  UNL     1      28.148   0.200  52.546  1.00  0.00    -0.356 OA
HETATM   22  C1  UNL     1      29.190   0.352  53.491  1.00  0.00     0.210 C 
ENDBRANCH   1  21
BRANCH   8  23
HETATM   23  C9  UNL     1      23.759   4.310  52.970  1.00  0.00     0.272 C 
HETATM   24  F1  UNL     1      22.663   5.151  53.031  1.00  0.00    -0.251 F 
ENDBRANCH   8  23
TORSDOF 2
ENDMDL
MODEL 6
REMARK VINA RESULT:      -7.0      4.861      7.698
REMARK  2 active torsions:
REMARK  status: ('A' for Active; 'I' for Inactive)
REMARK    1  A    between atoms: O1_2  and  C2_3 
REMARK    2  A    between atoms: C8_10  and  C9_11 
ROOT
HETATM    1  C2  UNL     1      28.300   6.721  47.692  1.00  0.00     0.069 A 
HETATM    2  C3  UNL     1      28.795   5.506  48.095  1.00  0.00     0.033 A 
HETATM    3  C4  UNL     1      27.812   4.790  48.803  1.00  0.00    -0.011 A 
HETATM    4  C5  UNL     1      26.492   5.135  49.124  1.00  0.00     0.034 A 
HETATM    5  C6  UNL     1      26.165   6.426  48.622  1.00  0.00     0.044 A 
HETATM    6  C7  UNL     1      27.042   7.188  47.931  1.00  0.00     0.064 A 
HETATM    7  N1  UNL     1      25.017   6.355  49.082  1.00  0.00    -0.263 NA
HETATM    8  C8  UNL     1      23.859   7.169  49.116  1.00  0.00     0.257 C 
HETATM    9  N2  UNL     1      22.828   6.248  49.733  1.00  0.00    -0.271 NA
HETATM   10  C10 UNL     1      22.722   5.073  49.252  1.00  0.00     0.125 C 
HETATM   11  C11 UNL     1      22.203   3.704  49.112  1.00  0.00    -0.011 A 
HETATM   12  C12 UNL     1      21.213   3.379  48.216  1.00  0.00     0.013 A 
HETATM   13  C13 UNL     1      20.734   2.090  48.132  1.00  0.00     0.001 A 
HETATM   14  C14 UNL     1      21.338   1.218  49.008  1.00  0.00     0.001 A 
HETATM   15  C15 UNL     1      22.329   1.520  49.912  1.00  0.00     0.010 A 
HETATM   16  C16 UNL     1      22.805   2.815  49.993  1.00  0.00    -0.029 A 
HETATM   17  C17 UNL     1      23.872   3.154  50.962  1.00  0.00     0.154 C 
HETATM   18  N3  UNL     1      25.171   3.406  50.458  1.00  0.00    -0.410 N 
HETATM   19  C18 UNL     1      26.266   3.960  49.784  1.00  0.00     0.162 C 
HETATM   20  H17 UNL     1      25.963   2.722  50.752  1.00  0.00     0.154 HD
ENDROOT
BRANCH   1  21
HETATM   21  O1  UNL     1      29.044   7.641  46.973  1.00  0.00    -0.356 OA
HETATM   22  C1  UNL     1      28.464   8.762  46.336  1.00  0.00     0.210 C 
ENDBRANCH   1  21
BRANCH   8  23
HETATM   23  C9  UNL     1      23.949   8.288  50.128  1.00  0.00     0.272 C 
HETATM   24  F1  UNL     1      24.001   7.696  51.377  1.00  0.00    -0.251 F 
ENDBRANCH   8  23
TORSDOF 2
ENDMDL
MODEL 7
REMARK VINA RESULT:      -7.0      8.527      9.913
REMARK  2 active torsions:
REMARK  status: ('A' for Active; 'I' for Inactive)
REMARK    1  A    between atoms: O1_2  and  C2_3 
REMARK    2  A    between atoms: C8_10  and  C9_11 
ROOT
HETATM    1  C2  UNL     1      28.474  11.346  48.214  1.00  0.00     0.069 A 
HETATM    2  C3  UNL     1      29.620  11.689  48.885  1.00  0.00     0.033 A 
HETATM    3  C4  UNL     1      30.338  10.534  49.246  1.00  0.00    -0.011 A 
HETATM    4  C5  UNL     1      30.051   9.180  49.024  1.00  0.00     0.034 A 
HETATM    5  C6  UNL     1      28.827   9.027  48.315  1.00  0.00     0.044 A 
HETATM    6  C7  UNL     1      28.068  10.076  47.925  1.00  0.00     0.064 A 
HETATM    7  N1  UNL     1      28.933   7.793  48.323  1.00  0.00    -0.263 NA
HETATM    8  C8  UNL     1      28.192   6.683  47.849  1.00  0.00     0.257 C 
HETATM    9  N2  UNL     1      29.124   5.523  48.129  1.00  0.00    -0.271 NA
HETATM   10  C10 UNL     1      30.338   5.637  47.758  1.00  0.00     0.125 C 
HETATM   11  C11 UNL     1      31.743   5.248  47.569  1.00  0.00    -0.011 A 
HETATM   12  C12 UNL     1      32.199   4.672  46.408  1.00  0.00     0.013 A 
HETATM   13  C13 UNL     1      33.519   4.297  46.278  1.00  0.00     0.001 A 
HETATM   14  C14 UNL     1      34.279   4.555  47.394  1.00  0.00     0.001 A 
HETATM   15  C15 UNL     1      33.846   5.128  48.566  1.00  0.00     0.010 A 
HETATM   16  C16 UNL     1      32.521   5.503  48.692  1.00  0.00    -0.029 A 
HETATM   17  C17 UNL     1      32.040   6.121  49.948  1.00  0.00     0.154 C 
HETATM   18  N3  UNL     1      31.749   7.507  49.937  1.00  0.00    -0.410 N 
HETATM   19  C18 UNL     1      31.182   8.758  49.664  1.00  0.00     0.162 C 
HETATM   20  H17 UNL     1      32.357   8.151  50.566  1.00  0.00     0.154 HD
ENDROOT
BRANCH   1  21
HETATM   21  O1  UNL     1      27.569  12.278  47.734  1.00  0.00    -0.356 OA
HETATM   22  C1  UNL     1      27.490  13.597  48.238  1.00  0.00     0.210 C 
ENDBRANCH   1  21
BRANCH   8  23
HETATM   23  C9  UNL     1      26.994   6.357  48.710  1.00  0.00     0.272 C 
HETATM   24  F1  UNL     1      26.747   5.005  48.559  1.00  0.00    -0.251 F 
ENDBRANCH   8  23
TORSDOF 2
ENDMDL
MODEL 8
REMARK VINA RESULT:      -7.0      3.183      7.252
REMARK  2 active torsions:
REMARK  status: ('A' for Active; 'I' for Inactive)
REMARK    1  A    between atoms: O1_2  and  C2_3 
REMARK    2  A    between atoms: C8_10  and  C9_11 
ROOT
HETATM    1  C2  UNL     1      26.267  -0.463  53.035  1.00  0.00     0.069 A 
HETATM    2  C3  UNL     1      25.193  -0.470  53.888  1.00  0.00     0.033 A 
HETATM    3  C4  UNL     1      24.264   0.517  53.511  1.00  0.00    -0.011 A 
HETATM    4  C5  UNL     1      24.296   1.437  52.455  1.00  0.00     0.034 A 
HETATM    5  C6  UNL     1      25.482   1.289  51.684  1.00  0.00     0.044 A 
HETATM    6  C7  UNL     1      26.432   0.370  51.968  1.00  0.00     0.064 A 
HETATM    7  N1  UNL     1      25.146   2.205  50.921  1.00  0.00    -0.263 NA
HETATM    8  C8  UNL     1      25.674   2.852  49.778  1.00  0.00     0.257 C 
HETATM    9  N2  UNL     1      24.536   3.757  49.357  1.00  0.00    -0.271 NA
HETATM   10  C10 UNL     1      23.372   3.244  49.274  1.00  0.00     0.125 C 
HETATM   11  C11 UNL     1      21.923   3.196  49.031  1.00  0.00    -0.011 A 
HETATM   12  C12 UNL     1      21.389   2.812  47.824  1.00  0.00     0.013 A 
HETATM   13  C13 UNL     1      20.026   2.805  47.627  1.00  0.00     0.001 A 
HETATM   14  C14 UNL     1      19.305   3.207  48.727  1.00  0.00     0.001 A 
HETATM   15  C15 UNL     1      19.816   3.595  49.944  1.00  0.00     0.010 A 
HETATM   16  C16 UNL     1      21.185   3.601  50.136  1.00  0.00    -0.029 A 
HETATM   17  C17 UNL     1      21.749   4.017  51.440  1.00  0.00     0.154 C 
HETATM   18  N3  UNL     1      22.296   3.014  52.277  1.00  0.00    -0.410 N 
HETATM   19  C18 UNL     1      23.093   1.987  52.799  1.00  0.00     0.162 C 
HETATM   20  H17 UNL     1      21.808   2.837  53.232  1.00  0.00     0.154 HD
ENDROOT
BRANCH   1  21
HETATM   21  O1  UNL     1      27.340  -1.329  53.160  1.00  0.00    -0.356 OA
HETATM   22  C1  UNL     1      28.661  -0.881  53.391  1.00  0.00     0.210 C 
ENDBRANCH   1  21
BRANCH   8  23
HETATM   23  C9  UNL     1      26.773   3.836  50.106  1.00  0.00     0.272 C 
HETATM   24  F1  UNL     1      27.407   4.141  48.915  1.00  0.00    -0.251 F 
ENDBRANCH   8  23
TORSDOF 2
ENDMDL
MODEL 9
REMARK VINA RESULT:      -6.8      2.387      3.241
REMARK  2 active torsions:
REMARK  status: ('A' for Active; 'I' for Inactive)
REMARK    1  A    between atoms: O1_2  and  C2_3 
REMARK    2  A    between atoms: C8_10  and  C9_11 
ROOT
HETATM    1  C2  UNL     1      22.600   5.038  47.379  1.00  0.00     0.069 A 
HETATM    2  C3  UNL     1      23.368   5.998  47.987  1.00  0.00     0.033 A 
HETATM    3  C4  UNL     1      23.753   5.573  49.272  1.00  0.00    -0.011 A 
HETATM    4  C5  UNL     1      23.471   4.384  49.957  1.00  0.00     0.034 A 
HETATM    5  C6  UNL     1      22.666   3.518  49.167  1.00  0.00     0.044 A 
HETATM    6  C7  UNL     1      22.247   3.838  47.922  1.00  0.00     0.064 A 
HETATM    7  N1  UNL     1      22.647   2.659  50.059  1.00  0.00    -0.263 NA
HETATM    8  C8  UNL     1      22.088   1.373  50.253  1.00  0.00     0.257 C 
HETATM    9  N2  UNL     1      22.699   0.943  51.569  1.00  0.00    -0.271 NA
HETATM   10  C10 UNL     1      23.959   1.078  51.708  1.00  0.00     0.125 C 
HETATM   11  C11 UNL     1      25.266   1.013  52.377  1.00  0.00    -0.011 A 
HETATM   12  C12 UNL     1      26.127  -0.047  52.215  1.00  0.00     0.013 A 
HETATM   13  C13 UNL     1      27.333  -0.084  52.880  1.00  0.00     0.001 A 
HETATM   14  C14 UNL     1      27.556   1.012  53.681  1.00  0.00     0.001 A 
HETATM   15  C15 UNL     1      26.712   2.082  53.860  1.00  0.00     0.010 A 
HETATM   16  C16 UNL     1      25.502   2.114  53.191  1.00  0.00    -0.029 A 
HETATM   17  C17 UNL     1      24.583   3.260  53.373  1.00  0.00     0.154 C 
HETATM   18  N3  UNL     1      24.450   4.181  52.306  1.00  0.00    -0.410 N 
HETATM   19  C18 UNL     1      24.172   4.769  51.066  1.00  0.00     0.162 C 
HETATM   20  H17 UNL     1      24.781   5.201  52.481  1.00  0.00     0.154 HD
ENDROOT
BRANCH   1  21
HETATM   21  O1  UNL     1      22.079   5.179  46.104  1.00  0.00    -0.356 OA
HETATM   22  C1  UNL     1      21.272   6.277  45.726  1.00  0.00     0.210 C 
ENDBRANCH   1  21
BRANCH   8  23
HETATM   23  C9  UNL     1      20.611   1.408  50.572  1.00  0.00     0.272 C 
HETATM   24  F1  UNL     1      20.410   2.478  51.425  1.00  0.00    -0.251 F 
ENDBRANCH   8  23
TORSDOF 2
ENDMDL
