MODEL 1
REMARK VINA RESULT:      -7.5      0.000      0.000
REMARK  3 active torsions:
REMARK  status: ('A' for Active; 'I' for Inactive)
REMARK    1  A    between atoms: O1_2  and  C2_3 
REMARK    2  A    between atoms: C3_4  and  C4_5 
REMARK       I    between atoms: C4_5  and  N1_7 
REMARK    3  A    between atoms: C5_8  and  C6_9 
ROOT
HETATM    1  C6  UNL     1      25.640   3.203  50.833  1.00  0.00    -0.018 A 
HETATM    2  C7  UNL     1      24.374   3.098  51.330  1.00  0.00     0.015 A 
HETATM    3  C8  UNL     1      23.990   1.989  52.078  1.00  0.00     0.033 A 
HETATM    4  C9  UNL     1      24.871   0.956  52.347  1.00  0.00     0.066 A 
HETATM    5  N2  UNL     1      24.558  -0.139  53.063  1.00  0.00    -0.259 NA
HETATM    6  C10 UNL     1      25.459  -1.100  53.283  1.00  0.00     0.140 A 
HETATM    7  C11 UNL     1      26.761  -1.042  52.800  1.00  0.00     0.063 A 
HETATM    8  C12 UNL     1      27.738  -2.066  53.031  1.00  0.00     0.101 C 
HETATM    9  N3  UNL     1      28.526  -2.890  53.229  1.00  0.00    -0.191 NA
HETATM   10  C13 UNL     1      27.100   0.065  52.069  1.00  0.00     0.038 A 
HETATM   11  C14 UNL     1      26.167   1.040  51.851  1.00  0.00    -0.005 A 
HETATM   12  C15 UNL     1      26.487   2.154  51.122  1.00  0.00     0.026 A 
ENDROOT
BRANCH   1  13
HETATM   13  C5  UNL     1      26.102   4.326  50.050  1.00  0.00     0.132 C 
HETATM   14  N1  UNL     1      27.162   4.248  49.326  1.00  0.00    -0.214 NA
HETATM   15  C4  UNL     1      27.637   5.342  48.545  1.00  0.00     0.324 C 
HETATM   16  O2  UNL     1      26.808   6.200  48.127  1.00  0.00    -0.256 OA
BRANCH  15  17
HETATM   17  C3  UNL     1      29.023   5.516  48.211  1.00  0.00     0.027 C 
HETATM   18  C2  UNL     1      30.191   5.644  47.939  1.00  0.00     0.064 C 
BRANCH  18  19
HETATM   19  O1  UNL     1      31.539   5.783  47.646  1.00  0.00    -0.308 OA
HETATM   20  C1  UNL     1      32.512   4.883  48.184  1.00  0.00     0.223 C 
ENDBRANCH  18  19
ENDBRANCH  15  17
ENDBRANCH   1  13
TORSDOF 3
ENDMDL
MODEL 2
REMARK VINA RESULT:      -7.5      1.786      2.980
REMARK  3 active torsions:
REMARK  status: ('A' for Active; 'I' for Inactive)
REMARK    1  A    between atoms: O1_2  and  C2_3 
REMARK    2  A    between atoms: C3_4  and  C4_5 
REMARK       I    between atoms: C4_5  and  N1_7 
REMARK    3  A    between atoms: C5_8  and  C6_9 
ROOT
HETATM    1  C6  UNL     1      26.037   2.392  51.763  1.00  0.00    -0.018 A 
HETATM    2  C7  UNL     1      27.174   1.902  52.335  1.00  0.00     0.015 A 
HETATM    3  C8  UNL     1      27.119   0.858  53.253  1.00  0.00     0.033 A 
HETATM    4  C9  UNL     1      25.917   0.278  53.620  1.00  0.00     0.066 A 
HETATM    5  N2  UNL     1      25.800  -0.732  54.501  1.00  0.00    -0.259 NA
HETATM    6  C10 UNL     1      24.607  -1.245  54.809  1.00  0.00     0.140 A 
HETATM    7  C11 UNL     1      23.418  -0.782  54.255  1.00  0.00     0.063 A 
HETATM    8  C12 UNL     1      22.130  -1.324  54.578  1.00  0.00     0.101 C 
HETATM    9  N3  UNL     1      21.094  -1.772  54.833  1.00  0.00    -0.191 NA
HETATM   10  C13 UNL     1      23.515   0.246  53.356  1.00  0.00     0.038 A 
HETATM   11  C14 UNL     1      24.744   0.761  53.050  1.00  0.00    -0.005 A 
HETATM   12  C15 UNL     1      24.860   1.789  52.153  1.00  0.00     0.026 A 
ENDROOT
BRANCH   1  13
HETATM   13  C5  UNL     1      26.024   3.473  50.804  1.00  0.00     0.132 C 
HETATM   14  N1  UNL     1      26.982   3.634  49.961  1.00  0.00    -0.214 NA
HETATM   15  C4  UNL     1      26.991   4.692  49.007  1.00  0.00     0.324 C 
HETATM   16  O2  UNL     1      25.887   5.163  48.606  1.00  0.00    -0.256 OA
BRANCH  15  17
HETATM   17  C3  UNL     1      28.202   5.252  48.476  1.00  0.00     0.027 C 
HETATM   18  C2  UNL     1      29.229   5.720  48.049  1.00  0.00     0.064 C 
BRANCH  18  19
HETATM   19  O1  UNL     1      30.410   6.270  47.578  1.00  0.00    -0.308 OA
HETATM   20  C1  UNL     1      31.332   6.917  48.460  1.00  0.00     0.223 C 
ENDBRANCH  18  19
ENDBRANCH  15  17
ENDBRANCH   1  13
TORSDOF 3
ENDMDL
MODEL 3
REMARK VINA RESULT:      -7.5      6.742     10.371
REMARK  3 active torsions:
REMARK  status: ('A' for Active; 'I' for Inactive)
REMARK    1  A    between atoms: O1_2  and  C2_3 
REMARK    2  A    between atoms: C3_4  and  C4_5 
REMARK       I    between atoms: C4_5  and  N1_7 
REMARK    3  A    between atoms: C5_8  and  C6_9 
ROOT
HETATM    1  C6  UNL     1      21.575  -0.900  53.904  1.00  0.00    -0.018 A 
HETATM    2  C7  UNL     1      22.066  -1.603  54.965  1.00  0.00     0.015 A 
HETATM    3  C8  UNL     1      23.406  -1.504  55.329  1.00  0.00     0.033 A 
HETATM    4  C9  UNL     1      24.288  -0.696  54.634  1.00  0.00     0.066 A 
HETATM    5  N2  UNL     1      25.592  -0.560  54.937  1.00  0.00    -0.259 NA
HETATM    6  C10 UNL     1      26.387   0.239  54.223  1.00  0.00     0.140 A 
HETATM    7  C11 UNL     1      25.937   0.977  53.133  1.00  0.00     0.063 A 
HETATM    8  C12 UNL     1      26.782   1.839  52.358  1.00  0.00     0.101 C 
HETATM    9  N3  UNL     1      27.464   2.543  51.742  1.00  0.00    -0.191 NA
HETATM   10  C13 UNL     1      24.613   0.853  52.808  1.00  0.00     0.038 A 
HETATM   11  C14 UNL     1      23.811   0.031  53.549  1.00  0.00    -0.005 A 
HETATM   12  C15 UNL     1      22.484  -0.105  53.238  1.00  0.00     0.026 A 
ENDROOT
BRANCH   1  13
HETATM   13  C5  UNL     1      20.197  -0.956  53.475  1.00  0.00     0.132 C 
HETATM   14  N1  UNL     1      19.385  -1.839  53.938  1.00  0.00    -0.214 NA
HETATM   15  C4  UNL     1      18.022  -1.914  53.529  1.00  0.00     0.324 C 
HETATM   16  O2  UNL     1      17.443  -0.860  53.135  1.00  0.00    -0.256 OA
BRANCH  15  17
HETATM   17  C3  UNL     1      17.270  -3.137  53.543  1.00  0.00     0.027 C 
HETATM   18  C2  UNL     1      16.657  -4.176  53.550  1.00  0.00     0.064 C 
BRANCH  18  19
HETATM   19  O1  UNL     1      15.964  -5.376  53.542  1.00  0.00    -0.308 OA
HETATM   20  C1  UNL     1      15.471  -5.958  54.752  1.00  0.00     0.223 C 
ENDBRANCH  18  19
ENDBRANCH  15  17
ENDBRANCH   1  13
TORSDOF 3
ENDMDL
MODEL 4
REMARK VINA RESULT:      -7.4      2.713      4.533
REMARK  3 active torsions:
REMARK  status: ('A' for Active; 'I' for Inactive)
REMARK    1  A    between atoms: O1_2  and  C2_3 
REMARK    2  A    between atoms: C3_4  and  C4_5 
REMARK       I    between atoms: C4_5  and  N1_7 
REMARK    3  A    between atoms: C5_8  and  C6_9 
ROOT
HETATM    1  C6  UNL     1      26.507   1.582  51.922  1.00  0.00    -0.018 A 
HETATM    2  C7  UNL     1      27.464   1.264  52.840  1.00  0.00     0.015 A 
HETATM    3  C8  UNL     1      27.161   0.470  53.942  1.00  0.00     0.033 A 
HETATM    4  C9  UNL     1      25.885  -0.025  54.150  1.00  0.00     0.066 A 
HETATM    5  N2  UNL     1      25.532  -0.796  55.195  1.00  0.00    -0.259 NA
HETATM    6  C10 UNL     1      24.281  -1.239  55.334  1.00  0.00     0.140 A 
HETATM    7  C11 UNL     1      23.269  -0.945  54.427  1.00  0.00     0.063 A 
HETATM    8  C12 UNL     1      21.921  -1.415  54.565  1.00  0.00     0.101 C 
HETATM    9  N3  UNL     1      20.837  -1.807  54.674  1.00  0.00    -0.191 NA
HETATM   10  C13 UNL     1      23.607  -0.162  53.357  1.00  0.00     0.038 A 
HETATM   11  C14 UNL     1      24.893   0.285  53.228  1.00  0.00    -0.005 A 
HETATM   12  C15 UNL     1      25.250   1.070  52.163  1.00  0.00     0.026 A 
ENDROOT
BRANCH   1  13
HETATM   13  C5  UNL     1      26.755   2.399  50.757  1.00  0.00     0.132 C 
HETATM   14  N1  UNL     1      26.210   3.556  50.621  1.00  0.00    -0.214 NA
HETATM   15  C4  UNL     1      26.439   4.380  49.481  1.00  0.00     0.324 C 
HETATM   16  O2  UNL     1      27.531   4.265  48.853  1.00  0.00    -0.256 OA
BRANCH  15  17
HETATM   17  C3  UNL     1      25.482   5.341  49.008  1.00  0.00     0.027 C 
HETATM   18  C2  UNL     1      24.670   6.132  48.598  1.00  0.00     0.064 C 
BRANCH  18  19
HETATM   19  O1  UNL     1      23.739   7.034  48.106  1.00  0.00    -0.308 OA
HETATM   20  C1  UNL     1      22.694   6.616  47.224  1.00  0.00     0.223 C 
ENDBRANCH  18  19
ENDBRANCH  15  17
ENDBRANCH   1  13
TORSDOF 3
ENDMDL
MODEL 5
REMARK VINA RESULT:      -7.3      3.340      7.532
REMARK  3 active torsions:
REMARK  status: ('A' for Active; 'I' for Inactive)
REMARK    1  A    between atoms: O1_2  and  C2_3 
REMARK    2  A    between atoms: C3_4  and  C4_5 
REMARK       I    between atoms: C4_5  and  N1_7 
REMARK    3  A    between atoms: C5_8  and  C6_9 
ROOT
HETATM    1  C6  UNL     1      25.859   4.187  49.603  1.00  0.00    -0.018 A 
HETATM    2  C7  UNL     1      25.029   5.239  49.350  1.00  0.00     0.015 A 
HETATM    3  C8  UNL     1      25.499   6.381  48.707  1.00  0.00     0.033 A 
HETATM    4  C9  UNL     1      26.817   6.494  48.301  1.00  0.00     0.066 A 
HETATM    5  N2  UNL     1      27.328   7.570  47.677  1.00  0.00    -0.259 NA
HETATM    6  C10 UNL     1      28.611   7.612  47.313  1.00  0.00     0.140 A 
HETATM    7  C11 UNL     1      29.499   6.567  47.547  1.00  0.00     0.063 A 
HETATM    8  C12 UNL     1      30.880   6.600  47.161  1.00  0.00     0.101 C 
HETATM    9  N3  UNL     1      31.991   6.626  46.837  1.00  0.00    -0.191 NA
HETATM   10  C13 UNL     1      28.999   5.463  48.181  1.00  0.00     0.038 A 
HETATM   11  C14 UNL     1      27.682   5.434  48.548  1.00  0.00    -0.005 A 
HETATM   12  C15 UNL     1      27.164   4.337  49.184  1.00  0.00     0.026 A 
ENDROOT
BRANCH   1  13
HETATM   13  C5  UNL     1      25.436   2.975  50.265  1.00  0.00     0.132 C 
HETATM   14  N1  UNL     1      26.140   2.439  51.198  1.00  0.00    -0.214 NA
HETATM   15  C4  UNL     1      25.744   1.243  51.865  1.00  0.00     0.324 C 
HETATM   16  O2  UNL     1      24.511   0.971  51.950  1.00  0.00    -0.256 OA
BRANCH  15  17
HETATM   17  C3  UNL     1      26.683   0.328  52.449  1.00  0.00     0.027 C 
HETATM   18  C2  UNL     1      27.464  -0.457  52.927  1.00  0.00     0.064 C 
BRANCH  18  19
HETATM   19  O1  UNL     1      28.345  -1.374  53.479  1.00  0.00    -0.308 OA
HETATM   20  C1  UNL     1      29.739  -1.081  53.605  1.00  0.00     0.223 C 
ENDBRANCH  18  19
ENDBRANCH  15  17
ENDBRANCH   1  13
TORSDOF 3
ENDMDL
MODEL 6
REMARK VINA RESULT:      -7.2      5.267      8.080
REMARK  3 active torsions:
REMARK  status: ('A' for Active; 'I' for Inactive)
REMARK    1  A    between atoms: O1_2  and  C2_3 
REMARK    2  A    between atoms: C3_4  and  C4_5 
REMARK       I    between atoms: C4_5  and  N1_7 
REMARK    3  A    between atoms: C5_8  and  C6_9 
ROOT
HETATM    1  C6  UNL     1      23.432   1.503  52.279  1.00  0.00    -0.018 A 
HETATM    2  C7  UNL     1      23.775   2.691  52.856  1.00  0.00     0.015 A 
HETATM    3  C8  UNL     1      25.025   2.865  53.442  1.00  0.00     0.033 A 
HETATM    4  C9  UNL     1      25.964   1.848  53.464  1.00  0.00     0.066 A 
HETATM    5  N2  UNL     1      27.186   1.957  54.016  1.00  0.00    -0.259 NA
HETATM    6  C10 UNL     1      28.043   0.934  54.001  1.00  0.00     0.140 A 
HETATM    7  C11 UNL     1      27.743  -0.296  53.427  1.00  0.00     0.063 A 
HETATM    8  C12 UNL     1      28.656  -1.403  53.404  1.00  0.00     0.101 C 
HETATM    9  N3  UNL     1      29.399  -2.290  53.379  1.00  0.00    -0.191 NA
HETATM   10  C13 UNL     1      26.504  -0.428  52.860  1.00  0.00     0.038 A 
HETATM   11  C14 UNL     1      25.637   0.628  52.882  1.00  0.00    -0.005 A 
HETATM   12  C15 UNL     1      24.393   0.515  52.320  1.00  0.00     0.026 A 
ENDROOT
BRANCH   1  13
HETATM   13  C5  UNL     1      22.153   1.256  51.653  1.00  0.00     0.132 C 
HETATM   14  N1  UNL     1      21.122   0.921  52.344  1.00  0.00    -0.214 NA
HETATM   15  C4  UNL     1      19.851   0.672  51.749  1.00  0.00     0.324 C 
HETATM   16  O2  UNL     1      19.559   1.255  50.665  1.00  0.00    -0.256 OA
BRANCH  15  17
HETATM   17  C3  UNL     1      18.880  -0.215  52.325  1.00  0.00     0.027 C 
HETATM   18  C2  UNL     1      18.071  -0.954  52.830  1.00  0.00     0.064 C 
BRANCH  18  19
HETATM   19  O1  UNL     1      17.156  -1.809  53.425  1.00  0.00    -0.308 OA
HETATM   20  C1  UNL     1      17.450  -3.196  53.614  1.00  0.00     0.223 C 
ENDBRANCH  18  19
ENDBRANCH  15  17
ENDBRANCH   1  13
TORSDOF 3
ENDMDL
MODEL 7
REMARK VINA RESULT:      -7.2      1.505      2.347
REMARK  3 active torsions:
REMARK  status: ('A' for Active; 'I' for Inactive)
REMARK    1  A    between atoms: O1_2  and  C2_3 
REMARK    2  A    between atoms: C3_4  and  C4_5 
REMARK       I    between atoms: C4_5  and  N1_7 
REMARK    3  A    between atoms: C5_8  and  C6_9 
ROOT
HETATM    1  C6  UNL     1      26.352   4.592  49.317  1.00  0.00    -0.018 A 
HETATM    2  C7  UNL     1      25.007   4.756  49.152  1.00  0.00     0.015 A 
HETATM    3  C8  UNL     1      24.102   3.900  49.773  1.00  0.00     0.033 A 
HETATM    4  C9  UNL     1      24.525   2.856  50.577  1.00  0.00     0.066 A 
HETATM    5  N2  UNL     1      23.699   1.998  51.201  1.00  0.00    -0.259 NA
HETATM    6  C10 UNL     1      24.177   1.011  51.963  1.00  0.00     0.140 A 
HETATM    7  C11 UNL     1      25.537   0.801  52.164  1.00  0.00     0.063 A 
HETATM    8  C12 UNL     1      26.062  -0.256  52.980  1.00  0.00     0.101 C 
HETATM    9  N3  UNL     1      26.482  -1.102  53.649  1.00  0.00    -0.191 NA
HETATM   10  C13 UNL     1      26.394   1.664  51.537  1.00  0.00     0.038 A 
HETATM   11  C14 UNL     1      25.891   2.669  50.760  1.00  0.00    -0.005 A 
HETATM   12  C15 UNL     1      26.734   3.542  50.125  1.00  0.00     0.026 A 
ENDROOT
BRANCH   1  13
HETATM   13  C5  UNL     1      27.344   5.444  48.703  1.00  0.00     0.132 C 
HETATM   14  N1  UNL     1      28.562   5.060  48.561  1.00  0.00    -0.214 NA
HETATM   15  C4  UNL     1      29.558   5.883  47.958  1.00  0.00     0.324 C 
HETATM   16  O2  UNL     1      29.203   6.746  47.105  1.00  0.00    -0.256 OA
BRANCH  15  17
HETATM   17  C3  UNL     1      30.954   5.777  48.277  1.00  0.00     0.027 C 
HETATM   18  C2  UNL     1      32.132   5.692  48.524  1.00  0.00     0.064 C 
BRANCH  18  19
HETATM   19  O1  UNL     1      33.488   5.582  48.790  1.00  0.00    -0.308 OA
HETATM   20  C1  UNL     1      34.381   4.973  47.854  1.00  0.00     0.223 C 
ENDBRANCH  18  19
ENDBRANCH  15  17
ENDBRANCH   1  13
TORSDOF 3
ENDMDL
MODEL 8
REMARK VINA RESULT:      -7.0      3.624      4.121
REMARK  3 active torsions:
REMARK  status: ('A' for Active; 'I' for Inactive)
REMARK    1  A    between atoms: O1_2  and  C2_3 
REMARK    2  A    between atoms: C3_4  and  C4_5 
REMARK       I    between atoms: C4_5  and  N1_7 
REMARK    3  A    between atoms: C5_8  and  C6_9 
ROOT
HETATM    1  C6  UNL     1      22.849   3.624  52.287  1.00  0.00    -0.018 A 
HETATM    2  C7  UNL     1      21.937   2.625  52.109  1.00  0.00     0.015 A 
HETATM    3  C8  UNL     1      22.247   1.309  52.437  1.00  0.00     0.033 A 
HETATM    4  C9  UNL     1      23.483   0.961  52.953  1.00  0.00     0.066 A 
HETATM    5  N2  UNL     1      23.839  -0.292  53.288  1.00  0.00    -0.259 NA
HETATM    6  C10 UNL     1      25.051  -0.556  53.782  1.00  0.00     0.140 A 
HETATM    7  C11 UNL     1      26.017   0.424  53.983  1.00  0.00     0.063 A 
HETATM    8  C12 UNL     1      27.322   0.153  54.512  1.00  0.00     0.101 C 
HETATM    9  N3  UNL     1      28.370  -0.068  54.950  1.00  0.00    -0.191 NA
HETATM   10  C13 UNL     1      25.674   1.706  53.648  1.00  0.00     0.038 A 
HETATM   11  C14 UNL     1      24.429   1.962  53.144  1.00  0.00    -0.005 A 
HETATM   12  C15 UNL     1      24.069   3.238  52.803  1.00  0.00     0.026 A 
ENDROOT
BRANCH   1  13
HETATM   13  C5  UNL     1      22.593   5.009  51.968  1.00  0.00     0.132 C 
HETATM   14  N1  UNL     1      23.373   5.675  51.193  1.00  0.00    -0.214 NA
HETATM   15  C4  UNL     1      23.141   7.042  50.864  1.00  0.00     0.324 C 
HETATM   16  O2  UNL     1      21.954   7.480  50.874  1.00  0.00    -0.256 OA
BRANCH  15  17
HETATM   17  C3  UNL     1      24.197   7.952  50.520  1.00  0.00     0.027 C 
HETATM   18  C2  UNL     1      25.083   8.710  50.210  1.00  0.00     0.064 C 
BRANCH  18  19
HETATM   19  O1  UNL     1      26.109   9.566  49.841  1.00  0.00    -0.308 OA
HETATM   20  C1  UNL     1      27.462   9.313  50.228  1.00  0.00     0.223 C 
ENDBRANCH  18  19
ENDBRANCH  15  17
ENDBRANCH   1  13
TORSDOF 3
ENDMDL
MODEL 9
REMARK VINA RESULT:      -6.8      5.178      7.435
REMARK  3 active torsions:
REMARK  status: ('A' for Active; 'I' for Inactive)
REMARK    1  A    between atoms: O1_2  and  C2_3 
REMARK    2  A    between atoms: C3_4  and  C4_5 
REMARK       I    between atoms: C4_5  and  N1_7 
REMARK    3  A    between atoms: C5_8  and  C6_9 
ROOT
HETATM    1  C6  UNL     1      23.466   1.567  52.258  1.00  0.00    -0.018 A 
HETATM    2  C7  UNL     1      23.829   2.721  52.888  1.00  0.00     0.015 A 
HETATM    3  C8  UNL     1      25.069   2.836  53.510  1.00  0.00     0.033 A 
HETATM    4  C9  UNL     1      25.977   1.791  53.515  1.00  0.00     0.066 A 
HETATM    5  N2  UNL     1      27.188   1.843  54.098  1.00  0.00    -0.259 NA
HETATM    6  C10 UNL     1      28.015   0.796  54.065  1.00  0.00     0.140 A 
HETATM    7  C11 UNL     1      27.694  -0.402  53.437  1.00  0.00     0.063 A 
HETATM    8  C12 UNL     1      28.574  -1.534  53.394  1.00  0.00     0.101 C 
HETATM    9  N3  UNL     1      29.292  -2.441  53.352  1.00  0.00    -0.191 NA
HETATM   10  C13 UNL     1      26.466  -0.475  52.836  1.00  0.00     0.038 A 
HETATM   11  C14 UNL     1      25.630   0.605  52.879  1.00  0.00    -0.005 A 
HETATM   12  C15 UNL     1      24.397   0.550  52.284  1.00  0.00     0.026 A 
ENDROOT
BRANCH   1  13
HETATM   13  C5  UNL     1      22.197   1.382  51.594  1.00  0.00     0.132 C 
HETATM   14  N1  UNL     1      21.298   2.301  51.596  1.00  0.00    -0.214 NA
HETATM   15  C4  UNL     1      20.038   2.141  50.948  1.00  0.00     0.324 C 
HETATM   16  O2  UNL     1      19.958   1.366  49.952  1.00  0.00    -0.256 OA
BRANCH  15  17
HETATM   17  C3  UNL     1      18.849   2.822  51.376  1.00  0.00     0.027 C 
HETATM   18  C2  UNL     1      17.846   3.400  51.715  1.00  0.00     0.064 C 
BRANCH  18  19
HETATM   19  O1  UNL     1      16.698   4.080  52.091  1.00  0.00    -0.308 OA
HETATM   20  C1  UNL     1      15.580   4.196  51.206  1.00  0.00     0.223 C 
ENDBRANCH  18  19
ENDBRANCH  15  17
ENDBRANCH   1  13
TORSDOF 3
ENDMDL
