MODEL 1
REMARK VINA RESULT:      -8.1      0.000      0.000
REMARK  4 active torsions:
REMARK  status: ('A' for Active; 'I' for Inactive)
REMARK    1  A    between atoms: O1_2  and  C2_3 
REMARK    2  A    between atoms: C7_10  and  N3_11 
REMARK    3  A    between atoms: N3_11  and  N4_12 
REMARK    4  A    between atoms: N4_12  and  C8_13 
ROOT
HETATM    1  C2  UNL     1      26.176   3.925  49.721  1.00  0.00     0.181 C 
HETATM    2  C3  UNL     1      26.045   3.066  50.725  1.00  0.00     0.081 C 
HETATM    3  C4  UNL     1      24.857   2.460  51.324  1.00  0.00     0.045 A 
HETATM    4  C5  UNL     1      23.570   2.260  50.847  1.00  0.00     0.072 A 
HETATM    5  N1  UNL     1      22.672   1.645  51.670  1.00  0.00    -0.241 NA
HETATM    6  C6  UNL     1      23.101   1.270  52.902  1.00  0.00     0.236 A 
HETATM    7  N2  UNL     1      24.361   1.465  53.375  1.00  0.00    -0.222 NA
HETATM    8  C7  UNL     1      25.280   2.071  52.586  1.00  0.00     0.156 A 
HETATM    9  C13 UNL     1      22.845   2.565  49.604  1.00  0.00     0.030 C 
HETATM   10  C14 UNL     1      23.065   3.594  48.813  1.00  0.00     0.002 C 
HETATM   11  C15 UNL     1      23.920   4.796  48.653  1.00  0.00     0.205 C 
HETATM   12  O2  UNL     1      25.271   4.562  48.878  1.00  0.00    -0.327 OA
ENDROOT
BRANCH   8  13
HETATM   13  N3  UNL     1      26.615   2.302  53.012  1.00  0.00    -0.283 N 
HETATM   14  H6  UNL     1      27.362   2.937  52.591  1.00  0.00     0.188 HD
BRANCH  13  15
HETATM   15  N4  UNL     1      27.022   1.590  54.133  1.00  0.00    -0.301 N 
HETATM   16  H7  UNL     1      26.669   1.780  55.084  1.00  0.00     0.186 HD
BRANCH  15  17
HETATM   17  C8  UNL     1      27.983   0.557  53.872  1.00  0.00     0.054 A 
HETATM   18  C9  UNL     1      27.787  -0.660  53.409  1.00  0.00     0.096 A 
HETATM   19 CL1  UNL     1      26.259  -1.361  52.976  1.00  0.00    -0.079 Cl
HETATM   20  C10 UNL     1      29.041  -1.383  53.293  1.00  0.00     0.136 A 
HETATM   21  F1  UNL     1      29.272  -2.645  52.863  1.00  0.00    -0.205 F 
HETATM   22  C11 UNL     1      30.017  -0.585  53.695  1.00  0.00     0.023 A 
HETATM   23  C12 UNL     1      29.418   0.718  54.098  1.00  0.00     0.090 A 
ENDBRANCH  15  17
ENDBRANCH  13  15
ENDBRANCH   8  13
BRANCH   1  24
HETATM   24  O1  UNL     1      27.439   4.322  49.378  1.00  0.00    -0.336 OA
HETATM   25  C1  UNL     1      27.734   5.374  48.496  1.00  0.00     0.212 C 
ENDBRANCH   1  24
TORSDOF 4
ENDMDL
MODEL 2
REMARK VINA RESULT:      -8.1      2.548      3.405
REMARK  4 active torsions:
REMARK  status: ('A' for Active; 'I' for Inactive)
REMARK    1  A    between atoms: O1_2  and  C2_3 
REMARK    2  A    between atoms: C7_10  and  N3_11 
REMARK    3  A    between atoms: N3_11  and  N4_12 
REMARK    4  A    between atoms: N4_12  and  C8_13 
ROOT
HETATM    1  C2  UNL     1      23.608   2.274  51.278  1.00  0.00     0.181 C 
HETATM    2  C3  UNL     1      23.698   1.110  51.909  1.00  0.00     0.081 C 
HETATM    3  C4  UNL     1      22.868   0.516  52.956  1.00  0.00     0.045 A 
HETATM    4  C5  UNL     1      21.561   0.750  53.355  1.00  0.00     0.072 A 
HETATM    5  N1  UNL     1      21.064   0.007  54.386  1.00  0.00    -0.241 NA
HETATM    6  C6  UNL     1      21.887  -0.913  54.953  1.00  0.00     0.236 A 
HETATM    7  N2  UNL     1      23.170  -1.146  54.567  1.00  0.00    -0.222 NA
HETATM    8  C7  UNL     1      23.696  -0.427  53.545  1.00  0.00     0.156 A 
HETATM    9  C13 UNL     1      20.479   1.662  52.950  1.00  0.00     0.030 C 
HETATM   10  C14 UNL     1      20.633   2.874  52.460  1.00  0.00     0.002 C 
HETATM   11  C15 UNL     1      21.664   3.873  52.087  1.00  0.00     0.205 C 
HETATM   12  O2  UNL     1      22.724   3.345  51.360  1.00  0.00    -0.327 OA
ENDROOT
BRANCH   8  13
HETATM   13  N3  UNL     1      25.026  -0.621  53.084  1.00  0.00    -0.283 N 
HETATM   14  H6  UNL     1      25.402  -0.642  52.086  1.00  0.00     0.188 HD
BRANCH  13  15
HETATM   15  N4  UNL     1      25.982  -0.828  54.071  1.00  0.00    -0.301 N 
HETATM   16  H7  UNL     1      25.860  -1.497  54.847  1.00  0.00     0.186 HD
BRANCH  15  17
HETATM   17  C8  UNL     1      27.168  -0.033  53.933  1.00  0.00     0.054 A 
HETATM   18  C9  UNL     1      27.291   1.278  53.912  1.00  0.00     0.096 A 
HETATM   19 CL1  UNL     1      26.002   2.432  54.050  1.00  0.00    -0.079 Cl
HETATM   20  C10 UNL     1      28.680   1.670  53.754  1.00  0.00     0.136 A 
HETATM   21  F1  UNL     1      29.224   2.907  53.686  1.00  0.00    -0.205 F 
HETATM   22  C11 UNL     1      29.414   0.572  53.679  1.00  0.00     0.023 A 
HETATM   23  C12 UNL     1      28.506  -0.605  53.787  1.00  0.00     0.090 A 
ENDBRANCH  15  17
ENDBRANCH  13  15
ENDBRANCH   8  13
BRANCH   1  24
HETATM   24  O1  UNL     1      24.548   2.561  50.327  1.00  0.00    -0.336 OA
HETATM   25  C1  UNL     1      25.751   3.243  50.573  1.00  0.00     0.212 C 
ENDBRANCH   1  24
TORSDOF 4
ENDMDL
MODEL 3
REMARK VINA RESULT:      -8.0      3.443      5.733
REMARK  4 active torsions:
REMARK  status: ('A' for Active; 'I' for Inactive)
REMARK    1  A    between atoms: O1_2  and  C2_3 
REMARK    2  A    between atoms: C7_10  and  N3_11 
REMARK    3  A    between atoms: N3_11  and  N4_12 
REMARK    4  A    between atoms: N4_12  and  C8_13 
ROOT
HETATM    1  C2  UNL     1      26.218   1.839  53.789  1.00  0.00     0.181 C 
HETATM    2  C3  UNL     1      25.293   2.605  53.225  1.00  0.00     0.081 C 
HETATM    3  C4  UNL     1      23.978   2.280  52.678  1.00  0.00     0.045 A 
HETATM    4  C5  UNL     1      23.115   1.215  52.891  1.00  0.00     0.072 A 
HETATM    5  N1  UNL     1      21.930   1.206  52.215  1.00  0.00    -0.241 NA
HETATM    6  C6  UNL     1      21.676   2.243  51.376  1.00  0.00     0.236 A 
HETATM    7  N2  UNL     1      22.519   3.288  51.161  1.00  0.00    -0.222 NA
HETATM    8  C7  UNL     1      23.704   3.332  51.817  1.00  0.00     0.156 A 
HETATM    9  C13 UNL     1      23.133  -0.013  53.703  1.00  0.00     0.030 C 
HETATM   10  C14 UNL     1      24.202  -0.707  54.029  1.00  0.00     0.002 C 
HETATM   11  C15 UNL     1      25.676  -0.747  53.870  1.00  0.00     0.205 C 
HETATM   12  O2  UNL     1      26.299   0.479  54.070  1.00  0.00    -0.327 OA
ENDROOT
BRANCH   8  13
HETATM   13  N3  UNL     1      24.630   4.395  51.646  1.00  0.00    -0.283 N 
HETATM   14  H6  UNL     1      25.434   4.703  52.276  1.00  0.00     0.188 HD
BRANCH  13  15
HETATM   15  N4  UNL     1      24.464   5.161  50.499  1.00  0.00    -0.301 N 
HETATM   16  H7  UNL     1      23.552   5.539  50.197  1.00  0.00     0.186 HD
BRANCH  15  17
HETATM   17  C8  UNL     1      25.667   5.393  49.753  1.00  0.00     0.054 A 
HETATM   18  C9  UNL     1      26.571   4.527  49.345  1.00  0.00     0.096 A 
HETATM   19 CL1  UNL     1      26.544   2.812  49.614  1.00  0.00    -0.079 Cl
HETATM   20  C10 UNL     1      27.637   5.188  48.616  1.00  0.00     0.136 A 
HETATM   21  F1  UNL     1      28.743   4.662  48.039  1.00  0.00    -0.205 F 
HETATM   22  C11 UNL     1      27.372   6.483  48.579  1.00  0.00     0.023 A 
HETATM   23  C12 UNL     1      26.091   6.718  49.304  1.00  0.00     0.090 A 
ENDBRANCH  15  17
ENDBRANCH  13  15
ENDBRANCH   8  13
BRANCH   1  24
HETATM   24  O1  UNL     1      27.373   2.437  54.214  1.00  0.00    -0.336 OA
HETATM   25  C1  UNL     1      28.596   2.395  53.522  1.00  0.00     0.212 C 
ENDBRANCH   1  24
TORSDOF 4
ENDMDL
MODEL 4
REMARK VINA RESULT:      -7.9      2.178      2.973
REMARK  4 active torsions:
REMARK  status: ('A' for Active; 'I' for Inactive)
REMARK    1  A    between atoms: O1_2  and  C2_3 
REMARK    2  A    between atoms: C7_10  and  N3_11 
REMARK    3  A    between atoms: N3_11  and  N4_12 
REMARK    4  A    between atoms: N4_12  and  C8_13 
ROOT
HETATM    1  C2  UNL     1      23.756   2.652  51.306  1.00  0.00     0.181 C 
HETATM    2  C3  UNL     1      23.814   1.452  51.869  1.00  0.00     0.081 C 
HETATM    3  C4  UNL     1      22.942   0.805  52.847  1.00  0.00     0.045 A 
HETATM    4  C5  UNL     1      21.622   1.027  53.211  1.00  0.00     0.072 A 
HETATM    5  N1  UNL     1      21.082   0.229  54.177  1.00  0.00    -0.241 NA
HETATM    6  C6  UNL     1      21.877  -0.731  54.717  1.00  0.00     0.236 A 
HETATM    7  N2  UNL     1      23.171  -0.953  54.365  1.00  0.00    -0.222 NA
HETATM    8  C7  UNL     1      23.740  -0.180  53.408  1.00  0.00     0.156 A 
HETATM    9  C13 UNL     1      20.563   1.972  52.822  1.00  0.00     0.030 C 
HETATM   10  C14 UNL     1      20.744   3.209  52.412  1.00  0.00     0.002 C 
HETATM   11  C15 UNL     1      21.796   4.219  52.138  1.00  0.00     0.205 C 
HETATM   12  O2  UNL     1      22.878   3.725  51.419  1.00  0.00    -0.327 OA
ENDROOT
BRANCH   8  13
HETATM   13  N3  UNL     1      25.084  -0.359  52.986  1.00  0.00    -0.283 N 
HETATM   14  H6  UNL     1      25.534  -0.143  52.043  1.00  0.00     0.188 HD
BRANCH  13  15
HETATM   15  N4  UNL     1      25.945  -0.907  53.929  1.00  0.00    -0.301 N 
HETATM   16  H7  UNL     1      25.664  -1.646  54.591  1.00  0.00     0.186 HD
BRANCH  15  17
HETATM   17  C8  UNL     1      27.273  -0.364  53.916  1.00  0.00     0.054 A 
HETATM   18  C9  UNL     1      28.401  -0.938  53.554  1.00  0.00     0.096 A 
HETATM   19 CL1  UNL     1      28.586  -2.565  52.976  1.00  0.00    -0.079 Cl
HETATM   20  C10 UNL     1      29.521  -0.025  53.695  1.00  0.00     0.136 A 
HETATM   21  F1  UNL     1      30.834  -0.224  53.433  1.00  0.00    -0.205 F 
HETATM   22  C11 UNL     1      29.060   1.127  54.152  1.00  0.00     0.023 A 
HETATM   23  C12 UNL     1      27.586   1.003  54.330  1.00  0.00     0.090 A 
ENDBRANCH  15  17
ENDBRANCH  13  15
ENDBRANCH   8  13
BRANCH   1  24
HETATM   24  O1  UNL     1      24.733   2.987  50.408  1.00  0.00    -0.336 OA
HETATM   25  C1  UNL     1      25.181   4.296  50.166  1.00  0.00     0.212 C 
ENDBRANCH   1  24
TORSDOF 4
ENDMDL
MODEL 5
REMARK VINA RESULT:      -7.8      1.885      2.541
REMARK  4 active torsions:
REMARK  status: ('A' for Active; 'I' for Inactive)
REMARK    1  A    between atoms: O1_2  and  C2_3 
REMARK    2  A    between atoms: C7_10  and  N3_11 
REMARK    3  A    between atoms: N3_11  and  N4_12 
REMARK    4  A    between atoms: N4_12  and  C8_13 
ROOT
HETATM    1  C2  UNL     1      27.251   5.113  48.716  1.00  0.00     0.181 C 
HETATM    2  C3  UNL     1      26.632   4.216  49.473  1.00  0.00     0.081 C 
HETATM    3  C4  UNL     1      25.262   4.169  49.983  1.00  0.00     0.045 A 
HETATM    4  C5  UNL     1      24.090   4.782  49.567  1.00  0.00     0.072 A 
HETATM    5  N1  UNL     1      22.948   4.522  50.268  1.00  0.00    -0.241 NA
HETATM    6  C6  UNL     1      23.040   3.680  51.329  1.00  0.00     0.236 A 
HETATM    7  N2  UNL     1      24.186   3.078  51.743  1.00  0.00    -0.222 NA
HETATM    8  C7  UNL     1      25.339   3.311  51.069  1.00  0.00     0.156 A 
HETATM    9  C13 UNL     1      23.710   5.720  48.499  1.00  0.00     0.030 C 
HETATM   10  C14 UNL     1      24.478   6.656  47.983  1.00  0.00     0.002 C 
HETATM   11  C15 UNL     1      25.834   7.250  48.073  1.00  0.00     0.205 C 
HETATM   12  O2  UNL     1      26.859   6.312  48.131  1.00  0.00    -0.327 OA
ENDROOT
BRANCH   8  13
HETATM   13  N3  UNL     1      26.572   2.711  51.441  1.00  0.00    -0.283 N 
HETATM   14  H6  UNL     1      27.422   2.480  50.840  1.00  0.00     0.188 HD
BRANCH  13  15
HETATM   15  N4  UNL     1      26.693   2.361  52.780  1.00  0.00    -0.301 N 
HETATM   16  H7  UNL     1      26.323   2.937  53.552  1.00  0.00     0.186 HD
BRANCH  15  17
HETATM   17  C8  UNL     1      27.379   1.124  53.016  1.00  0.00     0.054 A 
HETATM   18  C9  UNL     1      28.505   0.910  53.665  1.00  0.00     0.096 A 
HETATM   19 CL1  UNL     1      29.492   2.113  54.433  1.00  0.00    -0.079 Cl
HETATM   20  C10 UNL     1      28.845  -0.502  53.670  1.00  0.00     0.136 A 
HETATM   21  F1  UNL     1      29.909  -1.130  54.222  1.00  0.00    -0.205 F 
HETATM   22  C11 UNL     1      27.904  -1.156  53.010  1.00  0.00     0.023 A 
HETATM   23  C12 UNL     1      26.892  -0.170  52.539  1.00  0.00     0.090 A 
ENDBRANCH  15  17
ENDBRANCH  13  15
ENDBRANCH   8  13
BRANCH   1  24
HETATM   24  O1  UNL     1      28.561   4.884  48.394  1.00  0.00    -0.336 OA
HETATM   25  C1  UNL     1      29.477   5.880  48.019  1.00  0.00     0.212 C 
ENDBRANCH   1  24
TORSDOF 4
ENDMDL
MODEL 6
REMARK VINA RESULT:      -7.7      4.023      6.465
REMARK  4 active torsions:
REMARK  status: ('A' for Active; 'I' for Inactive)
REMARK    1  A    between atoms: O1_2  and  C2_3 
REMARK    2  A    between atoms: C7_10  and  N3_11 
REMARK    3  A    between atoms: N3_11  and  N4_12 
REMARK    4  A    between atoms: N4_12  and  C8_13 
ROOT
HETATM    1  C2  UNL     1      27.474   1.254  52.759  1.00  0.00     0.181 C 
HETATM    2  C3  UNL     1      26.817   2.212  52.118  1.00  0.00     0.081 C 
HETATM    3  C4  UNL     1      25.448   2.265  51.608  1.00  0.00     0.045 A 
HETATM    4  C5  UNL     1      24.303   1.553  51.934  1.00  0.00     0.072 A 
HETATM    5  N1  UNL     1      23.152   1.850  51.264  1.00  0.00    -0.241 NA
HETATM    6  C6  UNL     1      23.208   2.824  50.319  1.00  0.00     0.236 A 
HETATM    7  N2  UNL     1      24.328   3.524  49.994  1.00  0.00    -0.222 NA
HETATM    8  C7  UNL     1      25.488   3.257  50.641  1.00  0.00     0.156 A 
HETATM    9  C13 UNL     1      23.963   0.470  52.871  1.00  0.00     0.030 C 
HETATM   10  C14 UNL     1      24.771  -0.490  53.269  1.00  0.00     0.002 C 
HETATM   11  C15 UNL     1      26.152  -1.008  53.114  1.00  0.00     0.205 C 
HETATM   12  O2  UNL     1      27.134  -0.027  53.183  1.00  0.00    -0.327 OA
ENDROOT
BRANCH   8  13
HETATM   13  N3  UNL     1      26.694   3.952  50.358  1.00  0.00    -0.283 N 
HETATM   14  H6  UNL     1      27.362   4.451  51.023  1.00  0.00     0.188 HD
BRANCH  13  15
HETATM   15  N4  UNL     1      27.059   4.006  49.018  1.00  0.00    -0.301 N 
HETATM   16  H7  UNL     1      26.987   3.200  48.378  1.00  0.00     0.186 HD
BRANCH  15  17
HETATM   17  C8  UNL     1      27.551   5.281  48.582  1.00  0.00     0.054 A 
HETATM   18  C9  UNL     1      26.887   6.397  48.364  1.00  0.00     0.096 A 
HETATM   19 CL1  UNL     1      25.177   6.628  48.554  1.00  0.00    -0.079 Cl
HETATM   20  C10 UNL     1      27.777   7.458  47.930  1.00  0.00     0.136 A 
HETATM   21  F1  UNL     1      27.495   8.742  47.607  1.00  0.00    -0.205 F 
HETATM   22  C11 UNL     1      29.008   6.975  47.885  1.00  0.00     0.023 A 
HETATM   23  C12 UNL     1      28.962   5.543  48.298  1.00  0.00     0.090 A 
ENDBRANCH  15  17
ENDBRANCH  13  15
ENDBRANCH   8  13
BRANCH   1  24
HETATM   24  O1  UNL     1      28.772   1.497  53.117  1.00  0.00    -0.336 OA
HETATM   25  C1  UNL     1      29.575   0.614  53.859  1.00  0.00     0.212 C 
ENDBRANCH   1  24
TORSDOF 4
ENDMDL
MODEL 7
REMARK VINA RESULT:      -7.6      2.361      3.784
REMARK  4 active torsions:
REMARK  status: ('A' for Active; 'I' for Inactive)
REMARK    1  A    between atoms: O1_2  and  C2_3 
REMARK    2  A    between atoms: C7_10  and  N3_11 
REMARK    3  A    between atoms: N3_11  and  N4_12 
REMARK    4  A    between atoms: N4_12  and  C8_13 
ROOT
HETATM    1  C2  UNL     1      22.386   0.763  52.610  1.00  0.00     0.181 C 
HETATM    2  C3  UNL     1      23.542   1.409  52.694  1.00  0.00     0.081 C 
HETATM    3  C4  UNL     1      24.328   2.111  51.682  1.00  0.00     0.045 A 
HETATM    4  C5  UNL     1      23.991   2.663  50.455  1.00  0.00     0.072 A 
HETATM    5  N1  UNL     1      24.977   3.270  49.733  1.00  0.00    -0.241 NA
HETATM    6  C6  UNL     1      26.226   3.290  50.266  1.00  0.00     0.236 A 
HETATM    7  N2  UNL     1      26.563   2.749  51.467  1.00  0.00    -0.222 NA
HETATM    8  C7  UNL     1      25.609   2.140  52.213  1.00  0.00     0.156 A 
HETATM    9  C13 UNL     1      22.765   2.773  49.647  1.00  0.00     0.030 C 
HETATM   10  C14 UNL     1      21.778   1.903  49.620  1.00  0.00     0.002 C 
HETATM   11  C15 UNL     1      21.330   0.610  50.191  1.00  0.00     0.205 C 
HETATM   12  O2  UNL     1      21.501   0.511  51.567  1.00  0.00    -0.327 OA
ENDROOT
BRANCH   8  13
HETATM   13  N3  UNL     1      25.888   1.559  53.478  1.00  0.00    -0.283 N 
HETATM   14  H6  UNL     1      25.249   1.001  54.125  1.00  0.00     0.188 HD
BRANCH  13  15
HETATM   15  N4  UNL     1      27.177   1.751  53.959  1.00  0.00    -0.301 N 
HETATM   16  H7  UNL     1      27.485   2.620  54.425  1.00  0.00     0.186 HD
BRANCH  15  17
HETATM   17  C8  UNL     1      28.064   0.642  53.760  1.00  0.00     0.054 A 
HETATM   18  C9  UNL     1      27.778  -0.600  53.429  1.00  0.00     0.096 A 
HETATM   19 CL1  UNL     1      26.193  -1.246  53.138  1.00  0.00    -0.079 Cl
HETATM   20  C10 UNL     1      28.982  -1.405  53.330  1.00  0.00     0.136 A 
HETATM   21  F1  UNL     1      29.120  -2.715  53.018  1.00  0.00    -0.205 F 
HETATM   22  C11 UNL     1      30.020  -0.633  53.605  1.00  0.00     0.023 A 
HETATM   23  C12 UNL     1      29.516   0.738  53.902  1.00  0.00     0.090 A 
ENDBRANCH  15  17
ENDBRANCH  13  15
ENDBRANCH   8  13
BRANCH   1  24
HETATM   24  O1  UNL     1      21.885   0.194  53.748  1.00  0.00    -0.336 OA
HETATM   25  C1  UNL     1      22.508  -0.843  54.463  1.00  0.00     0.212 C 
ENDBRANCH   1  24
TORSDOF 4
ENDMDL
MODEL 8
REMARK VINA RESULT:      -7.5      3.078      4.501
REMARK  4 active torsions:
REMARK  status: ('A' for Active; 'I' for Inactive)
REMARK    1  A    between atoms: O1_2  and  C2_3 
REMARK    2  A    between atoms: C7_10  and  N3_11 
REMARK    3  A    between atoms: N3_11  and  N4_12 
REMARK    4  A    between atoms: N4_12  and  C8_13 
ROOT
HETATM    1  C2  UNL     1      21.467   0.469  53.635  1.00  0.00     0.181 C 
HETATM    2  C3  UNL     1      22.686   0.949  53.429  1.00  0.00     0.081 C 
HETATM    3  C4  UNL     1      23.168   2.002  52.536  1.00  0.00     0.045 A 
HETATM    4  C5  UNL     1      22.530   3.070  51.923  1.00  0.00     0.072 A 
HETATM    5  N1  UNL     1      23.278   3.895  51.134  1.00  0.00    -0.241 NA
HETATM    6  C6  UNL     1      24.599   3.611  51.001  1.00  0.00     0.236 A 
HETATM    7  N2  UNL     1      25.229   2.564  51.597  1.00  0.00    -0.222 NA
HETATM    8  C7  UNL     1      24.519   1.725  52.389  1.00  0.00     0.156 A 
HETATM    9  C13 UNL     1      21.156   3.595  51.877  1.00  0.00     0.030 C 
HETATM   10  C14 UNL     1      20.053   2.881  51.964  1.00  0.00     0.002 C 
HETATM   11  C15 UNL     1      19.557   1.492  52.119  1.00  0.00     0.205 C 
HETATM   12  O2  UNL     1      20.215   0.764  53.103  1.00  0.00    -0.327 OA
ENDROOT
BRANCH   8  13
HETATM   13  N3  UNL     1      25.112   0.615  53.048  1.00  0.00    -0.283 N 
HETATM   14  H6  UNL     1      24.942   0.240  54.032  1.00  0.00     0.188 HD
BRANCH  13  15
HETATM   15  N4  UNL     1      26.064  -0.083  52.316  1.00  0.00    -0.301 N 
HETATM   16  H7  UNL     1      25.852  -0.571  51.431  1.00  0.00     0.186 HD
BRANCH  15  17
HETATM   17  C8  UNL     1      27.381  -0.078  52.885  1.00  0.00     0.054 A 
HETATM   18  C9  UNL     1      28.194  -1.090  53.104  1.00  0.00     0.096 A 
HETATM   19 CL1  UNL     1      27.874  -2.759  52.751  1.00  0.00    -0.079 Cl
HETATM   20  C10 UNL     1      29.440  -0.641  53.698  1.00  0.00     0.136 A 
HETATM   21  F1  UNL     1      30.525  -1.357  54.073  1.00  0.00    -0.205 F 
HETATM   22  C11 UNL     1      29.380   0.673  53.840  1.00  0.00     0.023 A 
HETATM   23  C12 UNL     1      28.058   1.138  53.332  1.00  0.00     0.090 A 
ENDBRANCH  15  17
ENDBRANCH  13  15
ENDBRANCH   8  13
BRANCH   1  24
HETATM   24  O1  UNL     1      21.321  -0.536  54.551  1.00  0.00    -0.336 OA
HETATM   25  C1  UNL     1      22.227  -1.595  54.726  1.00  0.00     0.212 C 
ENDBRANCH   1  24
TORSDOF 4
ENDMDL
MODEL 9
REMARK VINA RESULT:      -7.4      3.580      6.496
REMARK  4 active torsions:
REMARK  status: ('A' for Active; 'I' for Inactive)
REMARK    1  A    between atoms: O1_2  and  C2_3 
REMARK    2  A    between atoms: C7_10  and  N3_11 
REMARK    3  A    between atoms: N3_11  and  N4_12 
REMARK    4  A    between atoms: N4_12  and  C8_13 
ROOT
HETATM    1  C2  UNL     1      27.181   1.985  52.248  1.00  0.00     0.181 C 
HETATM    2  C3  UNL     1      25.980   1.578  52.639  1.00  0.00     0.081 C 
HETATM    3  C4  UNL     1      25.577   0.582  53.630  1.00  0.00     0.045 A 
HETATM    4  C5  UNL     1      26.233   0.032  54.721  1.00  0.00     0.072 A 
HETATM    5  N1  UNL     1      25.565  -0.892  55.470  1.00  0.00    -0.241 NA
HETATM    6  C6  UNL     1      24.300  -1.213  55.093  1.00  0.00     0.236 A 
HETATM    7  N2  UNL     1      23.653  -0.678  54.024  1.00  0.00    -0.222 NA
HETATM    8  C7  UNL     1      24.284   0.244  53.258  1.00  0.00     0.156 A 
HETATM    9  C13 UNL     1      27.563   0.174  55.336  1.00  0.00     0.030 C 
HETATM   10  C14 UNL     1      28.681   0.454  54.701  1.00  0.00     0.002 C 
HETATM   11  C15 UNL     1      29.233   0.737  53.354  1.00  0.00     0.205 C 
HETATM   12  O2  UNL     1      28.478   1.638  52.612  1.00  0.00    -0.327 OA
ENDROOT
BRANCH   8  13
HETATM   13  N3  UNL     1      23.667   0.849  52.131  1.00  0.00    -0.283 N 
HETATM   14  H6  UNL     1      23.918   0.772  51.097  1.00  0.00     0.188 HD
BRANCH  13  15
HETATM   15  N4  UNL     1      22.583   1.673  52.406  1.00  0.00    -0.301 N 
HETATM   16  H7  UNL     1      22.678   2.617  52.813  1.00  0.00     0.186 HD
BRANCH  15  17
HETATM   17  C8  UNL     1      21.304   1.112  52.079  1.00  0.00     0.054 A 
HETATM   18  C9  UNL     1      20.411   0.563  52.876  1.00  0.00     0.096 A 
HETATM   19 CL1  UNL     1      20.552   0.366  54.595  1.00  0.00    -0.079 Cl
HETATM   20  C10 UNL     1      19.246   0.123  52.130  1.00  0.00     0.136 A 
HETATM   21  F1  UNL     1      18.119  -0.483  52.570  1.00  0.00    -0.205 F 
HETATM   22  C11 UNL     1      19.438   0.412  50.854  1.00  0.00     0.023 A 
HETATM   23  C12 UNL     1      20.770   1.068  50.719  1.00  0.00     0.090 A 
ENDBRANCH  15  17
ENDBRANCH  13  15
ENDBRANCH   8  13
BRANCH   1  24
HETATM   24  O1  UNL     1      27.247   2.951  51.283  1.00  0.00    -0.336 OA
HETATM   25  C1  UNL     1      26.215   3.249  50.378  1.00  0.00     0.212 C 
ENDBRANCH   1  24
TORSDOF 4
ENDMDL
