MODEL 1
REMARK VINA RESULT:      -7.8      0.000      0.000
REMARK  3 active torsions:
REMARK  status: ('A' for Active; 'I' for Inactive)
REMARK    1  A    between atoms: C2_2  and  C3_3 
REMARK    2  A    between atoms: C7_8  and  C8_9 
REMARK    3  A    between atoms: C8_9  and  O2_10 
ROOT
HETATM    1  C3  UNL     1      26.589   0.897  53.456  1.00  0.00     0.017 C 
HETATM    2  C4  UNL     1      25.903  -0.185  52.693  1.00  0.00     0.048 C 
HETATM    3  C5  UNL     1      24.756  -0.764  53.451  1.00  0.00     0.176 C 
HETATM    4  O1  UNL     1      23.826   0.223  53.777  1.00  0.00    -0.362 OA
HETATM    5  C6  UNL     1      22.468   0.098  53.418  1.00  0.00     0.144 C 
HETATM    6  C7  UNL     1      21.400   0.690  52.846  1.00  0.00    -0.007 C 
HETATM    7  C9  UNL     1      21.236   2.071  52.327  1.00  0.00    -0.055 C 
HETATM    8  C10 UNL     1      19.921   2.450  51.687  1.00  0.00     0.048 C 
HETATM    9  C11 UNL     1      22.080   3.134  52.310  1.00  0.00    -0.013 C 
HETATM   10  C12 UNL     1      23.440   3.314  52.805  1.00  0.00     0.088 C 
HETATM   11  C13 UNL     1      24.534   3.189  51.855  1.00  0.00     0.051 A 
HETATM   12  N1  UNL     1      24.647   3.580  50.577  1.00  0.00    -0.245 NA
HETATM   13  C14 UNL     1      25.772   3.312  49.864  1.00  0.00     0.234 A 
HETATM   14  N2  UNL     1      26.827   2.637  50.409  1.00  0.00    -0.242 NA
HETATM   15  C15 UNL     1      26.799   2.201  51.705  1.00  0.00     0.067 A 
HETATM   16  C16 UNL     1      25.644   2.500  52.380  1.00  0.00     0.015 A 
HETATM   17  C17 UNL     1      25.702   2.085  53.645  1.00  0.00     0.007 C 
HETATM   18  C18 UNL     1      27.615   1.514  52.525  1.00  0.00     0.023 C 
ENDROOT
BRANCH   6  19
HETATM   19  C8  UNL     1      20.126  -0.080  52.775  1.00  0.00     0.205 C 
BRANCH  19  20
HETATM   20  O2  UNL     1      19.667  -0.501  54.013  1.00  0.00    -0.396 OA
HETATM   21  H11 UNL     1      18.994   0.097  54.375  1.00  0.00     0.209 HD
ENDBRANCH  19  20
ENDBRANCH   6  19
BRANCH   1  22
HETATM   22  C2  UNL     1      27.273   0.454  54.670  1.00  0.00    -0.019 C 
HETATM   23  C1  UNL     1      28.575   0.211  54.746  1.00  0.00     0.008 C 
ENDBRANCH   1  22
TORSDOF 3
ENDMDL
MODEL 2
REMARK VINA RESULT:      -7.5      1.911      5.703
REMARK  3 active torsions:
REMARK  status: ('A' for Active; 'I' for Inactive)
REMARK    1  A    between atoms: C2_2  and  C3_3 
REMARK    2  A    between atoms: C7_8  and  C8_9 
REMARK    3  A    between atoms: C8_9  and  O2_10 
ROOT
HETATM    1  C3  UNL     1      20.495  -0.219  53.351  1.00  0.00     0.017 C 
HETATM    2  C4  UNL     1      21.144   0.158  54.640  1.00  0.00     0.048 C 
HETATM    3  C5  UNL     1      22.296  -0.731  54.969  1.00  0.00     0.176 C 
HETATM    4  O1  UNL     1      23.250  -0.705  53.953  1.00  0.00    -0.362 OA
HETATM    5  C6  UNL     1      24.598  -0.388  54.222  1.00  0.00     0.144 C 
HETATM    6  C7  UNL     1      25.665   0.360  53.875  1.00  0.00    -0.007 C 
HETATM    7  C9  UNL     1      25.845   1.303  52.744  1.00  0.00    -0.055 C 
HETATM    8  C10 UNL     1      27.152   2.050  52.627  1.00  0.00     0.048 C 
HETATM    9  C11 UNL     1      25.021   1.655  51.724  1.00  0.00    -0.013 C 
HETATM   10  C12 UNL     1      23.675   1.228  51.358  1.00  0.00     0.088 C 
HETATM   11  C13 UNL     1      22.559   2.070  51.759  1.00  0.00     0.051 A 
HETATM   12  N1  UNL     1      22.427   3.404  51.803  1.00  0.00    -0.245 NA
HETATM   13  C14 UNL     1      21.283   3.975  52.261  1.00  0.00     0.234 A 
HETATM   14  N2  UNL     1      20.227   3.225  52.694  1.00  0.00    -0.242 NA
HETATM   15  C15 UNL     1      20.274   1.859  52.685  1.00  0.00     0.067 A 
HETATM   16  C16 UNL     1      21.447   1.334  52.211  1.00  0.00     0.015 A 
HETATM   17  C17 UNL     1      21.408   0.002  52.189  1.00  0.00     0.007 C 
HETATM   18  C18 UNL     1      19.462   0.849  53.047  1.00  0.00     0.023 C 
ENDROOT
BRANCH   6  19
HETATM   19  C8  UNL     1      26.923   0.193  54.658  1.00  0.00     0.205 C 
BRANCH  19  20
HETATM   20  O2  UNL     1      27.653  -0.928  54.294  1.00  0.00    -0.396 OA
HETATM   21  H11 UNL     1      28.360  -1.125  54.929  1.00  0.00     0.209 HD
ENDBRANCH  19  20
ENDBRANCH   6  19
BRANCH   1  22
HETATM   22  C2  UNL     1      19.828  -1.520  53.358  1.00  0.00    -0.019 C 
HETATM   23  C1  UNL     1      18.513  -1.684  53.426  1.00  0.00     0.008 C 
ENDBRANCH   1  22
TORSDOF 3
ENDMDL
MODEL 3
REMARK VINA RESULT:      -7.4      2.801      4.454
REMARK  3 active torsions:
REMARK  status: ('A' for Active; 'I' for Inactive)
REMARK    1  A    between atoms: C2_2  and  C3_3 
REMARK    2  A    between atoms: C7_8  and  C8_9 
REMARK    3  A    between atoms: C8_9  and  O2_10 
ROOT
HETATM    1  C3  UNL     1      25.570  -0.189  53.545  1.00  0.00     0.017 C 
HETATM    2  C4  UNL     1      25.603   1.092  54.307  1.00  0.00     0.048 C 
HETATM    3  C5  UNL     1      26.048   2.237  53.459  1.00  0.00     0.176 C 
HETATM    4  O1  UNL     1      25.216   2.388  52.351  1.00  0.00    -0.362 OA
HETATM    5  C6  UNL     1      24.581   3.616  52.072  1.00  0.00     0.144 C 
HETATM    6  C7  UNL     1      23.422   4.236  51.772  1.00  0.00    -0.007 C 
HETATM    7  C9  UNL     1      22.079   3.670  51.488  1.00  0.00    -0.055 C 
HETATM    8  C10 UNL     1      20.936   4.621  51.224  1.00  0.00     0.048 C 
HETATM    9  C11 UNL     1      21.639   2.389  51.411  1.00  0.00    -0.013 C 
HETATM   10  C12 UNL     1      22.320   1.107  51.560  1.00  0.00     0.088 C 
HETATM   11  C13 UNL     1      22.229   0.432  52.845  1.00  0.00     0.051 A 
HETATM   12  N1  UNL     1      21.214   0.312  53.713  1.00  0.00    -0.245 NA
HETATM   13  C14 UNL     1      21.379  -0.344  54.891  1.00  0.00     0.234 A 
HETATM   14  N2  UNL     1      22.574  -0.903  55.242  1.00  0.00    -0.242 NA
HETATM   15  C15 UNL     1      23.663  -0.830  54.419  1.00  0.00     0.067 A 
HETATM   16  C16 UNL     1      23.442  -0.162  53.243  1.00  0.00     0.015 A 
HETATM   17  C17 UNL     1      24.529  -0.166  52.473  1.00  0.00     0.007 C 
HETATM   18  C18 UNL     1      24.947  -1.229  54.456  1.00  0.00     0.023 C 
ENDROOT
BRANCH   6  19
HETATM   19  C8  UNL     1      23.445   5.716  51.594  1.00  0.00     0.205 C 
BRANCH  19  20
HETATM   20  O2  UNL     1      24.257   6.368  52.509  1.00  0.00    -0.396 OA
HETATM   21  H11 UNL     1      25.094   6.656  52.112  1.00  0.00     0.209 HD
ENDBRANCH  19  20
ENDBRANCH   6  19
BRANCH   1  22
HETATM   22  C2  UNL     1      26.877  -0.678  53.109  1.00  0.00    -0.019 C 
HETATM   23  C1  UNL     1      27.095  -1.893  52.622  1.00  0.00     0.008 C 
ENDBRANCH   1  22
TORSDOF 3
ENDMDL
MODEL 4
REMARK VINA RESULT:      -7.3      1.600      5.361
REMARK  3 active torsions:
REMARK  status: ('A' for Active; 'I' for Inactive)
REMARK    1  A    between atoms: C2_2  and  C3_3 
REMARK    2  A    between atoms: C7_8  and  C8_9 
REMARK    3  A    between atoms: C8_9  and  O2_10 
ROOT
HETATM    1  C3  UNL     1      21.257   1.469  51.569  1.00  0.00     0.017 C 
HETATM    2  C4  UNL     1      21.515   1.493  53.038  1.00  0.00     0.048 C 
HETATM    3  C5  UNL     1      22.332   0.325  53.482  1.00  0.00     0.176 C 
HETATM    4  O1  UNL     1      23.550   0.284  52.805  1.00  0.00    -0.362 OA
HETATM    5  C6  UNL     1      24.775   0.242  53.503  1.00  0.00     0.144 C 
HETATM    6  C7  UNL     1      26.008   0.771  53.637  1.00  0.00    -0.007 C 
HETATM    7  C9  UNL     1      26.698   1.806  52.827  1.00  0.00    -0.055 C 
HETATM    8  C10 UNL     1      28.083   2.244  53.243  1.00  0.00     0.048 C 
HETATM    9  C11 UNL     1      26.316   2.483  51.715  1.00  0.00    -0.013 C 
HETATM   10  C12 UNL     1      25.104   2.433  50.903  1.00  0.00     0.088 C 
HETATM   11  C13 UNL     1      24.081   3.438  51.143  1.00  0.00     0.051 A 
HETATM   12  N1  UNL     1      24.172   4.745  51.428  1.00  0.00    -0.245 NA
HETATM   13  C14 UNL     1      23.058   5.487  51.656  1.00  0.00     0.234 A 
HETATM   14  N2  UNL     1      21.807   4.942  51.606  1.00  0.00    -0.242 NA
HETATM   15  C15 UNL     1      21.619   3.618  51.321  1.00  0.00     0.067 A 
HETATM   16  C16 UNL     1      22.774   2.916  51.097  1.00  0.00     0.015 A 
HETATM   17  C17 UNL     1      22.516   1.646  50.785  1.00  0.00     0.007 C 
HETATM   18  C18 UNL     1      20.574   2.777  51.219  1.00  0.00     0.023 C 
ENDROOT
BRANCH   6  19
HETATM   19  C8  UNL     1      26.903   0.208  54.688  1.00  0.00     0.205 C 
BRANCH  19  20
HETATM   20  O2  UNL     1      26.230  -0.546  55.637  1.00  0.00    -0.396 OA
HETATM   21  H11 UNL     1      26.716  -1.352  55.874  1.00  0.00     0.209 HD
ENDBRANCH  19  20
ENDBRANCH   6  19
BRANCH   1  22
HETATM   22  C2  UNL     1      20.410   0.368  51.113  1.00  0.00    -0.019 C 
HETATM   23  C1  UNL     1      19.101   0.297  51.320  1.00  0.00     0.008 C 
ENDBRANCH   1  22
TORSDOF 3
ENDMDL
MODEL 5
REMARK VINA RESULT:      -7.3      2.547      4.801
REMARK  3 active torsions:
REMARK  status: ('A' for Active; 'I' for Inactive)
REMARK    1  A    between atoms: C2_2  and  C3_3 
REMARK    2  A    between atoms: C7_8  and  C8_9 
REMARK    3  A    between atoms: C8_9  and  O2_10 
ROOT
HETATM    1  C3  UNL     1      24.666   4.175  49.880  1.00  0.00     0.017 C 
HETATM    2  C4  UNL     1      25.581   2.999  49.813  1.00  0.00     0.048 C 
HETATM    3  C5  UNL     1      26.299   2.775  51.102  1.00  0.00     0.176 C 
HETATM    4  O1  UNL     1      25.396   2.592  52.149  1.00  0.00    -0.362 OA
HETATM    5  C6  UNL     1      25.452   1.449  52.974  1.00  0.00     0.144 C 
HETATM    6  C7  UNL     1      24.763   0.433  53.529  1.00  0.00    -0.007 C 
HETATM    7  C9  UNL     1      23.307   0.140  53.510  1.00  0.00    -0.055 C 
HETATM    8  C10 UNL     1      22.814  -1.115  54.190  1.00  0.00     0.048 C 
HETATM    9  C11 UNL     1      22.259   0.814  52.972  1.00  0.00    -0.013 C 
HETATM   10  C12 UNL     1      22.176   2.071  52.235  1.00  0.00     0.088 C 
HETATM   11  C13 UNL     1      22.111   2.009  50.784  1.00  0.00     0.051 A 
HETATM   12  N1  UNL     1      21.479   1.160  49.961  1.00  0.00    -0.245 NA
HETATM   13  C14 UNL     1      21.601   1.277  48.613  1.00  0.00     0.234 A 
HETATM   14  N2  UNL     1      22.366   2.252  48.041  1.00  0.00    -0.242 NA
HETATM   15  C15 UNL     1      23.046   3.161  48.803  1.00  0.00     0.067 A 
HETATM   16  C16 UNL     1      22.887   3.001  50.155  1.00  0.00     0.015 A 
HETATM   17  C17 UNL     1      23.540   3.944  50.834  1.00  0.00     0.007 C 
HETATM   18  C18 UNL     1      23.878   4.196  48.584  1.00  0.00     0.023 C 
ENDROOT
BRANCH   6  19
HETATM   19  C8  UNL     1      25.507  -0.535  54.385  1.00  0.00     0.205 C 
BRANCH  19  20
HETATM   20  O2  UNL     1      26.405  -1.318  53.677  1.00  0.00    -0.396 OA
HETATM   21  H11 UNL     1      26.048  -2.200  53.485  1.00  0.00     0.209 HD
ENDBRANCH  19  20
ENDBRANCH   6  19
BRANCH   1  22
HETATM   22  C2  UNL     1      25.335   5.466  50.035  1.00  0.00    -0.019 C 
HETATM   23  C1  UNL     1      26.163   5.990  49.140  1.00  0.00     0.008 C 
ENDBRANCH   1  22
TORSDOF 3
ENDMDL
MODEL 6
REMARK VINA RESULT:      -7.2      1.809      5.411
REMARK  3 active torsions:
REMARK  status: ('A' for Active; 'I' for Inactive)
REMARK    1  A    between atoms: C2_2  and  C3_3 
REMARK    2  A    between atoms: C7_8  and  C8_9 
REMARK    3  A    between atoms: C8_9  and  O2_10 
ROOT
HETATM    1  C3  UNL     1      20.405   1.565  51.031  1.00  0.00     0.017 C 
HETATM    2  C4  UNL     1      20.201   1.430  52.502  1.00  0.00     0.048 C 
HETATM    3  C5  UNL     1      20.540   0.062  52.991  1.00  0.00     0.176 C 
HETATM    4  O1  UNL     1      21.861  -0.263  52.683  1.00  0.00    -0.362 OA
HETATM    5  C6  UNL     1      22.768  -0.674  53.681  1.00  0.00     0.144 C 
HETATM    6  C7  UNL     1      23.989  -0.504  54.225  1.00  0.00    -0.007 C 
HETATM    7  C9  UNL     1      25.119   0.355  53.791  1.00  0.00    -0.055 C 
HETATM    8  C10 UNL     1      26.373   0.381  54.632  1.00  0.00     0.048 C 
HETATM    9  C11 UNL     1      25.267   1.177  52.720  1.00  0.00    -0.013 C 
HETATM   10  C12 UNL     1      24.385   1.502  51.604  1.00  0.00     0.088 C 
HETATM   11  C13 UNL     1      23.607   2.728  51.684  1.00  0.00     0.051 A 
HETATM   12  N1  UNL     1      23.915   3.943  52.160  1.00  0.00    -0.245 NA
HETATM   13  C14 UNL     1      22.995   4.941  52.168  1.00  0.00     0.234 A 
HETATM   14  N2  UNL     1      21.726   4.755  51.696  1.00  0.00    -0.242 NA
HETATM   15  C15 UNL     1      21.325   3.550  51.192  1.00  0.00     0.067 A 
HETATM   16  C16 UNL     1      22.292   2.578  51.205  1.00  0.00     0.015 A 
HETATM   17  C17 UNL     1      21.847   1.446  50.661  1.00  0.00     0.007 C 
HETATM   18  C18 UNL     1      20.193   3.027  50.687  1.00  0.00     0.023 C 
ENDROOT
BRANCH   6  19
HETATM   19  C8  UNL     1      24.360  -1.349  55.397  1.00  0.00     0.205 C 
BRANCH  19  20
HETATM   20  O2  UNL     1      23.268  -1.929  56.023  1.00  0.00    -0.396 OA
HETATM   21  H11 UNL     1      22.591  -1.274  56.258  1.00  0.00     0.209 HD
ENDBRANCH  19  20
ENDBRANCH   6  19
BRANCH   1  22
HETATM   22  C2  UNL     1      19.501   0.761  50.209  1.00  0.00    -0.019 C 
HETATM   23  C1  UNL     1      18.181   0.746  50.347  1.00  0.00     0.008 C 
ENDBRANCH   1  22
TORSDOF 3
ENDMDL
MODEL 7
REMARK VINA RESULT:      -7.2      2.425      3.948
REMARK  3 active torsions:
REMARK  status: ('A' for Active; 'I' for Inactive)
REMARK    1  A    between atoms: C2_2  and  C3_3 
REMARK    2  A    between atoms: C7_8  and  C8_9 
REMARK    3  A    between atoms: C8_9  and  O2_10 
ROOT
HETATM    1  C3  UNL     1      26.119   1.782  52.805  1.00  0.00     0.017 C 
HETATM    2  C4  UNL     1      25.215   2.731  53.516  1.00  0.00     0.048 C 
HETATM    3  C5  UNL     1      24.147   3.265  52.621  1.00  0.00     0.176 C 
HETATM    4  O1  UNL     1      23.387   2.228  52.081  1.00  0.00    -0.362 OA
HETATM    5  C6  UNL     1      21.983   2.199  52.219  1.00  0.00     0.144 C 
HETATM    6  C7  UNL     1      20.906   1.468  52.566  1.00  0.00    -0.007 C 
HETATM    7  C9  UNL     1      20.804   0.040  52.957  1.00  0.00    -0.055 C 
HETATM    8  C10 UNL     1      19.452  -0.508  53.345  1.00  0.00     0.048 C 
HETATM    9  C11 UNL     1      21.740  -0.940  53.041  1.00  0.00    -0.013 C 
HETATM   10  C12 UNL     1      23.172  -0.955  52.766  1.00  0.00     0.088 C 
HETATM   11  C13 UNL     1      24.084  -0.811  53.889  1.00  0.00     0.051 A 
HETATM   12  N1  UNL     1      24.035  -1.294  55.139  1.00  0.00    -0.245 NA
HETATM   13  C14 UNL     1      25.000  -0.986  56.044  1.00  0.00     0.234 A 
HETATM   14  N2  UNL     1      26.052  -0.176  55.726  1.00  0.00    -0.242 NA
HETATM   15  C15 UNL     1      26.184   0.361  54.476  1.00  0.00     0.067 A 
HETATM   16  C16 UNL     1      25.187   0.017  53.601  1.00  0.00     0.015 A 
HETATM   17  C17 UNL     1      25.400   0.539  52.394  1.00  0.00     0.007 C 
HETATM   18  C18 UNL     1      27.044   1.186  53.849  1.00  0.00     0.023 C 
ENDROOT
BRANCH   6  19
HETATM   19  C8  UNL     1      19.563   2.111  52.478  1.00  0.00     0.205 C 
BRANCH  19  20
HETATM   20  O2  UNL     1      19.621   3.492  52.365  1.00  0.00    -0.396 OA
HETATM   21  H11 UNL     1      20.173   3.774  51.619  1.00  0.00     0.209 HD
ENDBRANCH  19  20
ENDBRANCH   6  19
BRANCH   1  22
HETATM   22  C2  UNL     1      26.937   2.384  51.753  1.00  0.00    -0.019 C 
HETATM   23  C1  UNL     1      26.558   2.499  50.487  1.00  0.00     0.008 C 
ENDBRANCH   1  22
TORSDOF 3
ENDMDL
MODEL 8
REMARK VINA RESULT:      -7.1      3.074      5.668
REMARK  3 active torsions:
REMARK  status: ('A' for Active; 'I' for Inactive)
REMARK    1  A    between atoms: C2_2  and  C3_3 
REMARK    2  A    between atoms: C7_8  and  C8_9 
REMARK    3  A    between atoms: C8_9  and  O2_10 
ROOT
HETATM    1  C3  UNL     1      23.072   1.246  52.514  1.00  0.00     0.017 C 
HETATM    2  C4  UNL     1      23.661   2.497  53.072  1.00  0.00     0.048 C 
HETATM    3  C5  UNL     1      24.990   2.808  52.468  1.00  0.00     0.176 C 
HETATM    4  O1  UNL     1      24.890   2.930  51.082  1.00  0.00    -0.362 OA
HETATM    5  C6  UNL     1      25.337   4.088  50.413  1.00  0.00     0.144 C 
HETATM    6  C7  UNL     1      25.042   5.049  49.516  1.00  0.00    -0.007 C 
HETATM    7  C9  UNL     1      23.851   5.210  48.644  1.00  0.00    -0.055 C 
HETATM    8  C10 UNL     1      23.767   6.429  47.755  1.00  0.00     0.048 C 
HETATM    9  C11 UNL     1      22.751   4.435  48.468  1.00  0.00    -0.013 C 
HETATM   10  C12 UNL     1      22.343   3.163  49.054  1.00  0.00     0.088 C 
HETATM   11  C13 UNL     1      21.412   3.193  50.171  1.00  0.00     0.051 A 
HETATM   12  N1  UNL     1      20.344   3.966  50.413  1.00  0.00    -0.245 NA
HETATM   13  C14 UNL     1      19.638   3.836  51.566  1.00  0.00     0.234 A 
HETATM   14  N2  UNL     1      19.980   2.922  52.521  1.00  0.00    -0.242 NA
HETATM   15  C15 UNL     1      21.053   2.092  52.358  1.00  0.00     0.067 A 
HETATM   16  C16 UNL     1      21.729   2.261  51.178  1.00  0.00     0.015 A 
HETATM   17  C17 UNL     1      22.734   1.393  51.067  1.00  0.00     0.007 C 
HETATM   18  C18 UNL     1      21.667   1.131  53.074  1.00  0.00     0.023 C 
ENDROOT
BRANCH   6  19
HETATM   19  C8  UNL     1      26.069   6.094  49.243  1.00  0.00     0.205 C 
BRANCH  19  20
HETATM   20  O2  UNL     1      26.319   6.916  50.331  1.00  0.00    -0.396 OA
HETATM   21  H11 UNL     1      25.526   7.396  50.615  1.00  0.00     0.209 HD
ENDBRANCH  19  20
ENDBRANCH   6  19
BRANCH   1  22
HETATM   22  C2  UNL     1      23.802   0.023  52.844  1.00  0.00    -0.019 C 
HETATM   23  C1  UNL     1      23.576  -0.713  53.925  1.00  0.00     0.008 C 
ENDBRANCH   1  22
TORSDOF 3
ENDMDL
MODEL 9
REMARK VINA RESULT:      -6.9      3.562      5.971
REMARK  3 active torsions:
REMARK  status: ('A' for Active; 'I' for Inactive)
REMARK    1  A    between atoms: C2_2  and  C3_3 
REMARK    2  A    between atoms: C7_8  and  C8_9 
REMARK    3  A    between atoms: C8_9  and  O2_10 
ROOT
HETATM    1  C3  UNL     1      21.417   0.036  52.554  1.00  0.00     0.017 C 
HETATM    2  C4  UNL     1      21.649   1.397  53.117  1.00  0.00     0.048 C 
HETATM    3  C5  UNL     1      23.051   1.861  52.902  1.00  0.00     0.176 C 
HETATM    4  O1  UNL     1      23.370   1.868  51.545  1.00  0.00    -0.362 OA
HETATM    5  C6  UNL     1      23.858   3.031  50.912  1.00  0.00     0.144 C 
HETATM    6  C7  UNL     1      23.740   3.871  49.866  1.00  0.00    -0.007 C 
HETATM    7  C9  UNL     1      22.866   3.792  48.668  1.00  0.00    -0.055 C 
HETATM    8  C10 UNL     1      22.913   4.918  47.663  1.00  0.00     0.048 C 
HETATM    9  C11 UNL     1      21.976   2.850  48.263  1.00  0.00    -0.013 C 
HETATM   10  C12 UNL     1      21.565   1.575  48.841  1.00  0.00     0.088 C 
HETATM   11  C13 UNL     1      20.339   1.544  49.621  1.00  0.00     0.051 A 
HETATM   12  N1  UNL     1      19.163   2.164  49.448  1.00  0.00    -0.245 NA
HETATM   13  C14 UNL     1      18.156   2.011  50.348  1.00  0.00     0.234 A 
HETATM   14  N2  UNL     1      18.295   1.227  51.458  1.00  0.00    -0.242 NA
HETATM   15  C15 UNL     1      19.459   0.557  51.714  1.00  0.00     0.067 A 
HETATM   16  C16 UNL     1      20.440   0.743  50.775  1.00  0.00     0.015 A 
HETATM   17  C17 UNL     1      21.527   0.030  51.064  1.00  0.00     0.007 C 
HETATM   18  C18 UNL     1      19.933  -0.248  52.682  1.00  0.00     0.023 C 
ENDROOT
BRANCH   6  19
HETATM   19  C8  UNL     1      24.667   5.037  49.794  1.00  0.00     0.205 C 
BRANCH  19  20
HETATM   20  O2  UNL     1      25.852   4.841  50.485  1.00  0.00    -0.396 OA
HETATM   21  H11 UNL     1      25.725   4.300  51.280  1.00  0.00     0.209 HD
ENDBRANCH  19  20
ENDBRANCH   6  19
BRANCH   1  22
HETATM   22  C2  UNL     1      22.153  -1.037  53.220  1.00  0.00    -0.019 C 
HETATM   23  C1  UNL     1      21.910  -1.453  54.457  1.00  0.00     0.008 C 
ENDBRANCH   1  22
TORSDOF 3
ENDMDL
