MODEL 1
REMARK VINA RESULT:      -7.3      0.000      0.000
REMARK  4 active torsions:
REMARK  status: ('A' for Active; 'I' for Inactive)
REMARK    1  A    between atoms: N1_1  and  C1_2 
REMARK    2  A    between atoms: C4_5  and  C5_6 
REMARK       I    between atoms: C5_6  and  N2_8 
REMARK    3  A    between atoms: N2_8  and  S1_9 
REMARK    4  A    between atoms: S1_9  and  C6_12 
ROOT
HETATM    1  C5  UNL     1      26.099   3.996  50.060  1.00  0.00     0.263 C 
HETATM    2  O1  UNL     1      26.346   2.802  49.693  1.00  0.00    -0.267 OA
HETATM    3  N2  UNL     1      25.297   4.148  51.225  1.00  0.00    -0.246 N 
HETATM    4  H5  UNL     1      25.087   5.122  51.535  1.00  0.00     0.182 HD
ENDROOT
BRANCH   3   5
HETATM    5  S1  UNL     1      24.838   2.611  51.882  1.00  0.00     0.265 S 
HETATM    6  O2  UNL     1      23.911   2.927  53.046  1.00  0.00    -0.200 OA
HETATM    7  O3  UNL     1      24.043   1.893  50.856  1.00  0.00    -0.200 OA
BRANCH   5   8
HETATM    8  C6  UNL     1      26.224   1.707  52.418  1.00  0.00     0.080 A 
HETATM    9  C7  UNL     1      26.132   0.342  52.168  1.00  0.00     0.027 A 
HETATM   10  C8  UNL     1      27.145  -0.537  52.527  1.00  0.00     0.020 A 
HETATM   11  C9  UNL     1      28.269  -0.009  53.152  1.00  0.00     0.011 A 
HETATM   12 BR1  UNL     1      29.681  -1.187  53.660  1.00  0.00    -0.051 Br
HETATM   13  C10 UNL     1      28.341   1.350  53.392  1.00  0.00     0.020 A 
HETATM   14  C11 UNL     1      27.338   2.230  53.038  1.00  0.00     0.027 A 
ENDBRANCH   5   8
ENDBRANCH   3   5
BRANCH   1  15
HETATM   15  C4  UNL     1      26.634   5.113  49.291  1.00  0.00     0.035 A 
HETATM   16  C3  UNL     1      27.776   5.007  48.627  1.00  0.00     0.017 A 
HETATM   17  C2  UNL     1      27.986   6.303  47.986  1.00  0.00     0.027 A 
HETATM   18  C1  UNL     1      26.986   7.149  48.272  1.00  0.00     0.026 A 
HETATM   19  C12 UNL     1      26.016   6.443  49.149  1.00  0.00     0.170 A 
HETATM   20 CL1  UNL     1      24.454   6.208  48.327  1.00  0.00    -0.113 Cl
BRANCH  18  21
HETATM   21  N1  UNL     1      26.933   8.484  47.780  1.00  0.00    -0.401 N 
HETATM   22  H1  UNL     1      26.312   9.218  48.206  1.00  0.00     0.156 HD
HETATM   23  H2  UNL     1      27.566   8.641  46.968  1.00  0.00     0.156 HD
ENDBRANCH  18  21
ENDBRANCH   1  15
TORSDOF 4
ENDMDL
MODEL 2
REMARK VINA RESULT:      -7.3      3.844      6.858
REMARK  4 active torsions:
REMARK  status: ('A' for Active; 'I' for Inactive)
REMARK    1  A    between atoms: N1_1  and  C1_2 
REMARK    2  A    between atoms: C4_5  and  C5_6 
REMARK       I    between atoms: C5_6  and  N2_8 
REMARK    3  A    between atoms: N2_8  and  S1_9 
REMARK    4  A    between atoms: S1_9  and  C6_12 
ROOT
HETATM    1  C5  UNL     1      26.562   1.456  52.375  1.00  0.00     0.263 C 
HETATM    2  O1  UNL     1      26.795   2.613  52.856  1.00  0.00    -0.267 OA
HETATM    3  N2  UNL     1      25.452   1.349  51.492  1.00  0.00    -0.246 N 
HETATM    4  H5  UNL     1      25.251   0.407  51.092  1.00  0.00     0.182 HD
ENDROOT
BRANCH   3   5
HETATM    5  S1  UNL     1      24.661   2.878  51.281  1.00  0.00     0.265 S 
HETATM    6  O2  UNL     1      23.326   2.558  50.626  1.00  0.00    -0.200 OA
HETATM    7  O3  UNL     1      24.381   3.438  52.625  1.00  0.00    -0.200 OA
BRANCH   5   8
HETATM    8  C6  UNL     1      25.602   3.950  50.285  1.00  0.00     0.080 A 
HETATM    9  C7  UNL     1      25.143   5.263  50.288  1.00  0.00     0.027 A 
HETATM   10  C8  UNL     1      25.770   6.259  49.550  1.00  0.00     0.020 A 
HETATM   11  C9  UNL     1      26.884   5.903  48.798  1.00  0.00     0.011 A 
HETATM   12 BR1  UNL     1      27.771   7.244  47.771  1.00  0.00    -0.051 Br
HETATM   13  C10 UNL     1      27.324   4.592  48.808  1.00  0.00     0.020 A 
HETATM   14  C11 UNL     1      26.706   3.597  49.539  1.00  0.00     0.027 A 
ENDBRANCH   5   8
ENDBRANCH   3   5
BRANCH   1  15
HETATM   15  C4  UNL     1      27.418   0.336  52.743  1.00  0.00     0.035 A 
HETATM   16  C3  UNL     1      28.625   0.531  53.256  1.00  0.00     0.017 A 
HETATM   17  C2  UNL     1      29.176  -0.801  53.495  1.00  0.00     0.027 A 
HETATM   18  C1  UNL     1      28.307  -1.755  53.128  1.00  0.00     0.026 A 
HETATM   19  C12 UNL     1      27.084  -1.092  52.605  1.00  0.00     0.170 A 
HETATM   20 CL1  UNL     1      25.681  -1.404  53.658  1.00  0.00    -0.113 Cl
BRANCH  18  21
HETATM   21  N1  UNL     1      28.583  -3.146  53.251  1.00  0.00    -0.401 N 
HETATM   22  H1  UNL     1      29.343  -3.621  52.700  1.00  0.00     0.156 HD
HETATM   23  H2  UNL     1      27.958  -3.624  53.933  1.00  0.00     0.156 HD
ENDBRANCH  18  21
ENDBRANCH   1  15
TORSDOF 4
ENDMDL
MODEL 3
REMARK VINA RESULT:      -7.2      4.890      7.058
REMARK  4 active torsions:
REMARK  status: ('A' for Active; 'I' for Inactive)
REMARK    1  A    between atoms: N1_1  and  C1_2 
REMARK    2  A    between atoms: C4_5  and  C5_6 
REMARK       I    between atoms: C5_6  and  N2_8 
REMARK    3  A    between atoms: N2_8  and  S1_9 
REMARK    4  A    between atoms: S1_9  and  C6_12 
ROOT
HETATM    1  C5  UNL     1      21.723   1.224  52.400  1.00  0.00     0.263 C 
HETATM    2  O1  UNL     1      21.668   2.485  52.229  1.00  0.00    -0.267 OA
HETATM    3  N2  UNL     1      23.023   0.651  52.476  1.00  0.00    -0.246 N 
HETATM    4  H5  UNL     1      23.082  -0.382  52.616  1.00  0.00     0.182 HD
ENDROOT
BRANCH   3   5
HETATM    5  S1  UNL     1      24.258   1.858  52.311  1.00  0.00     0.265 S 
HETATM    6  O2  UNL     1      24.202   2.300  50.857  1.00  0.00    -0.200 OA
HETATM    7  O3  UNL     1      23.877   3.020  53.150  1.00  0.00    -0.200 OA
BRANCH   5   8
HETATM    8  C6  UNL     1      25.828   1.222  52.709  1.00  0.00     0.080 A 
HETATM    9  C7  UNL     1      25.943  -0.149  52.506  1.00  0.00     0.027 A 
HETATM   10  C8  UNL     1      27.124  -0.830  52.770  1.00  0.00     0.020 A 
HETATM   11  C9  UNL     1      28.203  -0.094  53.250  1.00  0.00     0.011 A 
HETATM   12 BR1  UNL     1      29.841  -0.997  53.624  1.00  0.00    -0.051 Br
HETATM   13  C10 UNL     1      28.066   1.268  53.445  1.00  0.00     0.020 A 
HETATM   14  C11 UNL     1      26.896   1.951  53.184  1.00  0.00     0.027 A 
ENDBRANCH   5   8
ENDBRANCH   3   5
BRANCH   1  15
HETATM   15  C4  UNL     1      20.490   0.455  52.506  1.00  0.00     0.035 A 
HETATM   16  C3  UNL     1      19.666   0.329  51.475  1.00  0.00     0.017 A 
HETATM   17  C2  UNL     1      18.558  -0.496  51.950  1.00  0.00     0.027 A 
HETATM   18  C1  UNL     1      18.732  -0.844  53.233  1.00  0.00     0.026 A 
HETATM   19  C12 UNL     1      20.010  -0.252  53.706  1.00  0.00     0.170 A 
HETATM   20 CL1  UNL     1      21.207  -1.516  54.081  1.00  0.00    -0.113 Cl
BRANCH  18  21
HETATM   21  N1  UNL     1      17.803  -1.648  53.953  1.00  0.00    -0.401 N 
HETATM   22  H1  UNL     1      17.653  -2.667  53.737  1.00  0.00     0.156 HD
HETATM   23  H2  UNL     1      17.302  -1.120  54.698  1.00  0.00     0.156 HD
ENDBRANCH  18  21
ENDBRANCH   1  15
TORSDOF 4
ENDMDL
MODEL 4
REMARK VINA RESULT:      -7.1      3.808      7.092
REMARK  4 active torsions:
REMARK  status: ('A' for Active; 'I' for Inactive)
REMARK    1  A    between atoms: N1_1  and  C1_2 
REMARK    2  A    between atoms: C4_5  and  C5_6 
REMARK       I    between atoms: C5_6  and  N2_8 
REMARK    3  A    between atoms: N2_8  and  S1_9 
REMARK    4  A    between atoms: S1_9  and  C6_12 
ROOT
HETATM    1  C5  UNL     1      25.982   2.369  51.512  1.00  0.00     0.263 C 
HETATM    2  O1  UNL     1      24.714   2.420  51.410  1.00  0.00    -0.267 OA
HETATM    3  N2  UNL     1      26.716   3.358  50.801  1.00  0.00    -0.246 N 
HETATM    4  H5  UNL     1      27.756   3.326  50.876  1.00  0.00     0.182 HD
ENDROOT
BRANCH   3   5
HETATM    5  S1  UNL     1      25.661   4.430  49.938  1.00  0.00     0.265 S 
HETATM    6  O2  UNL     1      24.779   3.532  49.083  1.00  0.00    -0.200 OA
HETATM    7  O3  UNL     1      24.788   5.108  50.927  1.00  0.00    -0.200 OA
BRANCH   5   8
HETATM    8  C6  UNL     1      26.556   5.547  48.949  1.00  0.00     0.080 A 
HETATM    9  C7  UNL     1      25.808   6.638  48.521  1.00  0.00     0.027 A 
HETATM   10  C8  UNL     1      26.357   7.633  47.722  1.00  0.00     0.020 A 
HETATM   11  C9  UNL     1      27.693   7.507  47.357  1.00  0.00     0.011 A 
HETATM   12 BR1  UNL     1      28.481   8.854  46.260  1.00  0.00    -0.051 Br
HETATM   13  C10 UNL     1      28.419   6.414  47.793  1.00  0.00     0.020 A 
HETATM   14  C11 UNL     1      27.880   5.422  48.587  1.00  0.00     0.027 A 
ENDBRANCH   5   8
ENDBRANCH   3   5
BRANCH   1  15
HETATM   15  C4  UNL     1      26.599   1.331  52.328  1.00  0.00     0.035 A 
HETATM   16  C3  UNL     1      26.669   0.075  51.908  1.00  0.00     0.017 A 
HETATM   17  C2  UNL     1      27.342  -0.664  52.974  1.00  0.00     0.027 A 
HETATM   18  C1  UNL     1      27.658   0.145  53.995  1.00  0.00     0.026 A 
HETATM   19  C12 UNL     1      27.200   1.518  53.660  1.00  0.00     0.170 A 
HETATM   20 CL1  UNL     1      28.578   2.628  53.460  1.00  0.00    -0.113 Cl
BRANCH  18  21
HETATM   21  N1  UNL     1      28.322  -0.311  55.170  1.00  0.00    -0.401 N 
HETATM   22  H1  UNL     1      28.630   0.343  55.933  1.00  0.00     0.156 HD
HETATM   23  H2  UNL     1      28.463  -1.343  55.181  1.00  0.00     0.156 HD
ENDBRANCH  18  21
ENDBRANCH   1  15
TORSDOF 4
ENDMDL
MODEL 5
REMARK VINA RESULT:      -7.1      3.705      6.820
REMARK  4 active torsions:
REMARK  status: ('A' for Active; 'I' for Inactive)
REMARK    1  A    between atoms: N1_1  and  C1_2 
REMARK    2  A    between atoms: C4_5  and  C5_6 
REMARK       I    between atoms: C5_6  and  N2_8 
REMARK    3  A    between atoms: N2_8  and  S1_9 
REMARK    4  A    between atoms: S1_9  and  C6_12 
ROOT
HETATM    1  C5  UNL     1      23.876   2.465  51.793  1.00  0.00     0.263 C 
HETATM    2  O1  UNL     1      24.158   3.628  52.231  1.00  0.00    -0.267 OA
HETATM    3  N2  UNL     1      23.422   2.389  50.447  1.00  0.00    -0.246 N 
HETATM    4  H5  UNL     1      23.188   1.442  50.076  1.00  0.00     0.182 HD
ENDROOT
BRANCH   3   5
HETATM    5  S1  UNL     1      23.363   3.957  49.708  1.00  0.00     0.265 S 
HETATM    6  O2  UNL     1      22.502   3.789  48.466  1.00  0.00    -0.200 OA
HETATM    7  O3  UNL     1      22.648   4.871  50.632  1.00  0.00    -0.200 OA
BRANCH   5   8
HETATM    8  C6  UNL     1      24.954   4.525  49.291  1.00  0.00     0.080 A 
HETATM    9  C7  UNL     1      24.977   5.844  48.849  1.00  0.00     0.027 A 
HETATM   10  C8  UNL     1      26.160   6.467  48.472  1.00  0.00     0.020 A 
HETATM   11  C9  UNL     1      27.335   5.727  48.549  1.00  0.00     0.011 A 
HETATM   12 BR1  UNL     1      28.979   6.550  48.038  1.00  0.00    -0.051 Br
HETATM   13  C10 UNL     1      27.289   4.418  48.991  1.00  0.00     0.020 A 
HETATM   14  C11 UNL     1      26.118   3.792  49.367  1.00  0.00     0.027 A 
ENDBRANCH   5   8
ENDBRANCH   3   5
BRANCH   1  15
HETATM   15  C4  UNL     1      24.028   1.308  52.665  1.00  0.00     0.035 A 
HETATM   16  C3  UNL     1      23.000   0.524  52.954  1.00  0.00     0.017 A 
HETATM   17  C2  UNL     1      23.527  -0.513  53.839  1.00  0.00     0.027 A 
HETATM   18  C1  UNL     1      24.837  -0.336  54.062  1.00  0.00     0.026 A 
HETATM   19  C12 UNL     1      25.277   0.869  53.313  1.00  0.00     0.170 A 
HETATM   20 CL1  UNL     1      26.417   0.442  52.014  1.00  0.00    -0.113 Cl
BRANCH  18  21
HETATM   21  N1  UNL     1      25.608  -1.201  54.889  1.00  0.00    -0.401 N 
HETATM   22  H1  UNL     1      25.610  -2.246  54.766  1.00  0.00     0.156 HD
HETATM   23  H2  UNL     1      26.154  -0.689  55.613  1.00  0.00     0.156 HD
ENDBRANCH  18  21
ENDBRANCH   1  15
TORSDOF 4
ENDMDL
MODEL 6
REMARK VINA RESULT:      -7.0      6.435      8.069
REMARK  4 active torsions:
REMARK  status: ('A' for Active; 'I' for Inactive)
REMARK    1  A    between atoms: N1_1  and  C1_2 
REMARK    2  A    between atoms: C4_5  and  C5_6 
REMARK       I    between atoms: C5_6  and  N2_8 
REMARK    3  A    between atoms: N2_8  and  S1_9 
REMARK    4  A    between atoms: S1_9  and  C6_12 
ROOT
HETATM    1  C5  UNL     1      24.213  -0.715  54.279  1.00  0.00     0.263 C 
HETATM    2  O1  UNL     1      23.953  -1.226  55.416  1.00  0.00    -0.267 OA
HETATM    3  N2  UNL     1      23.096  -0.367  53.470  1.00  0.00    -0.246 N 
HETATM    4  H5  UNL     1      23.296   0.053  52.536  1.00  0.00     0.182 HD
ENDROOT
BRANCH   3   5
HETATM    5  S1  UNL     1      21.599  -0.741  54.263  1.00  0.00     0.265 S 
HETATM    6  O2  UNL     1      21.739  -2.179  54.738  1.00  0.00    -0.200 OA
HETATM    7  O3  UNL     1      21.490   0.122  55.465  1.00  0.00    -0.200 OA
BRANCH   5   8
HETATM    8  C6  UNL     1      20.246  -0.570  53.183  1.00  0.00     0.080 A 
HETATM    9  C7  UNL     1      20.511   0.233  52.079  1.00  0.00     0.027 A 
HETATM   10  C8  UNL     1      19.548   0.483  51.110  1.00  0.00     0.020 A 
HETATM   11  C9  UNL     1      18.296  -0.099  51.276  1.00  0.00     0.011 A 
HETATM   12 BR1  UNL     1      16.948   0.222  49.964  1.00  0.00    -0.051 Br
HETATM   13  C10 UNL     1      18.054  -0.894  52.381  1.00  0.00     0.020 A 
HETATM   14  C11 UNL     1      19.006  -1.146  53.348  1.00  0.00     0.027 A 
ENDBRANCH   5   8
ENDBRANCH   3   5
BRANCH   1  15
HETATM   15  C4  UNL     1      25.600  -0.517  53.877  1.00  0.00     0.035 A 
HETATM   16  C3  UNL     1      26.181  -1.316  52.995  1.00  0.00     0.017 A 
HETATM   17  C2  UNL     1      27.546  -0.816  52.844  1.00  0.00     0.027 A 
HETATM   18  C1  UNL     1      27.756   0.254  53.624  1.00  0.00     0.026 A 
HETATM   19  C12 UNL     1      26.502   0.541  54.366  1.00  0.00     0.170 A 
HETATM   20 CL1  UNL     1      25.798   2.099  53.866  1.00  0.00    -0.113 Cl
BRANCH  18  21
HETATM   21  N1  UNL     1      29.000   0.944  53.677  1.00  0.00    -0.401 N 
HETATM   22  H1  UNL     1      29.221   1.758  53.049  1.00  0.00     0.156 HD
HETATM   23  H2  UNL     1      29.649   0.555  54.394  1.00  0.00     0.156 HD
ENDBRANCH  18  21
ENDBRANCH   1  15
TORSDOF 4
ENDMDL
MODEL 7
REMARK VINA RESULT:      -6.8      4.813      6.654
REMARK  4 active torsions:
REMARK  status: ('A' for Active; 'I' for Inactive)
REMARK    1  A    between atoms: N1_1  and  C1_2 
REMARK    2  A    between atoms: C4_5  and  C5_6 
REMARK       I    between atoms: C5_6  and  N2_8 
REMARK    3  A    between atoms: N2_8  and  S1_9 
REMARK    4  A    between atoms: S1_9  and  C6_12 
ROOT
HETATM    1  C5  UNL     1      26.021   2.150  52.434  1.00  0.00     0.263 C 
HETATM    2  O1  UNL     1      25.742   2.091  51.192  1.00  0.00    -0.267 OA
HETATM    3  N2  UNL     1      25.131   2.902  53.249  1.00  0.00    -0.246 N 
HETATM    4  H5  UNL     1      25.349   2.958  54.268  1.00  0.00     0.182 HD
ENDROOT
BRANCH   3   5
HETATM    5  S1  UNL     1      23.835   3.577  52.315  1.00  0.00     0.265 S 
HETATM    6  O2  UNL     1      23.413   4.837  53.056  1.00  0.00    -0.200 OA
HETATM    7  O3  UNL     1      24.385   3.990  51.001  1.00  0.00    -0.200 OA
BRANCH   5   8
HETATM    8  C6  UNL     1      22.505   2.465  52.172  1.00  0.00     0.080 A 
HETATM    9  C7  UNL     1      21.258   3.066  52.301  1.00  0.00     0.027 A 
HETATM   10  C8  UNL     1      20.081   2.334  52.215  1.00  0.00     0.020 A 
HETATM   11  C9  UNL     1      20.185   0.965  51.994  1.00  0.00     0.011 A 
HETATM   12 BR1  UNL     1      18.589  -0.074  51.872  1.00  0.00    -0.051 Br
HETATM   13  C10 UNL     1      21.434   0.387  51.870  1.00  0.00     0.020 A 
HETATM   14  C11 UNL     1      22.608   1.109  51.954  1.00  0.00     0.027 A 
ENDBRANCH   5   8
ENDBRANCH   3   5
BRANCH   1  15
HETATM   15  C4  UNL     1      27.204   1.465  52.940  1.00  0.00     0.035 A 
HETATM   16  C3  UNL     1      28.156   2.122  53.587  1.00  0.00     0.017 A 
HETATM   17  C2  UNL     1      29.162   1.122  53.937  1.00  0.00     0.027 A 
HETATM   18  C1  UNL     1      28.804  -0.094  53.502  1.00  0.00     0.026 A 
HETATM   19  C12 UNL     1      27.493   0.026  52.813  1.00  0.00     0.170 A 
HETATM   20 CL1  UNL     1      26.216  -0.843  53.699  1.00  0.00    -0.113 Cl
BRANCH  18  21
HETATM   21  N1  UNL     1      29.600  -1.257  53.705  1.00  0.00    -0.401 N 
HETATM   22  H1  UNL     1      30.638  -1.210  53.865  1.00  0.00     0.156 HD
HETATM   23  H2  UNL     1      29.044  -2.138  53.675  1.00  0.00     0.156 HD
ENDBRANCH  18  21
ENDBRANCH   1  15
TORSDOF 4
ENDMDL
MODEL 8
REMARK VINA RESULT:      -6.8      3.828      6.638
REMARK  4 active torsions:
REMARK  status: ('A' for Active; 'I' for Inactive)
REMARK    1  A    between atoms: N1_1  and  C1_2 
REMARK    2  A    between atoms: C4_5  and  C5_6 
REMARK       I    between atoms: C5_6  and  N2_8 
REMARK    3  A    between atoms: N2_8  and  S1_9 
REMARK    4  A    between atoms: S1_9  and  C6_12 
ROOT
HETATM    1  C5  UNL     1      25.028   1.867  52.491  1.00  0.00     0.263 C 
HETATM    2  O1  UNL     1      24.747   2.849  53.253  1.00  0.00    -0.267 OA
HETATM    3  N2  UNL     1      24.298   1.780  51.274  1.00  0.00    -0.246 N 
HETATM    4  H5  UNL     1      24.519   0.980  50.641  1.00  0.00     0.182 HD
ENDROOT
BRANCH   3   5
HETATM    5  S1  UNL     1      23.162   3.082  51.122  1.00  0.00     0.265 S 
HETATM    6  O2  UNL     1      22.294   2.727  49.925  1.00  0.00    -0.200 OA
HETATM    7  O3  UNL     1      22.296   3.076  52.326  1.00  0.00    -0.200 OA
BRANCH   5   8
HETATM    8  C6  UNL     1      23.968   4.605  50.877  1.00  0.00     0.080 A 
HETATM    9  C7  UNL     1      25.011   4.543  49.959  1.00  0.00     0.027 A 
HETATM   10  C8  UNL     1      25.768   5.663  49.637  1.00  0.00     0.020 A 
HETATM   11  C9  UNL     1      25.450   6.862  50.266  1.00  0.00     0.011 A 
HETATM   12 BR1  UNL     1      26.469   8.420  49.848  1.00  0.00    -0.051 Br
HETATM   13  C10 UNL     1      24.410   6.901  51.175  1.00  0.00     0.020 A 
HETATM   14  C11 UNL     1      23.653   5.793  51.500  1.00  0.00     0.027 A 
ENDBRANCH   5   8
ENDBRANCH   3   5
BRANCH   1  15
HETATM   15  C4  UNL     1      26.053   0.912  52.893  1.00  0.00     0.035 A 
HETATM   16  C3  UNL     1      26.116  -0.297  52.355  1.00  0.00     0.017 A 
HETATM   17  C2  UNL     1      27.252  -0.958  52.994  1.00  0.00     0.027 A 
HETATM   18  C1  UNL     1      27.839  -0.150  53.888  1.00  0.00     0.026 A 
HETATM   19  C12 UNL     1      27.106   1.142  53.898  1.00  0.00     0.170 A 
HETATM   20 CL1  UNL     1      28.127   2.470  53.291  1.00  0.00    -0.113 Cl
BRANCH  18  21
HETATM   21  N1  UNL     1      28.972  -0.537  54.659  1.00  0.00    -0.401 N 
HETATM   22  H1  UNL     1      29.665   0.160  55.033  1.00  0.00     0.156 HD
HETATM   23  H2  UNL     1      29.031  -1.567  54.802  1.00  0.00     0.156 HD
ENDBRANCH  18  21
ENDBRANCH   1  15
TORSDOF 4
ENDMDL
MODEL 9
REMARK VINA RESULT:      -6.8      3.611      6.841
REMARK  4 active torsions:
REMARK  status: ('A' for Active; 'I' for Inactive)
REMARK    1  A    between atoms: N1_1  and  C1_2 
REMARK    2  A    between atoms: C4_5  and  C5_6 
REMARK       I    between atoms: C5_6  and  N2_8 
REMARK    3  A    between atoms: N2_8  and  S1_9 
REMARK    4  A    between atoms: S1_9  and  C6_12 
ROOT
HETATM    1  C5  UNL     1      24.172   2.471  51.448  1.00  0.00     0.263 C 
HETATM    2  O1  UNL     1      23.122   2.549  50.732  1.00  0.00    -0.267 OA
HETATM    3  N2  UNL     1      25.152   3.483  51.247  1.00  0.00    -0.246 N 
HETATM    4  H5  UNL     1      26.017   3.431  51.828  1.00  0.00     0.182 HD
ENDROOT
BRANCH   3   5
HETATM    5  S1  UNL     1      24.653   4.614  50.031  1.00  0.00     0.265 S 
HETATM    6  O2  UNL     1      23.900   3.793  48.996  1.00  0.00    -0.200 OA
HETATM    7  O3  UNL     1      23.688   5.555  50.649  1.00  0.00    -0.200 OA
BRANCH   5   8
HETATM    8  C6  UNL     1      26.018   5.421  49.313  1.00  0.00     0.080 A 
HETATM    9  C7  UNL     1      27.080   4.571  49.024  1.00  0.00     0.027 A 
HETATM   10  C8  UNL     1      28.254   5.038  48.447  1.00  0.00     0.020 A 
HETATM   11  C9  UNL     1      28.340   6.397  48.164  1.00  0.00     0.011 A 
HETATM   12 BR1  UNL     1      29.938   7.075  47.373  1.00  0.00    -0.051 Br
HETATM   13  C10 UNL     1      27.273   7.225  48.461  1.00  0.00     0.020 A 
HETATM   14  C11 UNL     1      26.103   6.767  49.033  1.00  0.00     0.027 A 
ENDBRANCH   5   8
ENDBRANCH   3   5
BRANCH   1  15
HETATM   15  C4  UNL     1      24.313   1.384  52.407  1.00  0.00     0.035 A 
HETATM   16  C3  UNL     1      23.272   0.649  52.774  1.00  0.00     0.017 A 
HETATM   17  C2  UNL     1      23.791  -0.326  53.730  1.00  0.00     0.027 A 
HETATM   18  C1  UNL     1      25.108  -0.163  53.918  1.00  0.00     0.026 A 
HETATM   19  C12 UNL     1      25.562   0.968  53.070  1.00  0.00     0.170 A 
HETATM   20 CL1  UNL     1      26.671   0.412  51.791  1.00  0.00    -0.113 Cl
BRANCH  18  21
HETATM   21  N1  UNL     1      25.873  -0.978  54.800  1.00  0.00    -0.401 N 
HETATM   22  H1  UNL     1      25.567  -1.187  55.784  1.00  0.00     0.156 HD
HETATM   23  H2  UNL     1      26.750  -1.334  54.364  1.00  0.00     0.156 HD
ENDBRANCH  18  21
ENDBRANCH   1  15
TORSDOF 4
ENDMDL
