MODEL 1
REMARK VINA RESULT:     -11.0      0.000      0.000
REMARK  0 active torsions:
REMARK  status: ('A' for Active; 'I' for Inactive)
ROOT
HETATM    1  C1  UNL     1      20.643   4.734  50.171  1.00  0.00     0.043 C 
HETATM    2  C2  UNL     1      21.908   4.179  50.812  1.00  0.00     0.221 C 
HETATM    3  C3  UNL     1      21.820   2.690  50.789  1.00  0.00     0.063 C 
HETATM    4  C4  UNL     1      23.075   1.965  51.135  1.00  0.00     0.115 C 
HETATM    5  C5  UNL     1      24.147   3.007  51.442  1.00  0.00     0.164 C 
HETATM    6  N1  UNL     1      25.337   2.548  51.938  1.00  0.00    -0.292 NA
HETATM    7  C6  UNL     1      26.538   2.761  52.067  1.00  0.00     0.111 C 
HETATM    8  C7  UNL     1      27.686   2.089  52.672  1.00  0.00     0.024 C 
HETATM    9  C8  UNL     1      27.978   0.986  53.336  1.00  0.00    -0.047 C 
HETATM   10  C9  UNL     1      29.466   0.954  53.657  1.00  0.00     0.039 C 
HETATM   11  C10 UNL     1      30.020  -0.342  53.167  1.00  0.00     0.030 C 
HETATM   12  C11 UNL     1      29.619  -1.554  53.931  1.00  0.00     0.168 C 
HETATM   13  O1  UNL     1      28.484  -2.186  53.468  1.00  0.00    -0.388 OA
HETATM   14  C12 UNL     1      27.535  -1.338  52.926  1.00  0.00     0.204 C 
HETATM   15  C13 UNL     1      27.191  -0.178  53.811  1.00  0.00     0.180 C 
HETATM   16  O2  UNL     1      25.843   0.025  54.035  1.00  0.00    -0.351 OA
HETATM   17  C14 UNL     1      24.898  -0.901  54.433  1.00  0.00     0.145 C 
HETATM   18  C15 UNL     1      23.766  -0.515  53.810  1.00  0.00    -0.008 C 
HETATM   19  C16 UNL     1      24.098   0.717  53.004  1.00  0.00     0.166 C 
HETATM   20  N2  UNL     1      22.935   1.027  52.233  1.00  0.00    -0.354 N 
HETATM   21  C17 UNL     1      21.906   0.266  52.814  1.00  0.00     0.132 C 
HETATM   22  C18 UNL     1      22.351  -0.739  53.548  1.00  0.00    -0.002 C 
HETATM   23  C19 UNL     1      21.643  -1.923  54.058  1.00  0.00     0.048 C 
HETATM   24  C20 UNL     1      20.184  -1.589  54.223  1.00  0.00     0.051 C 
HETATM   25  C21 UNL     1      19.721  -0.454  53.390  1.00  0.00     0.092 C 
HETATM   26  N3  UNL     1      20.476   0.402  52.741  1.00  0.00    -0.247 NA
HETATM   27  C22 UNL     1      24.265   3.966  50.315  1.00  0.00     0.251 C 
HETATM   28  C23 UNL     1      24.229   3.503  48.918  1.00  0.00     0.068 C 
HETATM   29  C24 UNL     1      23.190   4.622  48.763  1.00  0.00     0.275 C 
HETATM   30  N4  UNL     1      23.055   4.746  50.180  1.00  0.00     0.099 N 
ENDROOT
TORSDOF 0
ENDMDL
MODEL 2
REMARK VINA RESULT:     -10.6      1.721      4.971
REMARK  0 active torsions:
REMARK  status: ('A' for Active; 'I' for Inactive)
ROOT
HETATM    1  C1  UNL     1      18.504   0.781  50.677  1.00  0.00     0.043 C 
HETATM    2  C2  UNL     1      19.968   0.570  51.041  1.00  0.00     0.221 C 
HETATM    3  C3  UNL     1      20.593   1.912  51.229  1.00  0.00     0.063 C 
HETATM    4  C4  UNL     1      21.952   1.910  51.840  1.00  0.00     0.115 C 
HETATM    5  C5  UNL     1      22.344   0.459  52.103  1.00  0.00     0.164 C 
HETATM    6  N1  UNL     1      23.627   0.226  52.519  1.00  0.00    -0.292 NA
HETATM    7  C6  UNL     1      24.381  -0.527  53.124  1.00  0.00     0.111 C 
HETATM    8  C7  UNL     1      25.802  -0.575  53.461  1.00  0.00     0.024 C 
HETATM    9  C8  UNL     1      26.907   0.128  53.291  1.00  0.00    -0.047 C 
HETATM   10  C9  UNL     1      28.078  -0.579  53.961  1.00  0.00     0.039 C 
HETATM   11  C10 UNL     1      28.746   0.392  54.876  1.00  0.00     0.030 C 
HETATM   12  C11 UNL     1      29.514   1.485  54.220  1.00  0.00     0.168 C 
HETATM   13  O1  UNL     1      28.795   2.637  53.976  1.00  0.00    -0.388 OA
HETATM   14  C12 UNL     1      27.459   2.430  53.687  1.00  0.00     0.204 C 
HETATM   15  C13 UNL     1      27.228   1.407  52.615  1.00  0.00     0.180 C 
HETATM   16  O2  UNL     1      26.396   1.798  51.584  1.00  0.00    -0.351 OA
HETATM   17  C14 UNL     1      26.458   2.957  50.834  1.00  0.00     0.145 C 
HETATM   18  C15 UNL     1      25.170   3.251  50.564  1.00  0.00    -0.008 C 
HETATM   19  C16 UNL     1      24.323   2.181  51.208  1.00  0.00     0.166 C 
HETATM   20  N2  UNL     1      22.962   2.583  51.044  1.00  0.00    -0.354 N 
HETATM   21  C17 UNL     1      23.002   3.602  50.077  1.00  0.00     0.132 C 
HETATM   22  C18 UNL     1      24.201   4.137  49.932  1.00  0.00    -0.002 C 
HETATM   23  C19 UNL     1      24.604   5.392  49.280  1.00  0.00     0.048 C 
HETATM   24  C20 UNL     1      23.604   5.730  48.206  1.00  0.00     0.051 C 
HETATM   25  C21 UNL     1      22.272   5.108  48.397  1.00  0.00     0.092 C 
HETATM   26  N3  UNL     1      21.969   4.144  49.234  1.00  0.00    -0.247 NA
HETATM   27  C22 UNL     1      21.292  -0.216  52.905  1.00  0.00     0.251 C 
HETATM   28  C23 UNL     1      20.643   0.469  54.035  1.00  0.00     0.068 C 
HETATM   29  C24 UNL     1      19.355  -0.007  53.350  1.00  0.00     0.275 C 
HETATM   30  N4  UNL     1      20.064  -0.323  52.150  1.00  0.00     0.099 N 
ENDROOT
TORSDOF 0
ENDMDL
MODEL 3
REMARK VINA RESULT:     -10.1      2.541      7.548
REMARK  0 active torsions:
REMARK  status: ('A' for Active; 'I' for Inactive)
ROOT
HETATM    1  C1  UNL     1      28.776   2.110  53.442  1.00  0.00     0.043 C 
HETATM    2  C2  UNL     1      27.264   1.934  53.389  1.00  0.00     0.221 C 
HETATM    3  C3  UNL     1      26.831   2.107  51.972  1.00  0.00     0.063 C 
HETATM    4  C4  UNL     1      25.424   1.716  51.676  1.00  0.00     0.115 C 
HETATM    5  C5  UNL     1      24.789   1.236  52.978  1.00  0.00     0.164 C 
HETATM    6  N1  UNL     1      23.444   0.978  52.957  1.00  0.00    -0.292 NA
HETATM    7  C6  UNL     1      22.518   0.357  53.466  1.00  0.00     0.111 C 
HETATM    8  C7  UNL     1      21.076   0.231  53.266  1.00  0.00     0.024 C 
HETATM    9  C8  UNL     1      20.118   0.698  52.486  1.00  0.00    -0.047 C 
HETATM   10  C9  UNL     1      18.782   0.085  52.884  1.00  0.00     0.039 C 
HETATM   11  C10 UNL     1      18.163  -0.513  51.665  1.00  0.00     0.030 C 
HETATM   12  C11 UNL     1      17.653   0.450  50.651  1.00  0.00     0.168 C 
HETATM   13  O1  UNL     1      18.561   0.804  49.676  1.00  0.00    -0.388 OA
HETATM   14  C12 UNL     1      19.876   0.846  50.102  1.00  0.00     0.204 C 
HETATM   15  C13 UNL     1      20.077   1.651  51.351  1.00  0.00     0.180 C 
HETATM   16  O2  UNL     1      21.076   2.603  51.295  1.00  0.00    -0.351 OA
HETATM   17  C14 UNL     1      21.280   3.566  50.325  1.00  0.00     0.145 C 
HETATM   18  C15 UNL     1      22.620   3.694  50.255  1.00  0.00    -0.008 C 
HETATM   19  C16 UNL     1      23.213   2.734  51.259  1.00  0.00     0.166 C 
HETATM   20  N2  UNL     1      24.630   2.769  51.071  1.00  0.00    -0.354 N 
HETATM   21  C17 UNL     1      24.860   3.912  50.286  1.00  0.00     0.132 C 
HETATM   22  C18 UNL     1      23.781   4.335  49.651  1.00  0.00    -0.002 C 
HETATM   23  C19 UNL     1      23.653   5.273  48.525  1.00  0.00     0.048 C 
HETATM   24  C20 UNL     1      24.814   6.230  48.549  1.00  0.00     0.051 C 
HETATM   25  C21 UNL     1      26.004   5.726  49.275  1.00  0.00     0.092 C 
HETATM   26  N3  UNL     1      26.056   4.681  50.067  1.00  0.00    -0.247 NA
HETATM   27  C22 UNL     1      25.622   0.170  53.590  1.00  0.00     0.251 C 
HETATM   28  C23 UNL     1      26.227  -0.888  52.764  1.00  0.00     0.068 C 
HETATM   29  C24 UNL     1      27.502  -0.508  53.529  1.00  0.00     0.275 C 
HETATM   30  N4  UNL     1      26.902   0.699  54.005  1.00  0.00     0.099 N 
ENDROOT
TORSDOF 0
ENDMDL
MODEL 4
REMARK VINA RESULT:     -10.0      1.722      2.197
REMARK  0 active torsions:
REMARK  status: ('A' for Active; 'I' for Inactive)
ROOT
HETATM    1  C1  UNL     1      18.863   3.360  47.946  1.00  0.00     0.043 C 
HETATM    2  C2  UNL     1      20.100   3.195  48.819  1.00  0.00     0.221 C 
HETATM    3  C3  UNL     1      20.166   1.770  49.257  1.00  0.00     0.063 C 
HETATM    4  C4  UNL     1      21.442   1.354  49.903  1.00  0.00     0.115 C 
HETATM    5  C5  UNL     1      22.363   2.570  49.946  1.00  0.00     0.164 C 
HETATM    6  N1  UNL     1      23.532   2.442  50.646  1.00  0.00    -0.292 NA
HETATM    7  C6  UNL     1      24.683   2.839  50.790  1.00  0.00     0.111 C 
HETATM    8  C7  UNL     1      25.820   2.536  51.657  1.00  0.00     0.024 C 
HETATM    9  C8  UNL     1      26.147   1.734  52.653  1.00  0.00    -0.047 C 
HETATM   10  C9  UNL     1      27.587   1.995  53.075  1.00  0.00     0.039 C 
HETATM   11  C10 UNL     1      28.320   0.695  53.058  1.00  0.00     0.030 C 
HETATM   12  C11 UNL     1      27.962  -0.271  54.132  1.00  0.00     0.168 C 
HETATM   13  O1  UNL     1      26.955  -1.155  53.808  1.00  0.00    -0.388 OA
HETATM   14  C12 UNL     1      25.990  -0.642  52.960  1.00  0.00     0.204 C 
HETATM   15  C13 UNL     1      25.435   0.676  53.409  1.00  0.00     0.180 C 
HETATM   16  O2  UNL     1      24.057   0.760  53.459  1.00  0.00    -0.351 OA
HETATM   17  C14 UNL     1      23.173  -0.117  54.057  1.00  0.00     0.145 C 
HETATM   18  C15 UNL     1      22.083  -0.089  53.264  1.00  0.00    -0.008 C 
HETATM   19  C16 UNL     1      22.375   0.873  52.138  1.00  0.00     0.166 C 
HETATM   20  N2  UNL     1      21.278   0.781  51.227  1.00  0.00    -0.354 N 
HETATM   21  C17 UNL     1      20.275   0.104  51.939  1.00  0.00     0.132 C 
HETATM   22  C18 UNL     1      20.735  -0.565  52.982  1.00  0.00    -0.002 C 
HETATM   23  C19 UNL     1      20.099  -1.621  53.784  1.00  0.00     0.048 C 
HETATM   24  C20 UNL     1      18.605  -1.446  53.729  1.00  0.00     0.051 C 
HETATM   25  C21 UNL     1      18.124  -0.686  52.551  1.00  0.00     0.092 C 
HETATM   26  N3  UNL     1      18.854   0.025  51.723  1.00  0.00    -0.247 NA
HETATM   27  C22 UNL     1      22.506   3.150  48.587  1.00  0.00     0.251 C 
HETATM   28  C23 UNL     1      22.671   2.286  47.407  1.00  0.00     0.068 C 
HETATM   29  C24 UNL     1      21.547   3.160  46.833  1.00  0.00     0.275 C 
HETATM   30  N4  UNL     1      21.246   3.688  48.127  1.00  0.00     0.099 N 
ENDROOT
TORSDOF 0
ENDMDL
MODEL 5
REMARK VINA RESULT:      -9.6      2.140      5.551
REMARK  0 active torsions:
REMARK  status: ('A' for Active; 'I' for Inactive)
ROOT
HETATM    1  C1  UNL     1      18.889   4.819  48.246  1.00  0.00     0.043 C 
HETATM    2  C2  UNL     1      19.944   3.965  48.937  1.00  0.00     0.221 C 
HETATM    3  C3  UNL     1      20.995   4.879  49.472  1.00  0.00     0.063 C 
HETATM    4  C4  UNL     1      21.977   4.255  50.403  1.00  0.00     0.115 C 
HETATM    5  C5  UNL     1      21.616   2.778  50.542  1.00  0.00     0.164 C 
HETATM    6  N1  UNL     1      22.492   1.985  51.233  1.00  0.00    -0.292 NA
HETATM    7  C6  UNL     1      22.639   0.963  51.893  1.00  0.00     0.111 C 
HETATM    8  C7  UNL     1      23.735   0.274  52.571  1.00  0.00     0.024 C 
HETATM    9  C8  UNL     1      25.029   0.407  52.794  1.00  0.00    -0.047 C 
HETATM   10  C9  UNL     1      25.533  -0.763  53.629  1.00  0.00     0.039 C 
HETATM   11  C10 UNL     1      26.249  -0.213  54.817  1.00  0.00     0.030 C 
HETATM   12  C11 UNL     1      27.565   0.429  54.547  1.00  0.00     0.168 C 
HETATM   13  O1  UNL     1      27.512   1.785  54.300  1.00  0.00    -0.388 OA
HETATM   14  C12 UNL     1      26.366   2.207  53.651  1.00  0.00     0.204 C 
HETATM   15  C13 UNL     1      26.048   1.416  52.418  1.00  0.00     0.180 C 
HETATM   16  O2  UNL     1      25.807   2.157  51.278  1.00  0.00    -0.351 OA
HETATM   17  C14 UNL     1      26.574   3.176  50.747  1.00  0.00     0.145 C 
HETATM   18  C15 UNL     1      25.677   4.023  50.204  1.00  0.00    -0.008 C 
HETATM   19  C16 UNL     1      24.307   3.439  50.445  1.00  0.00     0.166 C 
HETATM   20  N2  UNL     1      23.362   4.414  50.000  1.00  0.00    -0.354 N 
HETATM   21  C17 UNL     1      24.115   5.321  49.236  1.00  0.00     0.132 C 
HETATM   22  C18 UNL     1      25.411   5.261  49.483  1.00  0.00    -0.002 C 
HETATM   23  C19 UNL     1      26.483   6.211  49.146  1.00  0.00     0.048 C 
HETATM   24  C20 UNL     1      26.087   6.982  47.915  1.00  0.00     0.051 C 
HETATM   25  C21 UNL     1      24.627   7.023  47.666  1.00  0.00     0.092 C 
HETATM   26  N3  UNL     1      23.710   6.285  48.246  1.00  0.00    -0.247 NA
HETATM   27  C22 UNL     1      20.193   2.635  50.940  1.00  0.00     0.251 C 
HETATM   28  C23 UNL     1      19.597   3.520  51.955  1.00  0.00     0.068 C 
HETATM   29  C24 UNL     1      18.494   3.687  50.901  1.00  0.00     0.275 C 
HETATM   30  N4  UNL     1      19.319   3.106  49.889  1.00  0.00     0.099 N 
ENDROOT
TORSDOF 0
ENDMDL
MODEL 6
REMARK VINA RESULT:      -9.4      2.302      6.284
REMARK  0 active torsions:
REMARK  status: ('A' for Active; 'I' for Inactive)
ROOT
HETATM    1  C1  UNL     1      26.391   5.715  48.968  1.00  0.00     0.043 C 
HETATM    2  C2  UNL     1      25.230   4.753  49.184  1.00  0.00     0.221 C 
HETATM    3  C3  UNL     1      25.214   4.370  50.626  1.00  0.00     0.063 C 
HETATM    4  C4  UNL     1      23.998   3.641  51.085  1.00  0.00     0.115 C 
HETATM    5  C5  UNL     1      23.072   3.475  49.884  1.00  0.00     0.164 C 
HETATM    6  N1  UNL     1      21.964   2.689  50.055  1.00  0.00    -0.292 NA
HETATM    7  C6  UNL     1      20.824   2.438  49.680  1.00  0.00     0.111 C 
HETATM    8  C7  UNL     1      19.764   1.496  50.032  1.00  0.00     0.024 C 
HETATM    9  C8  UNL     1      19.526   0.511  50.878  1.00  0.00    -0.047 C 
HETATM   10  C9  UNL     1      18.122  -0.036  50.653  1.00  0.00     0.039 C 
HETATM   11  C10 UNL     1      17.403  -0.024  51.960  1.00  0.00     0.030 C 
HETATM   12  C11 UNL     1      17.856  -1.025  52.964  1.00  0.00     0.168 C 
HETATM   13  O1  UNL     1      18.843  -0.586  53.821  1.00  0.00    -0.388 OA
HETATM   14  C12 UNL     1      19.731   0.315  53.261  1.00  0.00     0.204 C 
HETATM   15  C13 UNL     1      20.307  -0.143  51.955  1.00  0.00     0.180 C 
HETATM   16  O2  UNL     1      21.683  -0.085  51.855  1.00  0.00    -0.351 OA
HETATM   17  C14 UNL     1      22.621  -0.575  52.744  1.00  0.00     0.145 C 
HETATM   18  C15 UNL     1      23.644   0.302  52.669  1.00  0.00    -0.008 C 
HETATM   19  C16 UNL     1      23.252   1.360  51.667  1.00  0.00     0.166 C 
HETATM   20  N2  UNL     1      24.274   2.359  51.708  1.00  0.00    -0.354 N 
HETATM   21  C17 UNL     1      25.338   1.757  52.399  1.00  0.00     0.132 C 
HETATM   22  C18 UNL     1      24.969   0.710  53.116  1.00  0.00    -0.002 C 
HETATM   23  C19 UNL     1      25.678   0.005  54.194  1.00  0.00     0.048 C 
HETATM   24  C20 UNL     1      27.162   0.172  53.998  1.00  0.00     0.051 C 
HETATM   25  C21 UNL     1      27.539   1.353  53.185  1.00  0.00     0.092 C 
HETATM   26  N3  UNL     1      26.737   2.090  52.451  1.00  0.00    -0.247 NA
HETATM   27  C22 UNL     1      22.814   4.793  49.251  1.00  0.00     0.251 C 
HETATM   28  C23 UNL     1      22.563   5.991  50.070  1.00  0.00     0.068 C 
HETATM   29  C24 UNL     1      23.628   6.616  49.159  1.00  0.00     0.275 C 
HETATM   30  N4  UNL     1      24.028   5.330  48.679  1.00  0.00     0.099 N 
ENDROOT
TORSDOF 0
ENDMDL
MODEL 7
REMARK VINA RESULT:      -9.0      8.565     11.790
REMARK  0 active torsions:
REMARK  status: ('A' for Active; 'I' for Inactive)
ROOT
HETATM    1  C1  UNL     1      32.949   3.782  47.045  1.00  0.00     0.043 C 
HETATM    2  C2  UNL     1      32.342   5.164  46.837  1.00  0.00     0.221 C 
HETATM    3  C3  UNL     1      31.409   5.431  47.970  1.00  0.00     0.063 C 
HETATM    4  C4  UNL     1      30.917   6.833  48.082  1.00  0.00     0.115 C 
HETATM    5  C5  UNL     1      31.530   7.636  46.938  1.00  0.00     0.164 C 
HETATM    6  N1  UNL     1      31.081   8.917  46.765  1.00  0.00    -0.292 NA
HETATM    7  C6  UNL     1      31.332  10.036  46.332  1.00  0.00     0.111 C 
HETATM    8  C7  UNL     1      30.658  11.330  46.253  1.00  0.00     0.024 C 
HETATM    9  C8  UNL     1      29.515  11.898  46.591  1.00  0.00    -0.047 C 
HETATM   10  C9  UNL     1      29.518  13.360  46.168  1.00  0.00     0.039 C 
HETATM   11  C10 UNL     1      29.175  14.191  47.360  1.00  0.00     0.030 C 
HETATM   12  C11 UNL     1      27.764  14.114  47.825  1.00  0.00     0.168 C 
HETATM   13  O1  UNL     1      27.515  13.147  48.775  1.00  0.00    -0.388 OA
HETATM   14  C12 UNL     1      28.287  12.007  48.651  1.00  0.00     0.204 C 
HETATM   15  C13 UNL     1      28.283  11.426  47.269  1.00  0.00     0.180 C 
HETATM   16  O2  UNL     1      28.000  10.077  47.187  1.00  0.00    -0.351 OA
HETATM   17  C14 UNL     1      26.947   9.393  47.764  1.00  0.00     0.145 C 
HETATM   18  C15 UNL     1      27.458   8.182  48.065  1.00  0.00    -0.008 C 
HETATM   19  C16 UNL     1      28.902   8.185  47.626  1.00  0.00     0.166 C 
HETATM   20  N2  UNL     1      29.471   6.956  48.083  1.00  0.00    -0.354 N 
HETATM   21  C17 UNL     1      28.369   6.158  48.433  1.00  0.00     0.132 C 
HETATM   22  C18 UNL     1      27.262   6.852  48.628  1.00  0.00    -0.002 C 
HETATM   23  C19 UNL     1      26.005   6.463  49.285  1.00  0.00     0.048 C 
HETATM   24  C20 UNL     1      25.828   4.973  49.163  1.00  0.00     0.051 C 
HETATM   25  C21 UNL     1      27.089   4.226  48.938  1.00  0.00     0.092 C 
HETATM   26  N3  UNL     1      28.253   4.734  48.607  1.00  0.00    -0.247 NA
HETATM   27  C22 UNL     1      33.008   7.485  46.944  1.00  0.00     0.251 C 
HETATM   28  C23 UNL     1      33.769   7.515  48.204  1.00  0.00     0.068 C 
HETATM   29  C24 UNL     1      34.402   6.235  47.641  1.00  0.00     0.275 C 
HETATM   30  N4  UNL     1      33.382   6.121  46.646  1.00  0.00     0.099 N 
ENDROOT
TORSDOF 0
ENDMDL
MODEL 8
REMARK VINA RESULT:      -8.7      9.099     12.247
REMARK  0 active torsions:
REMARK  status: ('A' for Active; 'I' for Inactive)
ROOT
HETATM    1  C1  UNL     1      32.880   2.352  47.649  1.00  0.00     0.043 C 
HETATM    2  C2  UNL     1      32.616   3.718  47.029  1.00  0.00     0.221 C 
HETATM    3  C3  UNL     1      31.773   4.500  47.980  1.00  0.00     0.063 C 
HETATM    4  C4  UNL     1      31.626   5.949  47.668  1.00  0.00     0.115 C 
HETATM    5  C5  UNL     1      32.410   6.235  46.391  1.00  0.00     0.164 C 
HETATM    6  N1  UNL     1      32.275   7.481  45.842  1.00  0.00    -0.292 NA
HETATM    7  C6  UNL     1      32.782   8.344  45.134  1.00  0.00     0.111 C 
HETATM    8  C7  UNL     1      32.432   9.681  44.658  1.00  0.00     0.024 C 
HETATM    9  C8  UNL     1      31.455  10.564  44.750  1.00  0.00    -0.047 C 
HETATM   10  C9  UNL     1      31.803  11.806  43.941  1.00  0.00     0.039 C 
HETATM   11  C10 UNL     1      31.667  12.995  44.832  1.00  0.00     0.030 C 
HETATM   12  C11 UNL     1      30.278  13.376  45.207  1.00  0.00     0.168 C 
HETATM   13  O1  UNL     1      29.809  12.800  46.369  1.00  0.00    -0.388 OA
HETATM   14  C12 UNL     1      30.291  11.528  46.615  1.00  0.00     0.204 C 
HETATM   15  C13 UNL     1      30.148  10.596  45.449  1.00  0.00     0.180 C 
HETATM   16  O2  UNL     1      29.554   9.379  45.725  1.00  0.00    -0.351 OA
HETATM   17  C14 UNL     1      28.371   9.144  46.397  1.00  0.00     0.145 C 
HETATM   18  C15 UNL     1      28.582   7.985  47.053  1.00  0.00    -0.008 C 
HETATM   19  C16 UNL     1      29.985   7.536  46.726  1.00  0.00     0.166 C 
HETATM   20  N2  UNL     1      30.250   6.392  47.541  1.00  0.00    -0.354 N 
HETATM   21  C17 UNL     1      28.991   5.997  48.024  1.00  0.00     0.132 C 
HETATM   22  C18 UNL     1      28.079   6.950  47.947  1.00  0.00    -0.002 C 
HETATM   23  C19 UNL     1      26.767   7.059  48.602  1.00  0.00     0.048 C 
HETATM   24  C20 UNL     1      26.243   5.675  48.885  1.00  0.00     0.051 C 
HETATM   25  C21 UNL     1      27.292   4.630  48.958  1.00  0.00     0.092 C 
HETATM   26  N3  UNL     1      28.543   4.746  48.576  1.00  0.00    -0.247 NA
HETATM   27  C22 UNL     1      33.810   5.761  46.534  1.00  0.00     0.251 C 
HETATM   28  C23 UNL     1      34.558   5.973  47.785  1.00  0.00     0.068 C 
HETATM   29  C24 UNL     1      34.871   4.478  47.640  1.00  0.00     0.275 C 
HETATM   30  N4  UNL     1      33.852   4.321  46.650  1.00  0.00     0.099 N 
ENDROOT
TORSDOF 0
ENDMDL
MODEL 9
REMARK VINA RESULT:      -8.3      3.163      7.162
REMARK  0 active torsions:
REMARK  status: ('A' for Active; 'I' for Inactive)
ROOT
HETATM    1  C1  UNL     1      27.323   6.503  48.594  1.00  0.00     0.043 C 
HETATM    2  C2  UNL     1      25.954   5.837  48.546  1.00  0.00     0.221 C 
HETATM    3  C3  UNL     1      25.672   5.269  49.896  1.00  0.00     0.063 C 
HETATM    4  C4  UNL     1      24.273   4.806  50.120  1.00  0.00     0.115 C 
HETATM    5  C5  UNL     1      23.489   5.047  48.833  1.00  0.00     0.164 C 
HETATM    6  N1  UNL     1      22.218   4.544  48.775  1.00  0.00    -0.292 NA
HETATM    7  C6  UNL     1      21.106   4.639  48.266  1.00  0.00     0.111 C 
HETATM    8  C7  UNL     1      19.822   3.948  48.363  1.00  0.00     0.024 C 
HETATM    9  C8  UNL     1      19.260   2.943  49.008  1.00  0.00    -0.047 C 
HETATM   10  C9  UNL     1      17.807   2.798  48.576  1.00  0.00     0.039 C 
HETATM   11  C10 UNL     1      16.954   2.801  49.800  1.00  0.00     0.030 C 
HETATM   12  C11 UNL     1      17.036   1.587  50.657  1.00  0.00     0.168 C 
HETATM   13  O1  UNL     1      17.984   1.642  51.656  1.00  0.00    -0.388 OA
HETATM   14  C12 UNL     1      19.118   2.366  51.334  1.00  0.00     0.204 C 
HETATM   15  C13 UNL     1      19.730   1.970  50.024  1.00  0.00     0.180 C 
HETATM   16  O2  UNL     1      21.084   1.699  50.054  1.00  0.00    -0.351 OA
HETATM   17  C14 UNL     1      21.766   0.871  50.924  1.00  0.00     0.145 C 
HETATM   18  C15 UNL     1      22.964   1.469  51.086  1.00  0.00    -0.008 C 
HETATM   19  C16 UNL     1      22.955   2.722  50.245  1.00  0.00     0.166 C 
HETATM   20  N2  UNL     1      24.166   3.422  50.540  1.00  0.00    -0.354 N 
HETATM   21  C17 UNL     1      24.969   2.483  51.210  1.00  0.00     0.132 C 
HETATM   22  C18 UNL     1      24.283   1.469  51.706  1.00  0.00    -0.002 C 
HETATM   23  C19 UNL     1      24.671   0.464  52.708  1.00  0.00     0.048 C 
HETATM   24  C20 UNL     1      26.166   0.286  52.670  1.00  0.00     0.051 C 
HETATM   25  C21 UNL     1      26.903   1.439  52.102  1.00  0.00     0.092 C 
HETATM   26  N3  UNL     1      26.390   2.448  51.437  1.00  0.00    -0.247 NA
HETATM   27  C22 UNL     1      23.623   6.464  48.411  1.00  0.00     0.251 C 
HETATM   28  C23 UNL     1      23.556   7.558  49.394  1.00  0.00     0.068 C 
HETATM   29  C24 UNL     1      24.841   8.023  48.695  1.00  0.00     0.275 C 
HETATM   30  N4  UNL     1      24.989   6.760  48.043  1.00  0.00     0.099 N 
ENDROOT
TORSDOF 0
ENDMDL
