MODEL 1
REMARK VINA RESULT:      -7.4      0.000      0.000
REMARK  4 active torsions:
REMARK  status: ('A' for Active; 'I' for Inactive)
REMARK    1  A    between atoms: C4_7  and  N3_8 
REMARK    2  A    between atoms: N3_8  and  C5_9 
REMARK    3  A    between atoms: C11_17  and  O1_18 
REMARK    4  A    between atoms: C13_20  and  O2_21 
ROOT
HETATM    1  C1  UNL     1      21.413   0.977  49.376  1.00  0.00     0.030 A 
HETATM    2  S1  UNL     1      21.128   0.657  50.479  1.00  0.00    -0.160 SA
HETATM    3  N1  UNL     1      20.402  -0.137  53.045  1.00  0.00    -0.236 NA
HETATM    4  C2  UNL     1      21.394   0.334  53.206  1.00  0.00     0.239 C 
HETATM    5  N2  UNL     1      22.574   0.958  52.950  1.00  0.00    -0.243 NA
HETATM    6  C3  UNL     1      22.822   1.318  51.599  1.00  0.00     0.077 C 
HETATM    7  C4  UNL     1      23.950   1.766  52.297  1.00  0.00     0.095 C 
HETATM    8  C11 UNL     1      24.187   2.674  51.235  1.00  0.00     0.127 C 
HETATM    9  C13 UNL     1      23.441   2.904  50.014  1.00  0.00     0.098 C 
HETATM   10  C15 UNL     1      22.305   2.233  49.660  1.00  0.00     0.124 A 
HETATM   11  C16 UNL     1      21.106   0.632  50.569  1.00  0.00     0.100 A 
HETATM   12  H2  UNL     1      20.785   0.261  51.751  1.00  0.00     0.127 HD
ENDROOT
BRANCH   7  13
HETATM   13  N3  UNL     1      24.806   1.780  53.328  1.00  0.00    -0.352 N 
HETATM   14  H4  UNL     1      24.314   2.465  53.888  1.00  0.00     0.166 HD
BRANCH  13  15
HETATM   15  C5  UNL     1      25.924   0.911  53.277  1.00  0.00     0.034 A 
HETATM   16  C6  UNL     1      26.120  -0.336  52.819  1.00  0.00     0.032 A 
HETATM   17  C7  UNL     1      27.325  -0.964  52.875  1.00  0.00     0.046 A 
HETATM   18  C8  UNL     1      28.452  -0.330  53.440  1.00  0.00     0.138 A 
HETATM   19  F1  UNL     1      29.649  -0.986  53.456  1.00  0.00    -0.204 F 
HETATM   20  C9  UNL     1      28.270   0.991  53.940  1.00  0.00     0.074 A 
HETATM   21 CL1  UNL     1      29.744   1.643  54.583  1.00  0.00    -0.081 Cl
HETATM   22  C10 UNL     1      27.041   1.548  53.838  1.00  0.00     0.056 A 
ENDBRANCH  13  15
ENDBRANCH   7  13
BRANCH   8  23
HETATM   23  O1  UNL     1      25.184   3.605  51.065  1.00  0.00    -0.351 OA
HETATM   24  C12 UNL     1      26.398   3.108  50.463  1.00  0.00     0.210 C 
ENDBRANCH   8  23
BRANCH   9  25
HETATM   25  O2  UNL     1      23.578   3.735  48.974  1.00  0.00    -0.356 OA
HETATM   26  C14 UNL     1      23.235   4.905  48.446  1.00  0.00     0.209 C 
ENDBRANCH   9  25
TORSDOF 4
ENDMDL
MODEL 2
REMARK VINA RESULT:      -7.1      3.715      5.758
REMARK  4 active torsions:
REMARK  status: ('A' for Active; 'I' for Inactive)
REMARK    1  A    between atoms: C4_7  and  N3_8 
REMARK    2  A    between atoms: N3_8  and  C5_9 
REMARK    3  A    between atoms: C11_17  and  O1_18 
REMARK    4  A    between atoms: C13_20  and  O2_21 
ROOT
HETATM    1  C1  UNL     1      24.541  -1.135  55.911  1.00  0.00     0.030 A 
HETATM    2  S1  UNL     1      23.489  -1.233  55.377  1.00  0.00    -0.160 SA
HETATM    3  N1  UNL     1      20.988  -1.490  54.184  1.00  0.00    -0.236 NA
HETATM    4  C2  UNL     1      21.543  -0.860  53.458  1.00  0.00     0.239 C 
HETATM    5  N2  UNL     1      22.544  -0.139  52.888  1.00  0.00    -0.243 NA
HETATM    6  C3  UNL     1      23.775  -0.092  53.594  1.00  0.00     0.077 C 
HETATM    7  C4  UNL     1      24.002   0.664  52.438  1.00  0.00     0.095 C 
HETATM    8  C11 UNL     1      25.388   0.430  52.616  1.00  0.00     0.127 C 
HETATM    9  C13 UNL     1      26.089  -0.324  53.636  1.00  0.00     0.098 C 
HETATM   10  C15 UNL     1      25.483  -0.979  54.670  1.00  0.00     0.124 A 
HETATM   11  C16 UNL     1      23.405  -1.241  55.333  1.00  0.00     0.100 A 
HETATM   12  H2  UNL     1      22.254  -1.345  54.782  1.00  0.00     0.127 HD
ENDROOT
BRANCH   7  13
HETATM   13  N3  UNL     1      23.626   1.395  51.380  1.00  0.00    -0.352 N 
HETATM   14  H4  UNL     1      23.442   0.621  50.754  1.00  0.00     0.166 HD
BRANCH  13  15
HETATM   15  C5  UNL     1      23.593   2.805  51.522  1.00  0.00     0.034 A 
HETATM   16  C6  UNL     1      23.349   3.636  52.548  1.00  0.00     0.032 A 
HETATM   17  C7  UNL     1      23.393   4.991  52.428  1.00  0.00     0.046 A 
HETATM   18  C8  UNL     1      23.692   5.605  51.193  1.00  0.00     0.138 A 
HETATM   19  F1  UNL     1      23.748   6.967  51.121  1.00  0.00    -0.204 F 
HETATM   20  C9  UNL     1      23.948   4.745  50.087  1.00  0.00     0.074 A 
HETATM   21 CL1  UNL     1      24.317   5.643  48.648  1.00  0.00    -0.081 Cl
HETATM   22  C10 UNL     1      23.893   3.409  50.292  1.00  0.00     0.056 A 
ENDBRANCH  13  15
ENDBRANCH   7  13
BRANCH   8  23
HETATM   23  O1  UNL     1      26.463   0.840  51.864  1.00  0.00    -0.351 OA
HETATM   24  C12 UNL     1      26.976   2.151  52.182  1.00  0.00     0.210 C 
ENDBRANCH   8  23
BRANCH   9  25
HETATM   25  O2  UNL     1      27.375  -0.607  53.875  1.00  0.00    -0.356 OA
HETATM   26  C14 UNL     1      28.477  -0.254  54.528  1.00  0.00     0.209 C 
ENDBRANCH   9  25
TORSDOF 4
ENDMDL
MODEL 3
REMARK VINA RESULT:      -7.1      4.009      6.387
REMARK  4 active torsions:
REMARK  status: ('A' for Active; 'I' for Inactive)
REMARK    1  A    between atoms: C4_7  and  N3_8 
REMARK    2  A    between atoms: N3_8  and  C5_9 
REMARK    3  A    between atoms: C11_17  and  O1_18 
REMARK    4  A    between atoms: C13_20  and  O2_21 
ROOT
HETATM    1  C1  UNL     1      26.378  -1.304  52.884  1.00  0.00     0.030 A 
HETATM    2  S1  UNL     1      27.053  -0.397  53.237  1.00  0.00    -0.160 SA
HETATM    3  N1  UNL     1      28.696   1.691  54.061  1.00  0.00    -0.236 NA
HETATM    4  C2  UNL     1      27.740   2.207  53.835  1.00  0.00     0.239 C 
HETATM    5  N2  UNL     1      26.453   2.410  53.449  1.00  0.00    -0.243 NA
HETATM    6  C3  UNL     1      25.718   1.261  53.057  1.00  0.00     0.077 C 
HETATM    7  C4  UNL     1      24.813   2.320  52.926  1.00  0.00     0.095 C 
HETATM    8  C11 UNL     1      23.764   1.373  53.028  1.00  0.00     0.127 C 
HETATM    9  C13 UNL     1      23.811  -0.064  53.207  1.00  0.00     0.098 C 
HETATM   10  C15 UNL     1      24.961  -0.795  53.312  1.00  0.00     0.124 A 
HETATM   11  C16 UNL     1      27.106  -0.324  53.265  1.00  0.00     0.100 A 
HETATM   12  H2  UNL     1      27.858   0.645  53.633  1.00  0.00     0.127 HD
ENDROOT
BRANCH   7  13
HETATM   13  N3  UNL     1      24.474   3.608  52.781  1.00  0.00    -0.352 N 
HETATM   14  H4  UNL     1      24.451   3.842  53.766  1.00  0.00     0.166 HD
BRANCH  13  15
HETATM   15  C5  UNL     1      24.328   4.114  51.465  1.00  0.00     0.034 A 
HETATM   16  C6  UNL     1      24.634   3.648  50.244  1.00  0.00     0.032 A 
HETATM   17  C7  UNL     1      24.373   4.338  49.101  1.00  0.00     0.046 A 
HETATM   18  C8  UNL     1      23.766   5.612  49.142  1.00  0.00     0.138 A 
HETATM   19  F1  UNL     1      23.501   6.262  47.971  1.00  0.00    -0.204 F 
HETATM   20  C9  UNL     1      23.438   6.133  50.426  1.00  0.00     0.074 A 
HETATM   21 CL1  UNL     1      22.684   7.693  50.311  1.00  0.00    -0.081 Cl
HETATM   22  C10 UNL     1      23.723   5.379  51.512  1.00  0.00     0.056 A 
ENDBRANCH  13  15
ENDBRANCH   7  13
BRANCH   8  23
HETATM   23  O1  UNL     1      22.400   1.548  53.000  1.00  0.00    -0.351 OA
HETATM   24  C12 UNL     1      21.803   1.545  51.687  1.00  0.00     0.210 C 
ENDBRANCH   8  23
BRANCH   9  25
HETATM   25  O2  UNL     1      22.888  -1.026  53.325  1.00  0.00    -0.356 OA
HETATM   26  C14 UNL     1      21.977  -1.588  54.112  1.00  0.00     0.209 C 
ENDBRANCH   9  25
TORSDOF 4
ENDMDL
MODEL 4
REMARK VINA RESULT:      -7.1      2.148      3.586
REMARK  4 active torsions:
REMARK  status: ('A' for Active; 'I' for Inactive)
REMARK    1  A    between atoms: C4_7  and  N3_8 
REMARK    2  A    between atoms: N3_8  and  C5_9 
REMARK    3  A    between atoms: C11_17  and  O1_18 
REMARK    4  A    between atoms: C13_20  and  O2_21 
ROOT
HETATM    1  C1  UNL     1      22.965   3.685  49.224  1.00  0.00     0.030 A 
HETATM    2  S1  UNL     1      24.143   3.720  49.337  1.00  0.00    -0.160 SA
HETATM    3  N1  UNL     1      26.913   3.861  49.556  1.00  0.00    -0.236 NA
HETATM    4  C2  UNL     1      26.632   3.213  50.413  1.00  0.00     0.239 C 
HETATM    5  N2  UNL     1      25.873   2.509  51.294  1.00  0.00    -0.243 NA
HETATM    6  C3  UNL     1      24.472   2.512  51.068  1.00  0.00     0.077 C 
HETATM    7  C4  UNL     1      24.645   1.713  52.204  1.00  0.00     0.095 C 
HETATM    8  C11 UNL     1      23.391   1.118  51.917  1.00  0.00     0.127 C 
HETATM    9  C13 UNL     1      22.463   1.362  50.832  1.00  0.00     0.098 C 
HETATM   10  C15 UNL     1      22.658   2.276  49.835  1.00  0.00     0.124 A 
HETATM   11  C16 UNL     1      24.238   3.722  49.347  1.00  0.00     0.100 A 
HETATM   12  H2  UNL     1      25.511   3.790  49.462  1.00  0.00     0.127 HD
ENDROOT
BRANCH   7  13
HETATM   13  N3  UNL     1      25.308   1.274  53.282  1.00  0.00    -0.352 N 
HETATM   14  H4  UNL     1      24.933   1.946  53.941  1.00  0.00     0.166 HD
BRANCH  13  15
HETATM   15  C5  UNL     1      26.156   0.149  53.130  1.00  0.00     0.034 A 
HETATM   16  C6  UNL     1      25.960  -1.126  52.754  1.00  0.00     0.032 A 
HETATM   17  C7  UNL     1      26.968  -2.036  52.673  1.00  0.00     0.046 A 
HETATM   18  C8  UNL     1      28.295  -1.685  52.998  1.00  0.00     0.138 A 
HETATM   19  F1  UNL     1      29.281  -2.622  52.882  1.00  0.00    -0.204 F 
HETATM   20  C9  UNL     1      28.529  -0.341  53.408  1.00  0.00     0.074 A 
HETATM   21 CL1  UNL     1      30.206  -0.058  53.754  1.00  0.00    -0.081 Cl
HETATM   22  C10 UNL     1      27.474   0.504  53.453  1.00  0.00     0.056 A 
ENDBRANCH  13  15
ENDBRANCH   7  13
BRANCH   8  23
HETATM   23  O1  UNL     1      22.704   0.128  52.579  1.00  0.00    -0.351 OA
HETATM   24  C12 UNL     1      21.876   0.575  53.673  1.00  0.00     0.210 C 
ENDBRANCH   8  23
BRANCH   9  25
HETATM   25  O2  UNL     1      21.279   0.848  50.476  1.00  0.00    -0.356 OA
HETATM   26  C14 UNL     1      20.153   1.044  49.799  1.00  0.00     0.209 C 
ENDBRANCH   9  25
TORSDOF 4
ENDMDL
MODEL 5
REMARK VINA RESULT:      -7.0      3.353      4.978
REMARK  4 active torsions:
REMARK  status: ('A' for Active; 'I' for Inactive)
REMARK    1  A    between atoms: C4_7  and  N3_8 
REMARK    2  A    between atoms: N3_8  and  C5_9 
REMARK    3  A    between atoms: C11_17  and  O1_18 
REMARK    4  A    between atoms: C13_20  and  O2_21 
ROOT
HETATM    1  C1  UNL     1      25.025   7.386  50.515  1.00  0.00     0.030 A 
HETATM    2  S1  UNL     1      25.885   6.985  49.808  1.00  0.00    -0.160 SA
HETATM    3  N1  UNL     1      27.935   6.111  48.142  1.00  0.00    -0.236 NA
HETATM    4  C2  UNL     1      27.550   5.164  48.574  1.00  0.00     0.239 C 
HETATM    5  N2  UNL     1      26.808   4.303  49.318  1.00  0.00    -0.243 NA
HETATM    6  C3  UNL     1      25.787   4.875  50.123  1.00  0.00     0.077 C 
HETATM    7  C4  UNL     1      25.691   3.498  50.356  1.00  0.00     0.095 C 
HETATM    8  C11 UNL     1      24.352   3.711  50.770  1.00  0.00     0.127 C 
HETATM    9  C13 UNL     1      23.575   4.932  50.838  1.00  0.00     0.098 C 
HETATM   10  C15 UNL     1      24.040   6.169  50.492  1.00  0.00     0.124 A 
HETATM   11  C16 UNL     1      25.954   6.952  49.752  1.00  0.00     0.100 A 
HETATM   12  H2  UNL     1      26.902   6.541  48.996  1.00  0.00     0.127 HD
ENDROOT
BRANCH   7  13
HETATM   13  N3  UNL     1      26.154   2.241  50.378  1.00  0.00    -0.352 N 
HETATM   14  H4  UNL     1      25.904   2.001  49.426  1.00  0.00     0.166 HD
BRANCH  13  15
HETATM   15  C5  UNL     1      26.780   1.782  51.563  1.00  0.00     0.034 A 
HETATM   16  C6  UNL     1      27.403   2.387  52.588  1.00  0.00     0.032 A 
HETATM   17  C7  UNL     1      27.922   1.706  53.645  1.00  0.00     0.046 A 
HETATM   18  C8  UNL     1      27.842   0.299  53.715  1.00  0.00     0.138 A 
HETATM   19  F1  UNL     1      28.356  -0.345  54.804  1.00  0.00    -0.204 F 
HETATM   20  C9  UNL     1      27.193  -0.368  52.637  1.00  0.00     0.074 A 
HETATM   21 CL1  UNL     1      27.158  -2.087  52.875  1.00  0.00    -0.081 Cl
HETATM   22  C10 UNL     1      26.696   0.383  51.628  1.00  0.00     0.056 A 
ENDBRANCH  13  15
ENDBRANCH   7  13
BRANCH   8  23
HETATM   23  O1  UNL     1      23.404   2.818  51.211  1.00  0.00    -0.351 OA
HETATM   24  C12 UNL     1      23.431   2.537  52.626  1.00  0.00     0.210 C 
ENDBRANCH   8  23
BRANCH   9  25
HETATM   25  O2  UNL     1      22.319   5.225  51.198  1.00  0.00    -0.356 OA
HETATM   26  C14 UNL     1      21.045   5.256  50.824  1.00  0.00     0.209 C 
ENDBRANCH   9  25
TORSDOF 4
ENDMDL
MODEL 6
REMARK VINA RESULT:      -7.0      3.357      5.255
REMARK  4 active torsions:
REMARK  status: ('A' for Active; 'I' for Inactive)
REMARK    1  A    between atoms: C4_7  and  N3_8 
REMARK    2  A    between atoms: N3_8  and  C5_9 
REMARK    3  A    between atoms: C11_17  and  O1_18 
REMARK    4  A    between atoms: C13_20  and  O2_21 
ROOT
HETATM    1  C1  UNL     1      21.203  -0.182  54.582  1.00  0.00     0.030 A 
HETATM    2  S1  UNL     1      20.538  -0.035  53.614  1.00  0.00    -0.160 SA
HETATM    3  N1  UNL     1      18.914   0.300  51.380  1.00  0.00    -0.236 NA
HETATM    4  C2  UNL     1      19.894   0.686  51.030  1.00  0.00     0.239 C 
HETATM    5  N2  UNL     1      21.204   1.049  51.031  1.00  0.00    -0.243 NA
HETATM    6  C3  UNL     1      21.925   0.819  52.232  1.00  0.00     0.077 C 
HETATM    7  C4  UNL     1      22.864   1.377  51.357  1.00  0.00     0.095 C 
HETATM    8  C11 UNL     1      23.881   0.788  52.149  1.00  0.00     0.127 C 
HETATM    9  C13 UNL     1      23.785  -0.035  53.338  1.00  0.00     0.098 C 
HETATM   10  C15 UNL     1      22.612  -0.403  53.934  1.00  0.00     0.124 A 
HETATM   11  C16 UNL     1      20.486  -0.023  53.535  1.00  0.00     0.100 A 
HETATM   12  H2  UNL     1      19.743   0.145  52.506  1.00  0.00     0.127 HD
ENDROOT
BRANCH   7  13
HETATM   13  N3  UNL     1      23.245   2.085  50.285  1.00  0.00    -0.352 N 
HETATM   14  H4  UNL     1      23.050   1.374  49.591  1.00  0.00     0.166 HD
BRANCH  13  15
HETATM   15  C5  UNL     1      23.689   3.416  50.489  1.00  0.00     0.034 A 
HETATM   16  C6  UNL     1      23.270   4.434  51.257  1.00  0.00     0.032 A 
HETATM   17  C7  UNL     1      23.892   5.644  51.285  1.00  0.00     0.046 A 
HETATM   18  C8  UNL     1      25.024   5.900  50.483  1.00  0.00     0.138 A 
HETATM   19  F1  UNL     1      25.633   7.120  50.558  1.00  0.00    -0.204 F 
HETATM   20  C9  UNL     1      25.485   4.838  49.653  1.00  0.00     0.074 A 
HETATM   21 CL1  UNL     1      26.891   5.298  48.745  1.00  0.00    -0.081 Cl
HETATM   22  C10 UNL     1      24.815   3.664  49.691  1.00  0.00     0.056 A 
ENDBRANCH  13  15
ENDBRANCH   7  13
BRANCH   8  23
HETATM   23  O1  UNL     1      25.248   0.818  52.009  1.00  0.00    -0.351 OA
HETATM   24  C12 UNL     1      25.919   1.880  52.718  1.00  0.00     0.210 C 
ENDBRANCH   8  23
BRANCH   9  25
HETATM   25  O2  UNL     1      24.674  -0.639  54.136  1.00  0.00    -0.356 OA
HETATM   26  C14 UNL     1      24.987  -0.970  55.383  1.00  0.00     0.209 C 
ENDBRANCH   9  25
TORSDOF 4
ENDMDL
MODEL 7
REMARK VINA RESULT:      -6.8      3.711      5.908
REMARK  4 active torsions:
REMARK  status: ('A' for Active; 'I' for Inactive)
REMARK    1  A    between atoms: C4_7  and  N3_8 
REMARK    2  A    between atoms: N3_8  and  C5_9 
REMARK    3  A    between atoms: C11_17  and  O1_18 
REMARK    4  A    between atoms: C13_20  and  O2_21 
ROOT
HETATM    1  C1  UNL     1      22.601  -1.340  55.104  1.00  0.00     0.030 A 
HETATM    2  S1  UNL     1      21.530  -1.228  54.613  1.00  0.00    -0.160 SA
HETATM    3  N1  UNL     1      18.985  -1.006  53.511  1.00  0.00    -0.236 NA
HETATM    4  C2  UNL     1      19.547  -0.202  52.992  1.00  0.00     0.239 C 
HETATM    5  N2  UNL     1      20.565   0.622  52.629  1.00  0.00    -0.243 NA
HETATM    6  C3  UNL     1      21.818   0.401  53.261  1.00  0.00     0.077 C 
HETATM    7  C4  UNL     1      22.047   1.470  52.387  1.00  0.00     0.095 C 
HETATM    8  C11 UNL     1      23.424   1.140  52.423  1.00  0.00     0.127 C 
HETATM    9  C13 UNL     1      24.118   0.080  53.126  1.00  0.00     0.098 C 
HETATM   10  C15 UNL     1      23.512  -0.841  53.932  1.00  0.00     0.124 A 
HETATM   11  C16 UNL     1      21.444  -1.218  54.572  1.00  0.00     0.100 A 
HETATM   12  H2  UNL     1      20.274  -1.102  54.067  1.00  0.00     0.127 HD
ENDROOT
BRANCH   7  13
HETATM   13  N3  UNL     1      21.676   2.508  51.626  1.00  0.00    -0.352 N 
HETATM   14  H4  UNL     1      21.402   3.124  52.381  1.00  0.00     0.166 HD
BRANCH  13  15
HETATM   15  C5  UNL     1      21.822   2.390  50.221  1.00  0.00     0.034 A 
HETATM   16  C6  UNL     1      21.692   1.377  49.349  1.00  0.00     0.032 A 
HETATM   17  C7  UNL     1      21.878   1.526  48.009  1.00  0.00     0.046 A 
HETATM   18  C8  UNL     1      22.237   2.774  47.457  1.00  0.00     0.138 A 
HETATM   19  F1  UNL     1      22.392   2.886  46.106  1.00  0.00    -0.204 F 
HETATM   20  C9  UNL     1      22.390   3.863  48.362  1.00  0.00     0.074 A 
HETATM   21 CL1  UNL     1      22.813   5.329  47.535  1.00  0.00    -0.081 Cl
HETATM   22  C10 UNL     1      22.178   3.633  49.678  1.00  0.00     0.056 A 
ENDBRANCH  13  15
ENDBRANCH   7  13
BRANCH   8  23
HETATM   23  O1  UNL     1      24.495   1.724  51.788  1.00  0.00    -0.351 OA
HETATM   24  C12 UNL     1      24.983   2.941  52.391  1.00  0.00     0.210 C 
ENDBRANCH   8  23
BRANCH   9  25
HETATM   25  O2  UNL     1      25.395  -0.311  53.209  1.00  0.00    -0.356 OA
HETATM   26  C14 UNL     1      26.530  -0.228  53.895  1.00  0.00     0.209 C 
ENDBRANCH   9  25
TORSDOF 4
ENDMDL
MODEL 8
REMARK VINA RESULT:      -6.7      4.309      6.595
REMARK  4 active torsions:
REMARK  status: ('A' for Active; 'I' for Inactive)
REMARK    1  A    between atoms: C4_7  and  N3_8 
REMARK    2  A    between atoms: N3_8  and  C5_9 
REMARK    3  A    between atoms: C11_17  and  O1_18 
REMARK    4  A    between atoms: C13_20  and  O2_21 
ROOT
HETATM    1  C1  UNL     1      26.377   2.757  50.433  1.00  0.00     0.030 A 
HETATM    2  S1  UNL     1      25.551   3.490  50.858  1.00  0.00    -0.160 SA
HETATM    3  N1  UNL     1      23.631   5.266  51.809  1.00  0.00    -0.236 NA
HETATM    4  C2  UNL     1      23.298   4.295  52.232  1.00  0.00     0.239 C 
HETATM    5  N2  UNL     1      23.257   2.967  52.516  1.00  0.00    -0.243 NA
HETATM    6  C3  UNL     1      24.299   2.169  51.976  1.00  0.00     0.077 C 
HETATM    7  C4  UNL     1      23.504   1.270  52.697  1.00  0.00     0.095 C 
HETATM    8  C11 UNL     1      24.627   0.409  52.768  1.00  0.00     0.127 C 
HETATM    9  C13 UNL     1      25.971   0.575  52.252  1.00  0.00     0.098 C 
HETATM   10  C15 UNL     1      26.407   1.670  51.560  1.00  0.00     0.124 A 
HETATM   11  C16 UNL     1      25.484   3.548  50.893  1.00  0.00     0.100 A 
HETATM   12  H2  UNL     1      24.590   4.356  51.326  1.00  0.00     0.127 HD
ENDROOT
BRANCH   7  13
HETATM   13  N3  UNL     1      22.372   0.864  53.288  1.00  0.00    -0.352 N 
HETATM   14  H4  UNL     1      22.723   0.860  54.238  1.00  0.00     0.166 HD
BRANCH  13  15
HETATM   15  C5  UNL     1      21.234   0.653  52.471  1.00  0.00     0.034 A 
HETATM   16  C6  UNL     1      20.925   0.954  51.199  1.00  0.00     0.032 A 
HETATM   17  C7  UNL     1      19.737   0.621  50.627  1.00  0.00     0.046 A 
HETATM   18  C8  UNL     1      18.742  -0.061  51.359  1.00  0.00     0.138 A 
HETATM   19  F1  UNL     1      17.572  -0.397  50.741  1.00  0.00    -0.204 F 
HETATM   20  C9  UNL     1      19.041  -0.387  52.713  1.00  0.00     0.074 A 
HETATM   21 CL1  UNL     1      17.732  -1.238  53.472  1.00  0.00    -0.081 Cl
HETATM   22  C10 UNL     1      20.249  -0.027  53.203  1.00  0.00     0.056 A 
ENDBRANCH  13  15
ENDBRANCH   7  13
BRANCH   8  23
HETATM   23  O1  UNL     1      24.767  -0.825  53.358  1.00  0.00    -0.351 OA
HETATM   24  C12 UNL     1      24.902  -0.812  54.794  1.00  0.00     0.210 C 
ENDBRANCH   8  23
BRANCH   9  25
HETATM   25  O2  UNL     1      27.085  -0.167  52.279  1.00  0.00    -0.356 OA
HETATM   26  C14 UNL     1      28.099  -0.604  53.018  1.00  0.00     0.209 C 
ENDBRANCH   9  25
TORSDOF 4
ENDMDL
MODEL 9
REMARK VINA RESULT:      -6.6      3.588      5.348
REMARK  4 active torsions:
REMARK  status: ('A' for Active; 'I' for Inactive)
REMARK    1  A    between atoms: C4_7  and  N3_8 
REMARK    2  A    between atoms: N3_8  and  C5_9 
REMARK    3  A    between atoms: C11_17  and  O1_18 
REMARK    4  A    between atoms: C13_20  and  O2_21 
ROOT
HETATM    1  C1  UNL     1      23.416  -0.848  53.251  1.00  0.00     0.030 A 
HETATM    2  S1  UNL     1      24.315  -0.184  53.641  1.00  0.00    -0.160 SA
HETATM    3  N1  UNL     1      26.463   1.315  54.580  1.00  0.00    -0.236 NA
HETATM    4  C2  UNL     1      25.902   2.049  53.965  1.00  0.00     0.239 C 
HETATM    5  N2  UNL     1      24.955   2.579  53.148  1.00  0.00    -0.243 NA
HETATM    6  C3  UNL     1      23.906   1.711  52.744  1.00  0.00     0.077 C 
HETATM    7  C4  UNL     1      23.603   2.936  52.138  1.00  0.00     0.095 C 
HETATM    8  C11 UNL     1      22.256   2.506  52.054  1.00  0.00     0.127 C 
HETATM    9  C13 UNL     1      21.637   1.270  52.488  1.00  0.00     0.098 C 
HETATM   10  C15 UNL     1      22.300   0.240  53.092  1.00  0.00     0.124 A 
HETATM   11  C16 UNL     1      24.387  -0.129  53.672  1.00  0.00     0.100 A 
HETATM   12  H2  UNL     1      25.377   0.565  54.090  1.00  0.00     0.127 HD
ENDROOT
BRANCH   7  13
HETATM   13  N3  UNL     1      23.897   4.155  51.666  1.00  0.00    -0.352 N 
HETATM   14  H4  UNL     1      23.203   4.664  52.199  1.00  0.00     0.166 HD
BRANCH  13  15
HETATM   15  C5  UNL     1      24.961   4.271  50.738  1.00  0.00     0.034 A 
HETATM   16  C6  UNL     1      25.830   3.402  50.196  1.00  0.00     0.032 A 
HETATM   17  C7  UNL     1      26.778   3.769  49.292  1.00  0.00     0.046 A 
HETATM   18  C8  UNL     1      26.908   5.112  48.878  1.00  0.00     0.138 A 
HETATM   19  F1  UNL     1      27.858   5.435  47.952  1.00  0.00    -0.204 F 
HETATM   20  C9  UNL     1      26.004   6.056  49.444  1.00  0.00     0.074 A 
HETATM   21 CL1  UNL     1      26.277   7.655  48.825  1.00  0.00    -0.081 Cl
HETATM   22  C10 UNL     1      25.085   5.607  50.329  1.00  0.00     0.056 A 
ENDBRANCH  13  15
ENDBRANCH   7  13
BRANCH   8  23
HETATM   23  O1  UNL     1      21.148   3.144  51.549  1.00  0.00    -0.351 OA
HETATM   24  C12 UNL     1      21.041   3.151  50.110  1.00  0.00     0.210 C 
ENDBRANCH   8  23
BRANCH   9  25
HETATM   25  O2  UNL     1      20.389   0.786  52.462  1.00  0.00    -0.356 OA
HETATM   26  C14 UNL     1      19.564  -0.157  52.904  1.00  0.00     0.209 C 
ENDBRANCH   9  25
TORSDOF 4
ENDMDL
