MODEL 1
REMARK VINA RESULT:      -7.1      0.000      0.000
REMARK  6 active torsions:
REMARK  status: ('A' for Active; 'I' for Inactive)
REMARK    1  A    between atoms: N1_2  and  C2_3 
REMARK    2  A    between atoms: C3_4  and  N2_5 
REMARK    3  A    between atoms: N2_5  and  C4_6 
REMARK    4  A    between atoms: C11_16  and  O1_17 
REMARK    5  A    between atoms: O1_17  and  C12_18 
REMARK    6  A    between atoms: C13_19  and  C14_20 
ROOT
HETATM    1  C2  UNL     1      23.780   3.326  52.166  1.00  0.00     0.128 A 
HETATM    2  C3  UNL     1      23.247   4.613  52.226  1.00  0.00     0.160 A 
HETATM    3  N3  UNL     1      21.889   4.719  52.210  1.00  0.00    -0.222 NA
HETATM    4  C10 UNL     1      21.113   3.598  52.140  1.00  0.00     0.238 A 
HETATM    5  N4  UNL     1      21.676   2.381  52.083  1.00  0.00    -0.215 NA
HETATM    6  C11 UNL     1      23.013   2.193  52.094  1.00  0.00     0.201 A 
ENDROOT
BRANCH   2   7
HETATM    7  N2  UNL     1      24.085   5.757  52.306  1.00  0.00    -0.339 N 
HETATM    8  H5  UNL     1      24.589   6.019  53.183  1.00  0.00     0.167 HD
BRANCH   7   9
HETATM    9  C4  UNL     1      24.282   6.616  51.167  1.00  0.00     0.035 A 
HETATM   10  C5  UNL     1      23.423   7.630  50.832  1.00  0.00     0.029 A 
HETATM   11  C6  UNL     1      23.668   8.442  49.727  1.00  0.00     0.004 A 
HETATM   12  C7  UNL     1      24.787   8.242  48.938  1.00  0.00     0.019 A 
HETATM   13  C8  UNL     1      25.661   7.217  49.268  1.00  0.00     0.013 A 
HETATM   14 BR1  UNL     1      27.228   6.894  48.208  1.00  0.00    -0.051 Br
HETATM   15  C9  UNL     1      25.383   6.438  50.367  1.00  0.00     0.048 A 
ENDBRANCH   7   9
ENDBRANCH   2   7
BRANCH   1  16
HETATM   16  N1  UNL     1      25.193   3.237  52.182  1.00  0.00    -0.388 N 
HETATM   17  C1  UNL     1      26.144   2.847  51.186  1.00  0.00     0.146 C 
HETATM   18  H4  UNL     1      25.682   3.504  53.072  1.00  0.00     0.159 HD
ENDBRANCH   1  16
BRANCH   6  19
HETATM   19  O1  UNL     1      23.397   0.882  52.028  1.00  0.00    -0.302 OA
BRANCH  19  20
HETATM   20  C12 UNL     1      23.251   0.020  53.089  1.00  0.00     0.145 C 
HETATM   21  C13 UNL     1      24.179  -0.516  53.855  1.00  0.00     0.033 C 
BRANCH  21  22
HETATM   22  C14 UNL     1      25.610  -0.294  53.726  1.00  0.00    -0.035 C 
HETATM   23  C15 UNL     1      26.405  -0.860  52.811  1.00  0.00     0.008 C 
HETATM   24  C16 UNL     1      27.750  -0.336  53.077  1.00  0.00     0.196 C 
HETATM   25  O2  UNL     1      27.547   0.834  53.794  1.00  0.00    -0.383 OA
HETATM   26  C17 UNL     1      26.439   0.591  54.580  1.00  0.00     0.206 C 
ENDBRANCH  21  22
ENDBRANCH  19  20
ENDBRANCH   6  19
TORSDOF 6
ENDMDL
MODEL 2
REMARK VINA RESULT:      -7.0      3.015      4.189
REMARK  6 active torsions:
REMARK  status: ('A' for Active; 'I' for Inactive)
REMARK    1  A    between atoms: N1_2  and  C2_3 
REMARK    2  A    between atoms: C3_4  and  N2_5 
REMARK    3  A    between atoms: N2_5  and  C4_6 
REMARK    4  A    between atoms: C11_16  and  O1_17 
REMARK    5  A    between atoms: O1_17  and  C12_18 
REMARK    6  A    between atoms: C13_19  and  C14_20 
ROOT
HETATM    1  C2  UNL     1      23.255   0.870  52.958  1.00  0.00     0.128 A 
HETATM    2  C3  UNL     1      21.911   0.967  52.602  1.00  0.00     0.160 A 
HETATM    3  N3  UNL     1      21.095  -0.049  52.997  1.00  0.00    -0.222 NA
HETATM    4  C10 UNL     1      21.599  -1.100  53.707  1.00  0.00     0.238 A 
HETATM    5  N4  UNL     1      22.902  -1.147  54.024  1.00  0.00    -0.215 NA
HETATM    6  C11 UNL     1      23.776  -0.180  53.670  1.00  0.00     0.201 A 
ENDROOT
BRANCH   2   7
HETATM    7  N2  UNL     1      21.420   2.079  51.868  1.00  0.00    -0.339 N 
HETATM    8  H5  UNL     1      20.853   2.836  52.313  1.00  0.00     0.167 HD
BRANCH   7   9
HETATM    9  C4  UNL     1      21.687   2.216  50.459  1.00  0.00     0.035 A 
HETATM   10  C5  UNL     1      21.532   1.192  49.562  1.00  0.00     0.029 A 
HETATM   11  C6  UNL     1      21.790   1.382  48.206  1.00  0.00     0.004 A 
HETATM   12  C7  UNL     1      22.211   2.613  47.733  1.00  0.00     0.019 A 
HETATM   13  C8  UNL     1      22.371   3.654  48.635  1.00  0.00     0.013 A 
HETATM   14 BR1  UNL     1      22.953   5.382  48.033  1.00  0.00    -0.051 Br
HETATM   15  C9  UNL     1      22.106   3.426  49.964  1.00  0.00     0.048 A 
ENDBRANCH   7   9
ENDBRANCH   2   7
BRANCH   1  16
HETATM   16  N1  UNL     1      24.089   1.935  52.538  1.00  0.00    -0.388 N 
HETATM   17  C1  UNL     1      24.495   3.148  53.180  1.00  0.00     0.146 C 
HETATM   18  H4  UNL     1      24.520   1.862  51.585  1.00  0.00     0.159 HD
ENDBRANCH   1  16
BRANCH   6  19
HETATM   19  O1  UNL     1      25.060  -0.403  54.082  1.00  0.00    -0.302 OA
BRANCH  19  20
HETATM   20  C12 UNL     1      25.953  -1.136  53.335  1.00  0.00     0.145 C 
HETATM   21  C13 UNL     1      27.206  -0.861  53.038  1.00  0.00     0.033 C 
BRANCH  21  22
HETATM   22  C14 UNL     1      27.930   0.328  53.458  1.00  0.00    -0.035 C 
HETATM   23  C15 UNL     1      27.796   1.549  52.926  1.00  0.00     0.008 C 
HETATM   24  C16 UNL     1      28.723   2.409  53.671  1.00  0.00     0.196 C 
HETATM   25  O2  UNL     1      28.956   1.741  54.865  1.00  0.00    -0.383 OA
HETATM   26  C17 UNL     1      28.942   0.400  54.540  1.00  0.00     0.206 C 
ENDBRANCH  21  22
ENDBRANCH  19  20
ENDBRANCH   6  19
TORSDOF 6
ENDMDL
MODEL 3
REMARK VINA RESULT:      -6.8      5.075      7.980
REMARK  6 active torsions:
REMARK  status: ('A' for Active; 'I' for Inactive)
REMARK    1  A    between atoms: N1_2  and  C2_3 
REMARK    2  A    between atoms: C3_4  and  N2_5 
REMARK    3  A    between atoms: N2_5  and  C4_6 
REMARK    4  A    between atoms: C11_16  and  O1_17 
REMARK    5  A    between atoms: O1_17  and  C12_18 
REMARK    6  A    between atoms: C13_19  and  C14_20 
ROOT
HETATM    1  C2  UNL     1      21.306  -0.030  53.179  1.00  0.00     0.128 A 
HETATM    2  C3  UNL     1      19.956  -0.162  52.856  1.00  0.00     0.160 A 
HETATM    3  N3  UNL     1      19.594   0.154  51.583  1.00  0.00    -0.222 NA
HETATM    4  C10 UNL     1      20.532   0.579  50.686  1.00  0.00     0.238 A 
HETATM    5  N4  UNL     1      21.820   0.691  51.047  1.00  0.00    -0.215 NA
HETATM    6  C11 UNL     1      22.259   0.396  52.290  1.00  0.00     0.201 A 
ENDROOT
BRANCH   2   7
HETATM    7  N2  UNL     1      19.010  -0.615  53.814  1.00  0.00    -0.339 N 
HETATM    8  H5  UNL     1      19.017  -0.285  54.805  1.00  0.00     0.167 HD
BRANCH   7   9
HETATM    9  C4  UNL     1      17.983  -1.560  53.455  1.00  0.00     0.035 A 
HETATM   10  C5  UNL     1      18.030  -2.886  53.796  1.00  0.00     0.029 A 
HETATM   11  C6  UNL     1      17.003  -3.756  53.437  1.00  0.00     0.004 A 
HETATM   12  C7  UNL     1      15.909  -3.299  52.723  1.00  0.00     0.019 A 
HETATM   13  C8  UNL     1      15.854  -1.959  52.372  1.00  0.00     0.013 A 
HETATM   14 BR1  UNL     1      14.360  -1.272  51.382  1.00  0.00    -0.051 Br
HETATM   15  C9  UNL     1      16.888  -1.134  52.746  1.00  0.00     0.048 A 
ENDBRANCH   7   9
ENDBRANCH   2   7
BRANCH   1  16
HETATM   16  N1  UNL     1      21.664  -0.363  54.508  1.00  0.00    -0.388 N 
HETATM   17  C1  UNL     1      22.288  -1.520  55.075  1.00  0.00     0.146 C 
HETATM   18  H4  UNL     1      21.459   0.345  55.255  1.00  0.00     0.159 HD
ENDBRANCH   1  16
BRANCH   6  19
HETATM   19  O1  UNL     1      23.602   0.573  52.469  1.00  0.00    -0.302 OA
BRANCH  19  20
HETATM   20  C12 UNL     1      24.135   1.768  52.894  1.00  0.00     0.145 C 
HETATM   21  C13 UNL     1      25.317   2.005  53.425  1.00  0.00     0.033 C 
BRANCH  21  22
HETATM   22  C14 UNL     1      26.342   1.007  53.680  1.00  0.00    -0.035 C 
HETATM   23  C15 UNL     1      27.337   0.683  52.846  1.00  0.00     0.008 C 
HETATM   24  C16 UNL     1      28.104  -0.363  53.533  1.00  0.00     0.196 C 
HETATM   25  O2  UNL     1      27.789  -0.219  54.876  1.00  0.00    -0.383 OA
HETATM   26  C17 UNL     1      26.466   0.172  54.900  1.00  0.00     0.206 C 
ENDBRANCH  21  22
ENDBRANCH  19  20
ENDBRANCH   6  19
TORSDOF 6
ENDMDL
MODEL 4
REMARK VINA RESULT:      -6.7      4.454      7.048
REMARK  6 active torsions:
REMARK  status: ('A' for Active; 'I' for Inactive)
REMARK    1  A    between atoms: N1_2  and  C2_3 
REMARK    2  A    between atoms: C3_4  and  N2_5 
REMARK    3  A    between atoms: N2_5  and  C4_6 
REMARK    4  A    between atoms: C11_16  and  O1_17 
REMARK    5  A    between atoms: O1_17  and  C12_18 
REMARK    6  A    between atoms: C13_19  and  C14_20 
ROOT
HETATM    1  C2  UNL     1      22.463   0.137  53.106  1.00  0.00     0.128 A 
HETATM    2  C3  UNL     1      23.780  -0.250  53.351  1.00  0.00     0.160 A 
HETATM    3  N3  UNL     1      24.010  -0.967  54.486  1.00  0.00    -0.222 NA
HETATM    4  C10 UNL     1      22.978  -1.277  55.324  1.00  0.00     0.238 A 
HETATM    5  N4  UNL     1      21.727  -0.880  55.043  1.00  0.00    -0.215 NA
HETATM    6  C11 UNL     1      21.418  -0.167  53.939  1.00  0.00     0.201 A 
ENDROOT
BRANCH   2   7
HETATM    7  N2  UNL     1      24.828   0.084  52.452  1.00  0.00    -0.339 N 
HETATM    8  H5  UNL     1      24.733  -0.029  51.418  1.00  0.00     0.167 HD
BRANCH   7   9
HETATM    9  C4  UNL     1      26.083   0.603  52.933  1.00  0.00     0.035 A 
HETATM   10  C5  UNL     1      26.260   1.906  53.319  1.00  0.00     0.029 A 
HETATM   11  C6  UNL     1      27.492   2.353  53.791  1.00  0.00     0.004 A 
HETATM   12  C7  UNL     1      28.570   1.488  53.880  1.00  0.00     0.019 A 
HETATM   13  C8  UNL     1      28.399   0.169  53.491  1.00  0.00     0.013 A 
HETATM   14 BR1  UNL     1      29.860  -1.073  53.594  1.00  0.00    -0.051 Br
HETATM   15  C9  UNL     1      27.167  -0.233  53.031  1.00  0.00     0.048 A 
ENDBRANCH   7   9
ENDBRANCH   2   7
BRANCH   1  16
HETATM   16  N1  UNL     1      22.244   0.882  51.921  1.00  0.00    -0.388 N 
HETATM   17  C1  UNL     1      22.058   2.281  51.686  1.00  0.00     0.146 C 
HETATM   18  H4  UNL     1      22.211   0.350  51.017  1.00  0.00     0.159 HD
ENDBRANCH   1  16
BRANCH   6  19
HETATM   19  O1  UNL     1      20.092   0.147  53.824  1.00  0.00    -0.302 OA
BRANCH  19  20
HETATM   20  C12 UNL     1      19.153  -0.773  53.421  1.00  0.00     0.145 C 
HETATM   21  C13 UNL     1      18.316  -0.711  52.405  1.00  0.00     0.033 C 
BRANCH  21  22
HETATM   22  C14 UNL     1      18.214   0.392  51.464  1.00  0.00    -0.035 C 
HETATM   23  C15 UNL     1      19.018   0.595  50.413  1.00  0.00     0.008 C 
HETATM   24  C16 UNL     1      18.527   1.821  49.771  1.00  0.00     0.196 C 
HETATM   25  O2  UNL     1      17.217   1.957  50.204  1.00  0.00    -0.383 OA
HETATM   26  C17 UNL     1      17.211   1.484  51.501  1.00  0.00     0.206 C 
ENDBRANCH  21  22
ENDBRANCH  19  20
ENDBRANCH   6  19
TORSDOF 6
ENDMDL
MODEL 5
REMARK VINA RESULT:      -6.7      3.185      6.733
REMARK  6 active torsions:
REMARK  status: ('A' for Active; 'I' for Inactive)
REMARK    1  A    between atoms: N1_2  and  C2_3 
REMARK    2  A    between atoms: C3_4  and  N2_5 
REMARK    3  A    between atoms: N2_5  and  C4_6 
REMARK    4  A    between atoms: C11_16  and  O1_17 
REMARK    5  A    between atoms: O1_17  and  C12_18 
REMARK    6  A    between atoms: C13_19  and  C14_20 
ROOT
HETATM    1  C2  UNL     1      24.274   4.392  50.792  1.00  0.00     0.128 A 
HETATM    2  C3  UNL     1      23.771   4.076  52.053  1.00  0.00     0.160 A 
HETATM    3  N3  UNL     1      22.423   4.170  52.219  1.00  0.00    -0.222 NA
HETATM    4  C10 UNL     1      21.627   4.557  51.179  1.00  0.00     0.238 A 
HETATM    5  N4  UNL     1      22.161   4.852  49.984  1.00  0.00    -0.215 NA
HETATM    6  C11 UNL     1      23.488   4.783  49.739  1.00  0.00     0.201 A 
ENDROOT
BRANCH   2   7
HETATM    7  N2  UNL     1      24.629   3.669  53.109  1.00  0.00    -0.339 N 
HETATM    8  H5  UNL     1      25.053   4.351  53.778  1.00  0.00     0.167 HD
BRANCH   7   9
HETATM    9  C4  UNL     1      24.955   2.281  53.309  1.00  0.00     0.035 A 
HETATM   10  C5  UNL     1      24.090   1.256  53.025  1.00  0.00     0.029 A 
HETATM   11  C6  UNL     1      24.461  -0.072  53.222  1.00  0.00     0.004 A 
HETATM   12  C7  UNL     1      25.716  -0.388  53.714  1.00  0.00     0.019 A 
HETATM   13  C8  UNL     1      26.597   0.642  54.006  1.00  0.00     0.013 A 
HETATM   14 BR1  UNL     1      28.349   0.260  54.691  1.00  0.00    -0.051 Br
HETATM   15  C9  UNL     1      26.192   1.939  53.797  1.00  0.00     0.048 A 
ENDBRANCH   7   9
ENDBRANCH   2   7
BRANCH   1  16
HETATM   16  N1  UNL     1      25.679   4.290  50.638  1.00  0.00    -0.388 N 
HETATM   17  C1  UNL     1      26.504   3.350  49.943  1.00  0.00     0.146 C 
HETATM   18  H4  UNL     1      26.268   5.025  51.099  1.00  0.00     0.159 HD
ENDBRANCH   1  16
BRANCH   6  19
HETATM   19  O1  UNL     1      23.843   5.122  48.463  1.00  0.00    -0.302 OA
BRANCH  19  20
HETATM   20  C12 UNL     1      23.569   6.359  47.929  1.00  0.00     0.145 C 
HETATM   21  C13 UNL     1      24.330   7.433  47.894  1.00  0.00     0.033 C 
BRANCH  21  22
HETATM   22  C14 UNL     1      25.674   7.532  48.438  1.00  0.00    -0.035 C 
HETATM   23  C15 UNL     1      26.806   7.316  47.758  1.00  0.00     0.008 C 
HETATM   24  C16 UNL     1      27.893   7.531  48.722  1.00  0.00     0.196 C 
HETATM   25  O2  UNL     1      27.337   8.309  49.727  1.00  0.00    -0.383 OA
HETATM   26  C17 UNL     1      26.029   7.882  49.835  1.00  0.00     0.206 C 
ENDBRANCH  21  22
ENDBRANCH  19  20
ENDBRANCH   6  19
TORSDOF 6
ENDMDL
MODEL 6
REMARK VINA RESULT:      -6.7      4.001      5.742
REMARK  6 active torsions:
REMARK  status: ('A' for Active; 'I' for Inactive)
REMARK    1  A    between atoms: N1_2  and  C2_3 
REMARK    2  A    between atoms: C3_4  and  N2_5 
REMARK    3  A    between atoms: N2_5  and  C4_6 
REMARK    4  A    between atoms: C11_16  and  O1_17 
REMARK    5  A    between atoms: O1_17  and  C12_18 
REMARK    6  A    between atoms: C13_19  and  C14_20 
ROOT
HETATM    1  C2  UNL     1      23.028   0.854  53.004  1.00  0.00     0.128 A 
HETATM    2  C3  UNL     1      21.647   0.921  52.821  1.00  0.00     0.160 A 
HETATM    3  N3  UNL     1      20.901  -0.052  53.413  1.00  0.00    -0.222 NA
HETATM    4  C10 UNL     1      21.505  -1.033  54.144  1.00  0.00     0.238 A 
HETATM    5  N4  UNL     1      22.839  -1.054  54.289  1.00  0.00    -0.215 NA
HETATM    6  C11 UNL     1      23.648  -0.125  53.735  1.00  0.00     0.201 A 
ENDROOT
BRANCH   2   7
HETATM    7  N2  UNL     1      21.052   1.961  52.059  1.00  0.00    -0.339 N 
HETATM    8  H5  UNL     1      21.537   2.870  51.881  1.00  0.00     0.167 HD
BRANCH   7   9
HETATM    9  C4  UNL     1      19.738   1.808  51.490  1.00  0.00     0.035 A 
HETATM   10  C5  UNL     1      19.398   0.781  50.649  1.00  0.00     0.029 A 
HETATM   11  C6  UNL     1      18.106   0.670  50.137  1.00  0.00     0.004 A 
HETATM   12  C7  UNL     1      17.135   1.600  50.467  1.00  0.00     0.019 A 
HETATM   13  C8  UNL     1      17.471   2.642  51.317  1.00  0.00     0.013 A 
HETATM   14 BR1  UNL     1      16.162   3.959  51.807  1.00  0.00    -0.051 Br
HETATM   15  C9  UNL     1      18.756   2.716  51.800  1.00  0.00     0.048 A 
ENDBRANCH   7   9
ENDBRANCH   2   7
BRANCH   1  16
HETATM   16  N1  UNL     1      23.788   1.875  52.381  1.00  0.00    -0.388 N 
HETATM   17  C1  UNL     1      24.417   3.053  52.893  1.00  0.00     0.146 C 
HETATM   18  H4  UNL     1      23.954   1.789  51.348  1.00  0.00     0.159 HD
ENDBRANCH   1  16
BRANCH   6  19
HETATM   19  O1  UNL     1      24.978  -0.312  53.991  1.00  0.00    -0.302 OA
BRANCH  19  20
HETATM   20  C12 UNL     1      25.808  -0.973  53.117  1.00  0.00     0.145 C 
HETATM   21  C13 UNL     1      27.057  -0.704  52.796  1.00  0.00     0.033 C 
BRANCH  21  22
HETATM   22  C14 UNL     1      27.844   0.398  53.326  1.00  0.00    -0.035 C 
HETATM   23  C15 UNL     1      27.802   1.663  52.892  1.00  0.00     0.008 C 
HETATM   24  C16 UNL     1      28.763   2.399  53.724  1.00  0.00     0.196 C 
HETATM   25  O2  UNL     1      28.920   1.625  54.864  1.00  0.00    -0.383 OA
HETATM   26  C17 UNL     1      28.829   0.317  54.433  1.00  0.00     0.206 C 
ENDBRANCH  21  22
ENDBRANCH  19  20
ENDBRANCH   6  19
TORSDOF 6
ENDMDL
MODEL 7
REMARK VINA RESULT:      -6.7      3.377      7.151
REMARK  6 active torsions:
REMARK  status: ('A' for Active; 'I' for Inactive)
REMARK    1  A    between atoms: N1_2  and  C2_3 
REMARK    2  A    between atoms: C3_4  and  N2_5 
REMARK    3  A    between atoms: N2_5  and  C4_6 
REMARK    4  A    between atoms: C11_16  and  O1_17 
REMARK    5  A    between atoms: O1_17  and  C12_18 
REMARK    6  A    between atoms: C13_19  and  C14_20 
ROOT
HETATM    1  C2  UNL     1      24.888   2.871  51.133  1.00  0.00     0.128 A 
HETATM    2  C3  UNL     1      24.697   2.485  52.459  1.00  0.00     0.160 A 
HETATM    3  N3  UNL     1      25.810   2.155  53.171  1.00  0.00    -0.222 NA
HETATM    4  C10 UNL     1      27.042   2.211  52.586  1.00  0.00     0.238 A 
HETATM    5  N4  UNL     1      27.173   2.589  51.304  1.00  0.00    -0.215 NA
HETATM    6  C11 UNL     1      26.119   2.931  50.533  1.00  0.00     0.201 A 
ENDROOT
BRANCH   2   7
HETATM    7  N2  UNL     1      23.400   2.445  53.037  1.00  0.00    -0.339 N 
HETATM    8  H5  UNL     1      22.919   3.304  53.388  1.00  0.00     0.167 HD
BRANCH   7   9
HETATM    9  C4  UNL     1      22.682   1.204  53.167  1.00  0.00     0.035 A 
HETATM   10  C5  UNL     1      23.228   0.072  53.715  1.00  0.00     0.029 A 
HETATM   11  C6  UNL     1      22.483  -1.100  53.830  1.00  0.00     0.004 A 
HETATM   12  C7  UNL     1      21.172  -1.150  53.390  1.00  0.00     0.019 A 
HETATM   13  C8  UNL     1      20.612  -0.010  52.834  1.00  0.00     0.013 A 
HETATM   14 BR1  UNL     1      18.797  -0.023  52.207  1.00  0.00    -0.051 Br
HETATM   15  C9  UNL     1      21.380   1.127  52.738  1.00  0.00     0.048 A 
ENDBRANCH   7   9
ENDBRANCH   2   7
BRANCH   1  16
HETATM   16  N1  UNL     1      23.719   3.209  50.409  1.00  0.00    -0.388 N 
HETATM   17  C1  UNL     1      22.894   2.461  49.510  1.00  0.00     0.146 C 
HETATM   18  H4  UNL     1      23.343   4.182  50.528  1.00  0.00     0.159 HD
ENDBRANCH   1  16
BRANCH   6  19
HETATM   19  O1  UNL     1      26.449   3.286  49.254  1.00  0.00    -0.302 OA
BRANCH  19  20
HETATM   20  C12 UNL     1      27.147   4.436  48.969  1.00  0.00     0.145 C 
HETATM   21  C13 UNL     1      26.719   5.682  48.948  1.00  0.00     0.033 C 
BRANCH  21  22
HETATM   22  C14 UNL     1      25.359   6.110  49.233  1.00  0.00    -0.035 C 
HETATM   23  C15 UNL     1      24.358   6.164  48.346  1.00  0.00     0.008 C 
HETATM   24  C16 UNL     1      23.193   6.652  49.094  1.00  0.00     0.196 C 
HETATM   25  O2  UNL     1      23.479   6.384  50.424  1.00  0.00    -0.383 OA
HETATM   26  C17 UNL     1      24.842   6.563  50.547  1.00  0.00     0.206 C 
ENDBRANCH  21  22
ENDBRANCH  19  20
ENDBRANCH   6  19
TORSDOF 6
ENDMDL
MODEL 8
REMARK VINA RESULT:      -6.7      1.793      2.474
REMARK  6 active torsions:
REMARK  status: ('A' for Active; 'I' for Inactive)
REMARK    1  A    between atoms: N1_2  and  C2_3 
REMARK    2  A    between atoms: C3_4  and  N2_5 
REMARK    3  A    between atoms: N2_5  and  C4_6 
REMARK    4  A    between atoms: C11_16  and  O1_17 
REMARK    5  A    between atoms: O1_17  and  C12_18 
REMARK    6  A    between atoms: C13_19  and  C14_20 
ROOT
HETATM    1  C2  UNL     1      24.544   3.637  51.092  1.00  0.00     0.128 A 
HETATM    2  C3  UNL     1      24.263   4.668  50.196  1.00  0.00     0.160 A 
HETATM    3  N3  UNL     1      23.311   5.566  50.571  1.00  0.00    -0.222 NA
HETATM    4  C10 UNL     1      22.679   5.436  51.774  1.00  0.00     0.238 A 
HETATM    5  N4  UNL     1      22.985   4.424  52.601  1.00  0.00    -0.215 NA
HETATM    6  C11 UNL     1      23.917   3.494  52.302  1.00  0.00     0.201 A 
ENDROOT
BRANCH   2   7
HETATM    7  N2  UNL     1      24.946   4.775  48.956  1.00  0.00    -0.339 N 
HETATM    8  H5  UNL     1      24.631   4.266  48.099  1.00  0.00     0.167 HD
BRANCH   7   9
HETATM    9  C4  UNL     1      26.117   5.603  48.821  1.00  0.00     0.035 A 
HETATM   10  C5  UNL     1      27.368   5.101  48.573  1.00  0.00     0.029 A 
HETATM   11  C6  UNL     1      28.466   5.947  48.436  1.00  0.00     0.004 A 
HETATM   12  C7  UNL     1      28.319   7.319  48.552  1.00  0.00     0.019 A 
HETATM   13  C8  UNL     1      27.057   7.834  48.805  1.00  0.00     0.013 A 
HETATM   14 BR1  UNL     1      26.797   9.729  48.974  1.00  0.00    -0.051 Br
HETATM   15  C9  UNL     1      26.000   6.966  48.932  1.00  0.00     0.048 A 
ENDBRANCH   7   9
ENDBRANCH   2   7
BRANCH   1  16
HETATM   16  N1  UNL     1      25.537   2.712  50.684  1.00  0.00    -0.388 N 
HETATM   17  C1  UNL     1      26.866   2.462  51.150  1.00  0.00     0.146 C 
HETATM   18  H4  UNL     1      25.294   2.060  49.899  1.00  0.00     0.159 HD
ENDBRANCH   1  16
BRANCH   6  19
HETATM   19  O1  UNL     1      24.090   2.541  53.267  1.00  0.00    -0.302 OA
BRANCH  19  20
HETATM   20  C12 UNL     1      23.516   1.294  53.178  1.00  0.00     0.145 C 
HETATM   21  C13 UNL     1      24.091   0.111  53.248  1.00  0.00     0.033 C 
BRANCH  21  22
HETATM   22  C14 UNL     1      25.512  -0.125  53.443  1.00  0.00    -0.035 C 
HETATM   23  C15 UNL     1      26.319  -0.764  52.587  1.00  0.00     0.008 C 
HETATM   24  C16 UNL     1      27.647  -0.754  53.213  1.00  0.00     0.196 C 
HETATM   25  O2  UNL     1      27.607   0.287  54.129  1.00  0.00    -0.383 OA
HETATM   26  C17 UNL     1      26.316   0.293  54.617  1.00  0.00     0.206 C 
ENDBRANCH  21  22
ENDBRANCH  19  20
ENDBRANCH   6  19
TORSDOF 6
ENDMDL
MODEL 9
REMARK VINA RESULT:      -6.6      3.623      6.394
REMARK  6 active torsions:
REMARK  status: ('A' for Active; 'I' for Inactive)
REMARK    1  A    between atoms: N1_2  and  C2_3 
REMARK    2  A    between atoms: C3_4  and  N2_5 
REMARK    3  A    between atoms: N2_5  and  C4_6 
REMARK    4  A    between atoms: C11_16  and  O1_17 
REMARK    5  A    between atoms: O1_17  and  C12_18 
REMARK    6  A    between atoms: C13_19  and  C14_20 
ROOT
HETATM    1  C2  UNL     1      23.302   1.571  52.118  1.00  0.00     0.128 A 
HETATM    2  C3  UNL     1      24.390   0.747  52.404  1.00  0.00     0.160 A 
HETATM    3  N3  UNL     1      24.194  -0.232  53.329  1.00  0.00    -0.222 NA
HETATM    4  C10 UNL     1      22.978  -0.375  53.932  1.00  0.00     0.238 A 
HETATM    5  N4  UNL     1      21.962   0.446  53.623  1.00  0.00    -0.215 NA
HETATM    6  C11 UNL     1      22.076   1.440  52.716  1.00  0.00     0.201 A 
ENDROOT
BRANCH   2   7
HETATM    7  N2  UNL     1      25.639   0.920  51.750  1.00  0.00    -0.339 N 
HETATM    8  H5  UNL     1      25.727   0.938  50.709  1.00  0.00     0.167 HD
BRANCH   7   9
HETATM    9  C4  UNL     1      26.856   1.083  52.504  1.00  0.00     0.035 A 
HETATM   10  C5  UNL     1      27.264   2.284  53.023  1.00  0.00     0.029 A 
HETATM   11  C6  UNL     1      28.443   2.385  53.758  1.00  0.00     0.004 A 
HETATM   12  C7  UNL     1      29.233   1.270  53.980  1.00  0.00     0.019 A 
HETATM   13  C8  UNL     1      28.828   0.051  53.458  1.00  0.00     0.013 A 
HETATM   14 BR1  UNL     1      29.887  -1.527  53.735  1.00  0.00    -0.051 Br
HETATM   15  C9  UNL     1      27.658  -0.005  52.738  1.00  0.00     0.048 A 
ENDBRANCH   7   9
ENDBRANCH   2   7
BRANCH   1  16
HETATM   16  N1  UNL     1      23.525   2.584  51.153  1.00  0.00    -0.388 N 
HETATM   17  C1  UNL     1      23.709   3.998  51.268  1.00  0.00     0.146 C 
HETATM   18  H4  UNL     1      23.582   2.287  50.148  1.00  0.00     0.159 HD
ENDBRANCH   1  16
BRANCH   6  19
HETATM   19  O1  UNL     1      20.935   2.171  52.536  1.00  0.00    -0.302 OA
BRANCH  19  20
HETATM   20  C12 UNL     1      19.811   1.644  51.945  1.00  0.00     0.145 C 
HETATM   21  C13 UNL     1      19.544   1.487  50.665  1.00  0.00     0.033 C 
BRANCH  21  22
HETATM   22  C14 UNL     1      20.425   1.858  49.569  1.00  0.00    -0.035 C 
HETATM   23  C15 UNL     1      20.499   3.070  49.006  1.00  0.00     0.008 C 
HETATM   24  C16 UNL     1      21.518   2.956  47.955  1.00  0.00     0.196 C 
HETATM   25  O2  UNL     1      22.279   1.851  48.307  1.00  0.00    -0.383 OA
HETATM   26  C17 UNL     1      21.391   0.965  48.882  1.00  0.00     0.206 C 
ENDBRANCH  21  22
ENDBRANCH  19  20
ENDBRANCH   6  19
TORSDOF 6
ENDMDL
