MODEL 1
REMARK VINA RESULT:      -9.7      0.000      0.000
REMARK  1 active torsions:
REMARK  status: ('A' for Active; 'I' for Inactive)
REMARK    1  A    between atoms: O1_1  and  C1_2 
ROOT
HETATM    1  C1  UNL     1      26.991   4.075  49.313  1.00  0.00     0.275 C 
HETATM    2  N1  UNL     1      26.995   3.360  50.625  1.00  0.00    -0.269 NA
HETATM    3  C2  UNL     1      26.086   2.427  50.767  1.00  0.00     0.091 C 
HETATM    4  C3  UNL     1      25.782   1.542  51.882  1.00  0.00     0.085 C 
HETATM    5  C4  UNL     1      24.362   1.318  52.234  1.00  0.00    -0.050 C 
HETATM    6  C5  UNL     1      23.051   1.685  51.893  1.00  0.00    -0.056 C 
HETATM    7  C6  UNL     1      22.023   1.072  52.680  1.00  0.00     0.040 C 
HETATM    8  C7  UNL     1      20.766   1.386  53.299  1.00  0.00     0.031 C 
HETATM    9  C8  UNL     1      20.724   0.256  54.383  1.00  0.00    -0.030 C 
HETATM   10  C9  UNL     1      21.517  -0.812  54.793  1.00  0.00    -0.027 C 
HETATM   11  C10 UNL     1      22.678  -0.938  54.030  1.00  0.00     0.054 C 
HETATM   12  C11 UNL     1      24.083  -0.797  54.105  1.00  0.00    -0.022 C 
HETATM   13  C12 UNL     1      24.367   0.190  53.249  1.00  0.00     0.004 C 
HETATM   14  C13 UNL     1      22.300   2.690  51.009  1.00  0.00     0.150 C 
HETATM   15  N2  UNL     1      23.174   3.570  50.492  1.00  0.00    -0.406 N 
HETATM   16  C14 UNL     1      23.293   4.486  49.421  1.00  0.00     0.135 A 
HETATM   17  C15 UNL     1      24.725   4.033  48.978  1.00  0.00     0.015 A 
HETATM   18  C16 UNL     1      25.663   4.815  49.399  1.00  0.00     0.001 A 
HETATM   19  C17 UNL     1      25.189   6.018  50.038  1.00  0.00    -0.017 A 
HETATM   20  C18 UNL     1      25.100   7.186  50.632  1.00  0.00     0.013 A 
HETATM   21  C19 UNL     1      23.631   6.995  50.625  1.00  0.00     0.011 A 
HETATM   22  C20 UNL     1      23.720   5.818  50.040  1.00  0.00    -0.021 A 
HETATM   23  H18 UNL     1      23.836   3.972  51.269  1.00  0.00     0.154 HD
ENDROOT
BRANCH   1  24
HETATM   24  O1  UNL     1      28.037   4.934  49.288  1.00  0.00    -0.371 OA
HETATM   25  H1  UNL     1      28.925   4.541  49.446  1.00  0.00     0.212 HD
ENDBRANCH   1  24
TORSDOF 1
ENDMDL
MODEL 2
REMARK VINA RESULT:      -8.7      2.333      6.591
REMARK  1 active torsions:
REMARK  status: ('A' for Active; 'I' for Inactive)
REMARK    1  A    between atoms: O1_1  and  C1_2 
ROOT
HETATM    1  C1  UNL     1      24.953   0.661  52.934  1.00  0.00     0.275 C 
HETATM    2  N1  UNL     1      25.751   0.993  51.715  1.00  0.00    -0.269 NA
HETATM    3  C2  UNL     1      26.012   2.265  51.536  1.00  0.00     0.091 C 
HETATM    4  C3  UNL     1      26.740   2.957  50.483  1.00  0.00     0.085 C 
HETATM    5  C4  UNL     1      26.176   4.217  49.950  1.00  0.00    -0.050 C 
HETATM    6  C5  UNL     1      25.079   5.088  50.055  1.00  0.00    -0.056 C 
HETATM    7  C6  UNL     1      25.123   6.229  49.191  1.00  0.00     0.040 C 
HETATM    8  C7  UNL     1      24.260   7.027  48.365  1.00  0.00     0.031 C 
HETATM    9  C8  UNL     1      25.329   7.652  47.406  1.00  0.00    -0.030 C 
HETATM   10  C9  UNL     1      26.709   7.605  47.226  1.00  0.00    -0.027 C 
HETATM   11  C10 UNL     1      27.341   6.784  48.160  1.00  0.00     0.054 C 
HETATM   12  C11 UNL     1      28.036   5.558  48.279  1.00  0.00    -0.022 C 
HETATM   13  C12 UNL     1      27.257   4.807  49.065  1.00  0.00     0.004 C 
HETATM   14  C13 UNL     1      23.695   5.166  50.714  1.00  0.00     0.150 C 
HETATM   15  N2  UNL     1      23.394   3.977  51.263  1.00  0.00    -0.406 N 
HETATM   16  C14 UNL     1      22.544   3.414  52.242  1.00  0.00     0.135 A 
HETATM   17  C15 UNL     1      23.646   2.544  52.935  1.00  0.00     0.015 A 
HETATM   18  C16 UNL     1      23.618   1.302  52.580  1.00  0.00     0.001 A 
HETATM   19  C17 UNL     1      22.485   0.946  51.761  1.00  0.00    -0.017 A 
HETATM   20  C18 UNL     1      21.592   0.302  51.046  1.00  0.00     0.013 A 
HETATM   21  C19 UNL     1      20.912   1.604  50.856  1.00  0.00     0.011 A 
HETATM   22  C20 UNL     1      21.814   2.254  51.562  1.00  0.00    -0.021 A 
HETATM   23  H18 UNL     1      23.574   3.158  50.555  1.00  0.00     0.154 HD
ENDROOT
BRANCH   1  24
HETATM   24  O1  UNL     1      24.848  -0.685  53.027  1.00  0.00    -0.371 OA
HETATM   25  H1  UNL     1      24.582  -1.157  52.205  1.00  0.00     0.212 HD
ENDBRANCH   1  24
TORSDOF 1
ENDMDL
MODEL 3
REMARK VINA RESULT:      -8.4      1.701      2.583
REMARK  1 active torsions:
REMARK  status: ('A' for Active; 'I' for Inactive)
REMARK    1  A    between atoms: O1_1  and  C1_2 
ROOT
HETATM    1  C1  UNL     1      25.384   6.376  48.103  1.00  0.00     0.275 C 
HETATM    2  N1  UNL     1      26.194   5.734  49.183  1.00  0.00    -0.269 NA
HETATM    3  C2  UNL     1      25.973   4.457  49.376  1.00  0.00     0.091 C 
HETATM    4  C3  UNL     1      26.551   3.513  50.321  1.00  0.00     0.085 C 
HETATM    5  C4  UNL     1      25.649   2.558  51.002  1.00  0.00    -0.050 C 
HETATM    6  C5  UNL     1      24.302   2.182  51.127  1.00  0.00    -0.056 C 
HETATM    7  C6  UNL     1      24.054   1.094  52.024  1.00  0.00     0.040 C 
HETATM    8  C7  UNL     1      23.111   0.673  53.021  1.00  0.00     0.031 C 
HETATM    9  C8  UNL     1      24.007  -0.338  53.813  1.00  0.00    -0.030 C 
HETATM   10  C9  UNL     1      25.308  -0.832  53.753  1.00  0.00    -0.027 C 
HETATM   11  C10 UNL     1      26.032  -0.299  52.688  1.00  0.00     0.054 C 
HETATM   12  C11 UNL     1      27.112   0.565  52.394  1.00  0.00    -0.022 C 
HETATM   13  C12 UNL     1      26.558   1.577  51.717  1.00  0.00     0.004 C 
HETATM   14  C13 UNL     1      22.902   2.660  50.717  1.00  0.00     0.150 C 
HETATM   15  N2  UNL     1      22.990   3.884  50.172  1.00  0.00    -0.406 N 
HETATM   16  C14 UNL     1      22.265   4.754  49.325  1.00  0.00     0.135 A 
HETATM   17  C15 UNL     1      23.476   5.145  48.414  1.00  0.00     0.015 A 
HETATM   18  C16 UNL     1      23.990   6.293  48.709  1.00  0.00     0.001 A 
HETATM   19  C17 UNL     1      23.244   7.041  49.692  1.00  0.00    -0.017 A 
HETATM   20  C18 UNL     1      22.807   7.965  50.516  1.00  0.00     0.013 A 
HETATM   21  C19 UNL     1      21.724   7.022  50.881  1.00  0.00     0.011 A 
HETATM   22  C20 UNL     1      22.168   6.091  50.063  1.00  0.00    -0.021 A 
HETATM   23  H18 UNL     1      23.592   4.554  50.799  1.00  0.00     0.154 HD
ENDROOT
BRANCH   1  24
HETATM   24  O1  UNL     1      25.790   7.660  47.966  1.00  0.00    -0.371 OA
HETATM   25  H1  UNL     1      25.358   8.177  47.249  1.00  0.00     0.212 HD
ENDBRANCH   1  24
TORSDOF 1
ENDMDL
MODEL 4
REMARK VINA RESULT:      -8.2      1.773      2.380
REMARK  1 active torsions:
REMARK  status: ('A' for Active; 'I' for Inactive)
REMARK    1  A    between atoms: O1_1  and  C1_2 
ROOT
HETATM    1  C1  UNL     1      26.534   2.414  51.190  1.00  0.00     0.275 C 
HETATM    2  N1  UNL     1      25.724   1.985  52.371  1.00  0.00    -0.269 NA
HETATM    3  C2  UNL     1      24.778   1.114  52.124  1.00  0.00     0.091 C 
HETATM    4  C3  UNL     1      23.800   0.482  52.999  1.00  0.00     0.085 C 
HETATM    5  C4  UNL     1      22.407   0.354  52.518  1.00  0.00    -0.050 C 
HETATM    6  C5  UNL     1      21.558   0.659  51.442  1.00  0.00    -0.056 C 
HETATM    7  C6  UNL     1      20.199   0.236  51.598  1.00  0.00     0.040 C 
HETATM    8  C7  UNL     1      18.861   0.687  51.337  1.00  0.00     0.031 C 
HETATM    9  C8  UNL     1      18.086  -0.194  52.375  1.00  0.00    -0.030 C 
HETATM   10  C9  UNL     1      18.379  -1.164  53.329  1.00  0.00    -0.027 C 
HETATM   11  C10 UNL     1      19.741  -1.459  53.389  1.00  0.00     0.054 C 
HETATM   12  C11 UNL     1      20.877  -1.324  54.220  1.00  0.00    -0.022 C 
HETATM   13  C12 UNL     1      21.708  -0.539  53.526  1.00  0.00     0.004 C 
HETATM   14  C13 UNL     1      21.554   1.470  50.139  1.00  0.00     0.150 C 
HETATM   15  N2  UNL     1      22.671   2.212  50.071  1.00  0.00    -0.406 N 
HETATM   16  C14 UNL     1      23.476   2.885  49.122  1.00  0.00     0.135 A 
HETATM   17  C15 UNL     1      24.844   2.333  49.646  1.00  0.00     0.015 A 
HETATM   18  C16 UNL     1      25.485   3.172  50.388  1.00  0.00     0.001 A 
HETATM   19  C17 UNL     1      24.895   4.488  50.442  1.00  0.00    -0.017 A 
HETATM   20  C18 UNL     1      24.644   5.754  50.680  1.00  0.00     0.013 A 
HETATM   21  C19 UNL     1      23.411   5.585  49.876  1.00  0.00     0.011 A 
HETATM   22  C20 UNL     1      23.657   4.311  49.646  1.00  0.00    -0.021 A 
HETATM   23  H18 UNL     1      22.840   2.758  51.007  1.00  0.00     0.154 HD
ENDROOT
BRANCH   1  24
HETATM   24  O1  UNL     1      27.520   3.236  51.620  1.00  0.00    -0.371 OA
HETATM   25  H1  UNL     1      28.441   2.918  51.480  1.00  0.00     0.212 HD
ENDBRANCH   1  24
TORSDOF 1
ENDMDL
MODEL 5
REMARK VINA RESULT:      -8.2      3.107      5.219
REMARK  1 active torsions:
REMARK  status: ('A' for Active; 'I' for Inactive)
REMARK    1  A    between atoms: O1_1  and  C1_2 
ROOT
HETATM    1  C1  UNL     1      19.732   1.501  51.251  1.00  0.00     0.275 C 
HETATM    2  N1  UNL     1      20.667   0.427  51.705  1.00  0.00    -0.269 NA
HETATM    3  C2  UNL     1      21.617   0.809  52.522  1.00  0.00     0.091 C 
HETATM    4  C3  UNL     1      22.696   0.067  53.156  1.00  0.00     0.085 C 
HETATM    5  C4  UNL     1      24.041   0.682  53.200  1.00  0.00    -0.050 C 
HETATM    6  C5  UNL     1      24.771   1.814  52.804  1.00  0.00    -0.056 C 
HETATM    7  C6  UNL     1      26.153   1.810  53.177  1.00  0.00     0.040 C 
HETATM    8  C7  UNL     1      27.442   2.169  52.656  1.00  0.00     0.031 C 
HETATM    9  C8  UNL     1      28.345   1.260  53.556  1.00  0.00    -0.030 C 
HETATM   10  C9  UNL     1      28.182   0.337  54.586  1.00  0.00    -0.027 C 
HETATM   11  C10 UNL     1      26.844   0.167  54.941  1.00  0.00     0.054 C 
HETATM   12  C11 UNL     1      25.788  -0.773  54.898  1.00  0.00    -0.022 C 
HETATM   13  C12 UNL     1      24.866  -0.205  54.114  1.00  0.00     0.004 C 
HETATM   14  C13 UNL     1      24.620   3.065  51.927  1.00  0.00     0.150 C 
HETATM   15  N2  UNL     1      23.474   2.987  51.230  1.00  0.00    -0.406 N 
HETATM   16  C14 UNL     1      22.558   3.817  50.544  1.00  0.00     0.135 A 
HETATM   17  C15 UNL     1      21.268   3.199  51.180  1.00  0.00     0.015 A 
HETATM   18  C16 UNL     1      20.670   2.354  50.408  1.00  0.00     0.001 A 
HETATM   19  C17 UNL     1      21.213   2.283  49.074  1.00  0.00    -0.017 A 
HETATM   20  C18 UNL     1      21.439   1.999  47.812  1.00  0.00     0.013 A 
HETATM   21  C19 UNL     1      22.594   2.923  47.887  1.00  0.00     0.011 A 
HETATM   22  C20 UNL     1      22.375   3.200  49.156  1.00  0.00    -0.021 A 
HETATM   23  H18 UNL     1      23.375   2.010  50.741  1.00  0.00     0.154 HD
ENDROOT
BRANCH   1  24
HETATM   24  O1  UNL     1      18.761   0.936  50.495  1.00  0.00    -0.371 OA
HETATM   25  H1  UNL     1      17.881   1.375  50.520  1.00  0.00     0.212 HD
ENDBRANCH   1  24
TORSDOF 1
ENDMDL
MODEL 6
REMARK VINA RESULT:      -8.0      3.223      4.809
REMARK  1 active torsions:
REMARK  status: ('A' for Active; 'I' for Inactive)
REMARK    1  A    between atoms: O1_1  and  C1_2 
ROOT
HETATM    1  C1  UNL     1      24.847   0.281  53.266  1.00  0.00     0.275 C 
HETATM    2  N1  UNL     1      23.645  -0.136  54.051  1.00  0.00    -0.269 NA
HETATM    3  C2  UNL     1      22.619  -0.543  53.346  1.00  0.00     0.091 C 
HETATM    4  C3  UNL     1      21.300  -1.008  53.748  1.00  0.00     0.085 C 
HETATM    5  C4  UNL     1      20.123  -0.532  52.987  1.00  0.00    -0.050 C 
HETATM    6  C5  UNL     1      19.736   0.307  51.930  1.00  0.00    -0.056 C 
HETATM    7  C6  UNL     1      18.329   0.342  51.664  1.00  0.00     0.040 C 
HETATM    8  C7  UNL     1      17.292   1.269  51.310  1.00  0.00     0.031 C 
HETATM    9  C8  UNL     1      16.046   0.467  51.819  1.00  0.00    -0.030 C 
HETATM   10  C9  UNL     1      15.785  -0.754  52.433  1.00  0.00    -0.027 C 
HETATM   11  C10 UNL     1      16.944  -1.497  52.658  1.00  0.00     0.054 C 
HETATM   12  C11 UNL     1      17.782  -1.970  53.694  1.00  0.00    -0.022 C 
HETATM   13  C12 UNL     1      18.954  -1.362  53.480  1.00  0.00     0.004 C 
HETATM   14  C13 UNL     1      20.324   1.375  50.998  1.00  0.00     0.150 C 
HETATM   15  N2  UNL     1      21.565   1.688  51.403  1.00  0.00    -0.406 N 
HETATM   16  C14 UNL     1      22.758   2.269  50.912  1.00  0.00     0.135 A 
HETATM   17  C15 UNL     1      23.720   1.173  51.481  1.00  0.00     0.015 A 
HETATM   18  C16 UNL     1      24.313   1.527  52.572  1.00  0.00     0.001 A 
HETATM   19  C17 UNL     1      24.097   2.904  52.944  1.00  0.00    -0.017 A 
HETATM   20  C18 UNL     1      24.126   4.075  53.537  1.00  0.00     0.013 A 
HETATM   21  C19 UNL     1      23.182   4.543  52.496  1.00  0.00     0.011 A 
HETATM   22  C20 UNL     1      23.143   3.366  51.907  1.00  0.00    -0.021 A 
HETATM   23  H18 UNL     1      21.590   1.887  52.482  1.00  0.00     0.154 HD
ENDROOT
BRANCH   1  24
HETATM   24  O1  UNL     1      25.843   0.583  54.131  1.00  0.00    -0.371 OA
HETATM   25  H1  UNL     1      26.547  -0.097  54.236  1.00  0.00     0.212 HD
ENDBRANCH   1  24
TORSDOF 1
ENDMDL
MODEL 7
REMARK VINA RESULT:      -7.8      2.573      3.705
REMARK  1 active torsions:
REMARK  status: ('A' for Active; 'I' for Inactive)
REMARK    1  A    between atoms: O1_1  and  C1_2 
ROOT
HETATM    1  C1  UNL     1      22.665   4.031  48.230  1.00  0.00     0.275 C 
HETATM    2  N1  UNL     1      23.461   4.003  49.495  1.00  0.00    -0.269 NA
HETATM    3  C2  UNL     1      23.695   2.815  49.993  1.00  0.00     0.091 C 
HETATM    4  C3  UNL     1      24.412   2.397  51.189  1.00  0.00     0.085 C 
HETATM    5  C4  UNL     1      23.822   1.327  52.024  1.00  0.00    -0.050 C 
HETATM    6  C5  UNL     1      22.707   0.482  52.141  1.00  0.00    -0.056 C 
HETATM    7  C6  UNL     1      22.729  -0.403  53.268  1.00  0.00     0.040 C 
HETATM    8  C7  UNL     1      21.853  -0.946  54.267  1.00  0.00     0.031 C 
HETATM    9  C8  UNL     1      22.912  -1.328  55.356  1.00  0.00    -0.030 C 
HETATM   10  C9  UNL     1      24.293  -1.267  55.521  1.00  0.00    -0.027 C 
HETATM   11  C10 UNL     1      24.939  -0.724  54.410  1.00  0.00     0.054 C 
HETATM   12  C11 UNL     1      25.659   0.415  53.984  1.00  0.00    -0.022 C 
HETATM   13  C12 UNL     1      24.894   0.959  53.032  1.00  0.00     0.004 C 
HETATM   14  C13 UNL     1      21.320   0.269  51.521  1.00  0.00     0.150 C 
HETATM   15  N2  UNL     1      21.043   1.284  50.687  1.00  0.00    -0.406 N 
HETATM   16  C14 UNL     1      20.201   1.598  49.594  1.00  0.00     0.135 A 
HETATM   17  C15 UNL     1      21.319   2.239  48.705  1.00  0.00     0.015 A 
HETATM   18  C16 UNL     1      21.318   3.530  48.732  1.00  0.00     0.001 A 
HETATM   19  C17 UNL     1      20.197   4.108  49.432  1.00  0.00    -0.017 A 
HETATM   20  C18 UNL     1      19.319   4.931  49.957  1.00  0.00     0.013 A 
HETATM   21  C19 UNL     1      18.613   3.735  50.471  1.00  0.00     0.011 A 
HETATM   22  C20 UNL     1      19.499   2.909  49.955  1.00  0.00    -0.021 A 
HETATM   23  H18 UNL     1      21.242   2.252  51.163  1.00  0.00     0.154 HD
ENDROOT
BRANCH   1  24
HETATM   24  O1  UNL     1      22.589   5.312  47.797  1.00  0.00    -0.371 OA
HETATM   25  H1  UNL     1      22.112   5.454  46.948  1.00  0.00     0.212 HD
ENDBRANCH   1  24
TORSDOF 1
ENDMDL
MODEL 8
REMARK VINA RESULT:      -7.8      2.972      4.968
REMARK  1 active torsions:
REMARK  status: ('A' for Active; 'I' for Inactive)
REMARK    1  A    between atoms: O1_1  and  C1_2 
ROOT
HETATM    1  C1  UNL     1      19.049   3.943  51.351  1.00  0.00     0.275 C 
HETATM    2  N1  UNL     1      19.499   2.557  51.684  1.00  0.00    -0.269 NA
HETATM    3  C2  UNL     1      20.628   2.469  52.343  1.00  0.00     0.091 C 
HETATM    4  C3  UNL     1      21.372   1.315  52.825  1.00  0.00     0.085 C 
HETATM    5  C4  UNL     1      22.842   1.306  52.656  1.00  0.00    -0.050 C 
HETATM    6  C5  UNL     1      23.916   2.044  52.132  1.00  0.00    -0.056 C 
HETATM    7  C6  UNL     1      25.205   1.443  52.296  1.00  0.00     0.040 C 
HETATM    8  C7  UNL     1      26.437   1.251  51.583  1.00  0.00     0.031 C 
HETATM    9  C8  UNL     1      26.991   0.008  52.357  1.00  0.00    -0.030 C 
HETATM   10  C9  UNL     1      26.603  -0.805  53.419  1.00  0.00    -0.027 C 
HETATM   11  C10 UNL     1      25.384  -0.413  53.973  1.00  0.00     0.054 C 
HETATM   12  C11 UNL     1      24.036  -0.820  54.106  1.00  0.00    -0.022 C 
HETATM   13  C12 UNL     1      23.338   0.116  53.456  1.00  0.00     0.004 C 
HETATM   14  C13 UNL     1      24.182   3.280  51.262  1.00  0.00     0.150 C 
HETATM   15  N2  UNL     1      23.024   3.720  50.745  1.00  0.00    -0.406 N 
HETATM   16  C14 UNL     1      22.455   4.888  50.185  1.00  0.00     0.135 A 
HETATM   17  C15 UNL     1      21.130   4.841  51.018  1.00  0.00     0.015 A 
HETATM   18  C16 UNL     1      20.128   4.360  50.361  1.00  0.00     0.001 A 
HETATM   19  C17 UNL     1      20.393   4.126  48.963  1.00  0.00    -0.017 A 
HETATM   20  C18 UNL     1      20.295   3.830  47.688  1.00  0.00     0.013 A 
HETATM   21  C19 UNL     1      21.730   4.179  47.571  1.00  0.00     0.011 A 
HETATM   22  C20 UNL     1      21.832   4.466  48.852  1.00  0.00    -0.021 A 
HETATM   23  H18 UNL     1      22.453   2.898  50.296  1.00  0.00     0.154 HD
ENDROOT
BRANCH   1  24
HETATM   24  O1  UNL     1      17.834   3.871  50.760  1.00  0.00    -0.371 OA
HETATM   25  H1  UNL     1      17.336   3.032  50.892  1.00  0.00     0.212 HD
ENDBRANCH   1  24
TORSDOF 1
ENDMDL
MODEL 9
REMARK VINA RESULT:      -7.8      7.093     10.174
REMARK  1 active torsions:
REMARK  status: ('A' for Active; 'I' for Inactive)
REMARK    1  A    between atoms: O1_1  and  C1_2 
ROOT
HETATM    1  C1  UNL     1      33.477   3.921  47.409  1.00  0.00     0.275 C 
HETATM    2  N1  UNL     1      32.264   4.208  48.234  1.00  0.00    -0.269 NA
HETATM    3  C2  UNL     1      31.261   4.760  47.598  1.00  0.00     0.091 C 
HETATM    4  C3  UNL     1      29.947   5.184  48.058  1.00  0.00     0.085 C 
HETATM    5  C4  UNL     1      29.419   6.481  47.579  1.00  0.00    -0.050 C 
HETATM    6  C5  UNL     1      29.735   7.598  46.789  1.00  0.00    -0.056 C 
HETATM    7  C6  UNL     1      28.719   8.605  46.723  1.00  0.00     0.040 C 
HETATM    8  C7  UNL     1      28.574  10.033  46.718  1.00  0.00     0.031 C 
HETATM    9  C8  UNL     1      27.087  10.142  47.199  1.00  0.00    -0.030 C 
HETATM   10  C9  UNL     1      26.053   9.283  47.561  1.00  0.00    -0.027 C 
HETATM   11  C10 UNL     1      26.418   7.940  47.466  1.00  0.00     0.054 C 
HETATM   12  C11 UNL     1      26.682   6.796  48.255  1.00  0.00    -0.022 C 
HETATM   13  C12 UNL     1      27.971   6.523  48.028  1.00  0.00     0.004 C 
HETATM   14  C13 UNL     1      30.927   8.214  46.044  1.00  0.00     0.150 C 
HETATM   15  N2  UNL     1      32.043   7.530  46.342  1.00  0.00    -0.406 N 
HETATM   16  C14 UNL     1      33.343   7.293  45.838  1.00  0.00     0.135 A 
HETATM   17  C15 UNL     1      33.310   5.739  46.024  1.00  0.00     0.015 A 
HETATM   18  C16 UNL     1      33.935   5.335  47.079  1.00  0.00     0.001 A 
HETATM   19  C17 UNL     1      34.668   6.370  47.766  1.00  0.00    -0.017 A 
HETATM   20  C18 UNL     1      35.436   7.044  48.591  1.00  0.00     0.013 A 
HETATM   21  C19 UNL     1      35.090   8.254  47.809  1.00  0.00     0.011 A 
HETATM   22  C20 UNL     1      34.310   7.581  46.988  1.00  0.00    -0.021 A 
HETATM   23  H18 UNL     1      32.141   7.387  47.425  1.00  0.00     0.154 HD
ENDROOT
BRANCH   1  24
HETATM   24  O1  UNL     1      34.380   3.274  48.181  1.00  0.00    -0.371 OA
HETATM   25  H1  UNL     1      34.083   3.036  49.089  1.00  0.00     0.212 HD
ENDBRANCH   1  24
TORSDOF 1
ENDMDL
