MODEL 1
REMARK VINA RESULT:      -7.8      0.000      0.000
REMARK  2 active torsions:
REMARK  status: ('A' for Active; 'I' for Inactive)
REMARK    1  A    between atoms: C4_5  and  N1_6 
REMARK    2  A    between atoms: N1_6  and  C5_7 
ROOT
HETATM    1  C5  UNL     1      25.727   2.482  52.919  1.00  0.00     0.107 C 
HETATM    2  C6  UNL     1      26.748   2.453  51.956  1.00  0.00     0.168 C 
HETATM    3  C7  UNL     1      26.451   2.926  50.552  1.00  0.00     0.007 C 
HETATM    4  C8  UNL     1      25.546   3.432  49.631  1.00  0.00     0.131 C 
HETATM    5  O1  UNL     1      24.292   3.592  50.284  1.00  0.00    -0.363 OA
HETATM    6  C9  UNL     1      23.789   4.841  50.579  1.00  0.00     0.176 C 
HETATM    7  C10 UNL     1      22.381   4.889  51.019  1.00  0.00     0.046 C 
HETATM    8  C11 UNL     1      22.008   4.206  52.297  1.00  0.00     0.122 C 
HETATM    9  N2  UNL     1      22.226   2.804  52.244  1.00  0.00    -0.377 N 
HETATM   10  C12 UNL     1      22.210   1.351  52.128  1.00  0.00     0.179 A 
HETATM   11  C13 UNL     1      23.417   2.116  52.490  1.00  0.00     0.184 A 
HETATM   12  N3  UNL     1      24.317   2.932  52.817  1.00  0.00    -0.266 NA
ENDROOT
BRANCH   1  13
HETATM   13  N1  UNL     1      26.238   1.987  54.177  1.00  0.00    -0.366 N 
HETATM   14  H3  UNL     1      26.195   2.506  55.083  1.00  0.00     0.161 HD
BRANCH  13  15
HETATM   15  C4  UNL     1      26.750   0.698  53.777  1.00  0.00     0.031 A 
HETATM   16  C3  UNL     1      25.880  -0.240  53.215  1.00  0.00     0.032 A 
HETATM   17  C2  UNL     1      26.364  -1.474  52.829  1.00  0.00     0.046 A 
HETATM   18  C1  UNL     1      27.696  -1.788  52.994  1.00  0.00     0.138 A 
HETATM   19  F1  UNL     1      28.166  -3.007  52.612  1.00  0.00    -0.204 F 
HETATM   20  C15 UNL     1      28.546  -0.843  53.555  1.00  0.00     0.074 A 
HETATM   21  C14 UNL     1      28.101   0.388  53.947  1.00  0.00     0.056 A 
HETATM   22 CL1  UNL     1      30.254  -1.220  53.773  1.00  0.00    -0.081 Cl
ENDBRANCH  13  15
ENDBRANCH   1  13
TORSDOF 2
ENDMDL
MODEL 2
REMARK VINA RESULT:      -7.4      1.855      2.991
REMARK  2 active torsions:
REMARK  status: ('A' for Active; 'I' for Inactive)
REMARK    1  A    between atoms: C4_5  and  N1_6 
REMARK    2  A    between atoms: N1_6  and  C5_7 
ROOT
HETATM    1  C5  UNL     1      23.069   1.230  52.460  1.00  0.00     0.107 C 
HETATM    2  C6  UNL     1      22.179   0.326  51.858  1.00  0.00     0.168 C 
HETATM    3  C7  UNL     1      21.608   0.651  50.497  1.00  0.00     0.007 C 
HETATM    4  C8  UNL     1      21.517   1.518  49.419  1.00  0.00     0.131 C 
HETATM    5  O1  UNL     1      22.334   2.650  49.689  1.00  0.00    -0.363 OA
HETATM    6  C9  UNL     1      23.513   2.866  49.008  1.00  0.00     0.176 C 
HETATM    7  C10 UNL     1      24.138   4.191  49.191  1.00  0.00     0.046 C 
HETATM    8  C11 UNL     1      24.614   4.574  50.557  1.00  0.00     0.122 C 
HETATM    9  N2  UNL     1      23.553   4.644  51.498  1.00  0.00    -0.377 N 
HETATM   10  C12 UNL     1      22.462   4.959  52.412  1.00  0.00     0.179 A 
HETATM   11  C13 UNL     1      22.996   3.596  52.236  1.00  0.00     0.184 A 
HETATM   12  N3  UNL     1      23.605   2.526  51.975  1.00  0.00    -0.266 NA
ENDROOT
BRANCH   1  13
HETATM   13  N1  UNL     1      23.481   0.715  53.747  1.00  0.00    -0.366 N 
HETATM   14  H3  UNL     1      22.851   0.600  54.572  1.00  0.00     0.161 HD
BRANCH  13  15
HETATM   15  C4  UNL     1      24.879   0.452  53.503  1.00  0.00     0.031 A 
HETATM   16  C3  UNL     1      25.274  -0.821  53.082  1.00  0.00     0.032 A 
HETATM   17  C2  UNL     1      26.610  -1.078  52.845  1.00  0.00     0.046 A 
HETATM   18  C1  UNL     1      27.556  -0.090  53.021  1.00  0.00     0.138 A 
HETATM   19  F1  UNL     1      28.871  -0.351  52.787  1.00  0.00    -0.204 F 
HETATM   20  C15 UNL     1      27.144   1.169  53.439  1.00  0.00     0.074 A 
HETATM   21  C14 UNL     1      25.831   1.458  53.682  1.00  0.00     0.056 A 
HETATM   22 CL1  UNL     1      28.336   2.449  53.668  1.00  0.00    -0.081 Cl
ENDBRANCH  13  15
ENDBRANCH   1  13
TORSDOF 2
ENDMDL
MODEL 3
REMARK VINA RESULT:      -7.1      1.471      1.832
REMARK  2 active torsions:
REMARK  status: ('A' for Active; 'I' for Inactive)
REMARK    1  A    between atoms: C4_5  and  N1_6 
REMARK    2  A    between atoms: N1_6  and  C5_7 
ROOT
HETATM    1  C5  UNL     1      24.188   3.165  52.289  1.00  0.00     0.107 C 
HETATM    2  C6  UNL     1      25.089   3.164  51.212  1.00  0.00     0.168 C 
HETATM    3  C7  UNL     1      24.551   3.186  49.800  1.00  0.00     0.007 C 
HETATM    4  C8  UNL     1      23.465   3.201  48.940  1.00  0.00     0.131 C 
HETATM    5  O1  UNL     1      22.277   3.190  49.723  1.00  0.00    -0.363 OA
HETATM    6  C9  UNL     1      21.468   4.301  49.819  1.00  0.00     0.176 C 
HETATM    7  C10 UNL     1      20.146   4.092  50.444  1.00  0.00     0.046 C 
HETATM    8  C11 UNL     1      20.093   3.671  51.879  1.00  0.00     0.122 C 
HETATM    9  N2  UNL     1      20.696   2.403  52.092  1.00  0.00    -0.377 N 
HETATM   10  C12 UNL     1      21.083   1.012  52.290  1.00  0.00     0.179 A 
HETATM   11  C13 UNL     1      22.050   2.125  52.298  1.00  0.00     0.184 A 
HETATM   12  N3  UNL     1      22.705   3.199  52.306  1.00  0.00    -0.266 NA
ENDROOT
BRANCH   1  13
HETATM   13  N1  UNL     1      24.924   3.141  53.533  1.00  0.00    -0.366 N 
HETATM   14  H3  UNL     1      24.878   3.883  54.267  1.00  0.00     0.161 HD
BRANCH  13  15
HETATM   15  C4  UNL     1      25.638   1.893  53.405  1.00  0.00     0.031 A 
HETATM   16  C3  UNL     1      24.923   0.715  53.169  1.00  0.00     0.032 A 
HETATM   17  C2  UNL     1      25.600  -0.481  53.045  1.00  0.00     0.046 A 
HETATM   18  C1  UNL     1      26.974  -0.524  53.151  1.00  0.00     0.138 A 
HETATM   19  F1  UNL     1      27.635  -1.707  53.028  1.00  0.00    -0.204 F 
HETATM   20  C15 UNL     1      27.668   0.656  53.385  1.00  0.00     0.074 A 
HETATM   21  C14 UNL     1      27.030   1.858  53.514  1.00  0.00     0.056 A 
HETATM   22 CL1  UNL     1      29.426   0.627  53.523  1.00  0.00    -0.081 Cl
ENDBRANCH  13  15
ENDBRANCH   1  13
TORSDOF 2
ENDMDL
MODEL 4
REMARK VINA RESULT:      -7.0      3.882      5.624
REMARK  2 active torsions:
REMARK  status: ('A' for Active; 'I' for Inactive)
REMARK    1  A    between atoms: C4_5  and  N1_6 
REMARK    2  A    between atoms: N1_6  and  C5_7 
ROOT
HETATM    1  C5  UNL     1      22.975   3.466  51.026  1.00  0.00     0.107 C 
HETATM    2  C6  UNL     1      22.755   3.448  49.639  1.00  0.00     0.168 C 
HETATM    3  C7  UNL     1      22.096   2.240  49.014  1.00  0.00     0.007 C 
HETATM    4  C8  UNL     1      21.538   0.979  49.157  1.00  0.00     0.131 C 
HETATM    5  O1  UNL     1      21.603   0.619  50.532  1.00  0.00    -0.363 OA
HETATM    6  C9  UNL     1      20.469   0.563  51.315  1.00  0.00     0.176 C 
HETATM    7  C10 UNL     1      20.625  -0.064  52.643  1.00  0.00     0.046 C 
HETATM    8  C11 UNL     1      21.533   0.586  53.637  1.00  0.00     0.122 C 
HETATM    9  N2  UNL     1      22.883   0.620  53.195  1.00  0.00    -0.377 N 
HETATM   10  C12 UNL     1      24.294   0.446  52.874  1.00  0.00     0.179 A 
HETATM   11  C13 UNL     1      23.485   1.570  52.366  1.00  0.00     0.184 A 
HETATM   12  N3  UNL     1      22.650   2.462  52.069  1.00  0.00    -0.266 NA
ENDROOT
BRANCH   1  13
HETATM   13  N1  UNL     1      23.613   4.710  51.395  1.00  0.00    -0.366 N 
HETATM   14  H3  UNL     1      23.235   5.389  52.093  1.00  0.00     0.161 HD
BRANCH  13  15
HETATM   15  C4  UNL     1      24.795   4.669  50.567  1.00  0.00     0.031 A 
HETATM   16  C3  UNL     1      25.612   3.535  50.594  1.00  0.00     0.032 A 
HETATM   17  C2  UNL     1      26.742   3.489  49.804  1.00  0.00     0.046 A 
HETATM   18  C1  UNL     1      27.071   4.551  48.988  1.00  0.00     0.138 A 
HETATM   19  F1  UNL     1      28.188   4.498  48.212  1.00  0.00    -0.204 F 
HETATM   20  C15 UNL     1      26.248   5.669  48.974  1.00  0.00     0.074 A 
HETATM   21  C14 UNL     1      25.121   5.748  49.743  1.00  0.00     0.056 A 
HETATM   22 CL1  UNL     1      26.647   7.038  47.937  1.00  0.00    -0.081 Cl
ENDBRANCH  13  15
ENDBRANCH   1  13
TORSDOF 2
ENDMDL
MODEL 5
REMARK VINA RESULT:      -7.0      2.044      3.304
REMARK  2 active torsions:
REMARK  status: ('A' for Active; 'I' for Inactive)
REMARK    1  A    between atoms: C4_5  and  N1_6 
REMARK    2  A    between atoms: N1_6  and  C5_7 
ROOT
HETATM    1  C5  UNL     1      23.605   2.421  52.291  1.00  0.00     0.107 C 
HETATM    2  C6  UNL     1      23.108   1.386  53.099  1.00  0.00     0.168 C 
HETATM    3  C7  UNL     1      21.896   0.610  52.638  1.00  0.00     0.007 C 
HETATM    4  C8  UNL     1      20.905   0.398  51.692  1.00  0.00     0.131 C 
HETATM    5  O1  UNL     1      21.083   1.344  50.644  1.00  0.00    -0.363 OA
HETATM    6  C9  UNL     1      21.534   0.962  49.398  1.00  0.00     0.176 C 
HETATM    7  C10 UNL     1      21.435   1.977  48.330  1.00  0.00     0.046 C 
HETATM    8  C11 UNL     1      22.234   3.235  48.464  1.00  0.00     0.122 C 
HETATM    9  N2  UNL     1      21.852   3.999  49.599  1.00  0.00    -0.377 N 
HETATM   10  C12 UNL     1      21.316   4.909  50.603  1.00  0.00     0.179 A 
HETATM   11  C13 UNL     1      22.294   3.850  50.916  1.00  0.00     0.184 A 
HETATM   12  N3  UNL     1      23.145   2.925  50.974  1.00  0.00    -0.266 NA
ENDROOT
BRANCH   1  13
HETATM   13  N1  UNL     1      24.758   3.017  52.929  1.00  0.00    -0.366 N 
HETATM   14  H3  UNL     1      24.802   3.999  53.282  1.00  0.00     0.161 HD
BRANCH  13  15
HETATM   15  C4  UNL     1      25.687   1.913  52.903  1.00  0.00     0.031 A 
HETATM   16  C3  UNL     1      25.812   1.150  51.739  1.00  0.00     0.032 A 
HETATM   17  C2  UNL     1      26.700   0.093  51.707  1.00  0.00     0.046 A 
HETATM   18  C1  UNL     1      27.463  -0.214  52.813  1.00  0.00     0.138 A 
HETATM   19  F1  UNL     1      28.336  -1.258  52.775  1.00  0.00    -0.204 F 
HETATM   20  C15 UNL     1      27.326   0.555  53.961  1.00  0.00     0.074 A 
HETATM   21  C14 UNL     1      26.458   1.608  54.027  1.00  0.00     0.056 A 
HETATM   22 CL1  UNL     1      28.294   0.183  55.387  1.00  0.00    -0.081 Cl
ENDBRANCH  13  15
ENDBRANCH   1  13
TORSDOF 2
ENDMDL
MODEL 6
REMARK VINA RESULT:      -7.0      2.199      3.492
REMARK  2 active torsions:
REMARK  status: ('A' for Active; 'I' for Inactive)
REMARK    1  A    between atoms: C4_5  and  N1_6 
REMARK    2  A    between atoms: N1_6  and  C5_7 
ROOT
HETATM    1  C5  UNL     1      24.093   3.036  50.897  1.00  0.00     0.107 C 
HETATM    2  C6  UNL     1      23.978   4.419  51.108  1.00  0.00     0.168 C 
HETATM    3  C7  UNL     1      22.616   5.011  51.387  1.00  0.00     0.007 C 
HETATM    4  C8  UNL     1      21.251   4.835  51.550  1.00  0.00     0.131 C 
HETATM    5  O1  UNL     1      20.959   3.453  51.379  1.00  0.00    -0.363 OA
HETATM    6  C9  UNL     1      20.593   2.657  52.443  1.00  0.00     0.176 C 
HETATM    7  C10 UNL     1      20.071   1.318  52.106  1.00  0.00     0.046 C 
HETATM    8  C11 UNL     1      20.982   0.347  51.424  1.00  0.00     0.122 C 
HETATM    9  N2  UNL     1      21.398   0.804  50.145  1.00  0.00    -0.377 N 
HETATM   10  C12 UNL     1      21.636   1.135  48.746  1.00  0.00     0.179 A 
HETATM   11  C13 UNL     1      22.462   1.659  49.850  1.00  0.00     0.184 A 
HETATM   12  N3  UNL     1      23.064   1.968  50.911  1.00  0.00    -0.266 NA
ENDROOT
BRANCH   1  13
HETATM   13  N1  UNL     1      25.478   2.700  50.650  1.00  0.00    -0.366 N 
HETATM   14  H3  UNL     1      26.023   3.000  49.811  1.00  0.00     0.161 HD
BRANCH  13  15
HETATM   15  C4  UNL     1      25.784   1.916  51.822  1.00  0.00     0.031 A 
HETATM   16  C3  UNL     1      25.679   2.504  53.086  1.00  0.00     0.032 A 
HETATM   17  C2  UNL     1      25.969   1.758  54.212  1.00  0.00     0.046 A 
HETATM   18  C1  UNL     1      26.360   0.441  54.099  1.00  0.00     0.138 A 
HETATM   19  F1  UNL     1      26.645  -0.287  55.212  1.00  0.00    -0.204 F 
HETATM   20  C15 UNL     1      26.458  -0.126  52.835  1.00  0.00     0.074 A 
HETATM   21  C14 UNL     1      26.179   0.582  51.700  1.00  0.00     0.056 A 
HETATM   22 CL1  UNL     1      26.954  -1.810  52.665  1.00  0.00    -0.081 Cl
ENDBRANCH  13  15
ENDBRANCH   1  13
TORSDOF 2
ENDMDL
MODEL 7
REMARK VINA RESULT:      -7.0      2.703      4.233
REMARK  2 active torsions:
REMARK  status: ('A' for Active; 'I' for Inactive)
REMARK    1  A    between atoms: C4_5  and  N1_6 
REMARK    2  A    between atoms: N1_6  and  C5_7 
ROOT
HETATM    1  C5  UNL     1      23.241   3.860  51.578  1.00  0.00     0.107 C 
HETATM    2  C6  UNL     1      22.245   4.148  52.525  1.00  0.00     0.168 C 
HETATM    3  C7  UNL     1      20.793   3.994  52.136  1.00  0.00     0.007 C 
HETATM    4  C8  UNL     1      19.843   3.675  51.178  1.00  0.00     0.131 C 
HETATM    5  O1  UNL     1      20.523   3.320  49.980  1.00  0.00    -0.363 OA
HETATM    6  C9  UNL     1      20.557   2.017  49.531  1.00  0.00     0.176 C 
HETATM    7  C10 UNL     1      21.067   1.814  48.160  1.00  0.00     0.046 C 
HETATM    8  C11 UNL     1      22.489   2.173  47.866  1.00  0.00     0.122 C 
HETATM    9  N2  UNL     1      22.745   3.558  48.046  1.00  0.00    -0.377 N 
HETATM   10  C12 UNL     1      22.966   4.998  47.985  1.00  0.00     0.179 A 
HETATM   11  C13 UNL     1      23.063   4.220  49.235  1.00  0.00     0.184 A 
HETATM   12  N3  UNL     1      23.133   3.388  50.176  1.00  0.00    -0.266 NA
ENDROOT
BRANCH   1  13
HETATM   13  N1  UNL     1      24.543   4.077  52.168  1.00  0.00    -0.366 N 
HETATM   14  H3  UNL     1      24.926   5.009  52.440  1.00  0.00     0.161 HD
BRANCH  13  15
HETATM   15  C4  UNL     1      25.042   2.724  52.236  1.00  0.00     0.031 A 
HETATM   16  C3  UNL     1      26.173   2.373  51.493  1.00  0.00     0.032 A 
HETATM   17  C2  UNL     1      26.656   1.081  51.555  1.00  0.00     0.046 A 
HETATM   18  C1  UNL     1      26.033   0.136  52.343  1.00  0.00     0.138 A 
HETATM   19  F1  UNL     1      26.514  -1.136  52.398  1.00  0.00    -0.204 F 
HETATM   20  C15 UNL     1      24.911   0.504  53.074  1.00  0.00     0.074 A 
HETATM   21  C14 UNL     1      24.406   1.773  53.037  1.00  0.00     0.056 A 
HETATM   22 CL1  UNL     1      24.098  -0.687  54.090  1.00  0.00    -0.081 Cl
ENDBRANCH  13  15
ENDBRANCH   1  13
TORSDOF 2
ENDMDL
MODEL 8
REMARK VINA RESULT:      -6.9      2.483      3.856
REMARK  2 active torsions:
REMARK  status: ('A' for Active; 'I' for Inactive)
REMARK    1  A    between atoms: C4_5  and  N1_6 
REMARK    2  A    between atoms: N1_6  and  C5_7 
ROOT
HETATM    1  C5  UNL     1      22.827   2.468  51.864  1.00  0.00     0.107 C 
HETATM    2  C6  UNL     1      22.940   2.762  50.496  1.00  0.00     0.168 C 
HETATM    3  C7  UNL     1      22.073   2.017  49.508  1.00  0.00     0.007 C 
HETATM    4  C8  UNL     1      21.103   1.058  49.260  1.00  0.00     0.131 C 
HETATM    5  O1  UNL     1      20.721   0.481  50.504  1.00  0.00    -0.363 OA
HETATM    6  C9  UNL     1      19.488   0.734  51.066  1.00  0.00     0.176 C 
HETATM    7  C10 UNL     1      19.110  -0.113  52.215  1.00  0.00     0.046 C 
HETATM    8  C11 UNL     1      19.930  -0.030  53.464  1.00  0.00     0.122 C 
HETATM    9  N2  UNL     1      21.274  -0.441  53.257  1.00  0.00    -0.377 N 
HETATM   10  C12 UNL     1      22.575  -1.084  53.126  1.00  0.00     0.179 A 
HETATM   11  C13 UNL     1      22.337   0.329  52.780  1.00  0.00     0.184 A 
HETATM   12  N3  UNL     1      21.948   1.508  52.576  1.00  0.00    -0.266 NA
ENDROOT
BRANCH   1  13
HETATM   13  N1  UNL     1      23.746   3.297  52.612  1.00  0.00    -0.366 N 
HETATM   14  H3  UNL     1      23.524   4.248  52.982  1.00  0.00     0.161 HD
BRANCH  13  15
HETATM   15  C4  UNL     1      24.911   2.446  52.653  1.00  0.00     0.031 A 
HETATM   16  C3  UNL     1      25.697   2.304  51.506  1.00  0.00     0.032 A 
HETATM   17  C2  UNL     1      26.814   1.493  51.540  1.00  0.00     0.046 A 
HETATM   18  C1  UNL     1      27.158   0.822  52.694  1.00  0.00     0.138 A 
HETATM   19  F1  UNL     1      28.260   0.023  52.719  1.00  0.00    -0.204 F 
HETATM   20  C15 UNL     1      26.366   0.975  53.824  1.00  0.00     0.074 A 
HETATM   21  C14 UNL     1      25.255   1.770  53.826  1.00  0.00     0.056 A 
HETATM   22 CL1  UNL     1      26.788   0.130  55.313  1.00  0.00    -0.081 Cl
ENDBRANCH  13  15
ENDBRANCH   1  13
TORSDOF 2
ENDMDL
MODEL 9
REMARK VINA RESULT:      -6.7      2.486      3.338
REMARK  2 active torsions:
REMARK  status: ('A' for Active; 'I' for Inactive)
REMARK    1  A    between atoms: C4_5  and  N1_6 
REMARK    2  A    between atoms: N1_6  and  C5_7 
ROOT
HETATM    1  C5  UNL     1      23.460   3.452  50.990  1.00  0.00     0.107 C 
HETATM    2  C6  UNL     1      24.034   3.157  49.742  1.00  0.00     0.168 C 
HETATM    3  C7  UNL     1      23.133   2.782  48.588  1.00  0.00     0.007 C 
HETATM    4  C8  UNL     1      21.857   2.551  48.098  1.00  0.00     0.131 C 
HETATM    5  O1  UNL     1      20.932   2.751  49.160  1.00  0.00    -0.363 OA
HETATM    6  C9  UNL     1      20.088   3.841  49.183  1.00  0.00     0.176 C 
HETATM    7  C10 UNL     1      19.007   3.807  50.189  1.00  0.00     0.046 C 
HETATM    8  C11 UNL     1      19.380   3.802  51.638  1.00  0.00     0.122 C 
HETATM    9  N2  UNL     1      20.122   2.647  52.000  1.00  0.00    -0.377 N 
HETATM   10  C12 UNL     1      20.664   1.368  52.442  1.00  0.00     0.179 A 
HETATM   11  C13 UNL     1      21.500   2.445  51.880  1.00  0.00     0.184 A 
HETATM   12  N3  UNL     1      22.040   3.482  51.417  1.00  0.00    -0.266 NA
ENDROOT
BRANCH   1  13
HETATM   13  N1  UNL     1      24.505   3.780  51.934  1.00  0.00    -0.366 N 
HETATM   14  H3  UNL     1      24.703   4.740  52.294  1.00  0.00     0.161 HD
BRANCH  13  15
HETATM   15  C4  UNL     1      25.086   2.478  52.163  1.00  0.00     0.031 A 
HETATM   16  C3  UNL     1      26.249   2.116  51.477  1.00  0.00     0.032 A 
HETATM   17  C2  UNL     1      26.810   0.873  51.692  1.00  0.00     0.046 A 
HETATM   18  C1  UNL     1      26.233  -0.012  52.577  1.00  0.00     0.138 A 
HETATM   19  F1  UNL     1      26.791  -1.236  52.784  1.00  0.00    -0.204 F 
HETATM   20  C15 UNL     1      25.078   0.365  53.250  1.00  0.00     0.074 A 
HETATM   21  C14 UNL     1      24.496   1.587  53.061  1.00  0.00     0.056 A 
HETATM   22 CL1  UNL     1      24.323  -0.750  54.389  1.00  0.00    -0.081 Cl
ENDBRANCH  13  15
ENDBRANCH   1  13
TORSDOF 2
ENDMDL
