MODEL 1
REMARK VINA RESULT:      -8.3      0.000      0.000
REMARK  6 active torsions:
REMARK  status: ('A' for Active; 'I' for Inactive)
REMARK    1  A    between atoms: C7_7  and  C8_8 
REMARK    2  A    between atoms: C8_8  and  C9_9 
REMARK    3  A    between atoms: C12_12  and  N1_13 
REMARK    4  A    between atoms: N1_13  and  C13_14 
REMARK    5  A    between atoms: C13_14  and  C14_15 
REMARK    6  A    between atoms: C15_16  and  C16_18 
ROOT
HETATM    1  C16 UNL     1      21.259   0.248  53.484  1.00  0.00     0.029 C 
HETATM    2  C17 UNL     1      22.206  -0.691  53.369  1.00  0.00     0.095 C 
HETATM    3  C18 UNL     1      23.115  -0.971  54.450  1.00  0.00     0.087 C 
HETATM    4  N2  UNL     1      23.837  -1.190  55.326  1.00  0.00    -0.192 NA
ENDROOT
BRANCH   1   5
HETATM    5  C15 UNL     1      20.261   0.673  52.526  1.00  0.00     0.009 C 
HETATM    6  C14 UNL     1      20.400   1.695  51.664  1.00  0.00     0.012 C 
HETATM    7 BR1  UNL     1      18.671  -0.410  52.609  1.00  0.00    -0.051 Br
BRANCH   6   8
HETATM    8  C13 UNL     1      21.513   2.623  51.450  1.00  0.00     0.150 C 
BRANCH   8   9
HETATM    9  N1  UNL     1      22.387   2.292  50.358  1.00  0.00    -0.371 N 
HETATM   10  H11 UNL     1      22.412   1.619  49.559  1.00  0.00     0.161 HD
BRANCH   9  11
HETATM   11  C12 UNL     1      23.635   2.878  50.017  1.00  0.00     0.133 C 
HETATM   12  C11 UNL     1      24.676   2.424  50.740  1.00  0.00     0.016 C 
HETATM   13  C10 UNL     1      24.792   1.441  51.817  1.00  0.00     0.038 C 
HETATM   14  C21 UNL     1      26.087   2.900  50.553  1.00  0.00     0.144 C 
HETATM   15  C9  UNL     1      25.905   1.664  52.538  1.00  0.00     0.010 C 
HETATM   16  N4  UNL     1      26.534   2.793  51.941  1.00  0.00    -0.381 N 
HETATM   17  H19 UNL     1      27.193   3.393  52.482  1.00  0.00     0.160 HD
HETATM   18  C20 UNL     1      26.098   4.275  50.036  1.00  0.00     0.037 C 
HETATM   19  C19 UNL     1      25.042   4.633  49.325  1.00  0.00     0.086 C 
HETATM   20  N3  UNL     1      24.076   3.865  49.065  1.00  0.00    -0.229 NA
BRANCH  15  21
HETATM   21  C8  UNL     1      26.343   0.882  53.688  1.00  0.00     0.095 C 
BRANCH  21  22
HETATM   22  C7  UNL     1      27.168  -0.288  53.412  1.00  0.00    -0.047 A 
HETATM   23  C2  UNL     1      28.497  -0.153  53.752  1.00  0.00    -0.055 A 
HETATM   24  C1  UNL     1      29.037   1.104  54.360  1.00  0.00     0.049 C 
HETATM   25  C3  UNL     1      29.409  -1.193  53.545  1.00  0.00     0.007 A 
HETATM   26  C4  UNL     1      28.917  -2.341  52.991  1.00  0.00     0.001 A 
HETATM   27  C5  UNL     1      27.573  -2.454  52.657  1.00  0.00     0.001 A 
HETATM   28  C6  UNL     1      26.682  -1.439  52.859  1.00  0.00     0.008 A 
ENDBRANCH  21  22
ENDBRANCH  15  21
ENDBRANCH   9  11
ENDBRANCH   8   9
ENDBRANCH   6   8
ENDBRANCH   1   5
TORSDOF 6
ENDMDL
MODEL 2
REMARK VINA RESULT:      -8.0      1.613      2.345
REMARK  6 active torsions:
REMARK  status: ('A' for Active; 'I' for Inactive)
REMARK    1  A    between atoms: C7_7  and  C8_8 
REMARK    2  A    between atoms: C8_8  and  C9_9 
REMARK    3  A    between atoms: C12_12  and  N1_13 
REMARK    4  A    between atoms: N1_13  and  C13_14 
REMARK    5  A    between atoms: C13_14  and  C14_15 
REMARK    6  A    between atoms: C15_16  and  C16_18 
ROOT
HETATM    1  C16 UNL     1      20.535   0.716  51.879  1.00  0.00     0.029 C 
HETATM    2  C17 UNL     1      20.968   0.997  53.115  1.00  0.00     0.095 C 
HETATM    3  C18 UNL     1      21.517  -0.028  53.964  1.00  0.00     0.087 C 
HETATM    4  N2  UNL     1      21.959  -0.859  54.635  1.00  0.00    -0.192 NA
ENDROOT
BRANCH   1   5
HETATM    5  C15 UNL     1      19.959   1.594  50.883  1.00  0.00     0.009 C 
HETATM    6  C14 UNL     1      20.466   1.814  49.658  1.00  0.00     0.012 C 
HETATM    7 BR1  UNL     1      18.343   2.435  51.506  1.00  0.00    -0.051 Br
BRANCH   6   8
HETATM    8  C13 UNL     1      21.666   1.280  49.007  1.00  0.00     0.150 C 
BRANCH   8   9
HETATM    9  N1  UNL     1      22.867   2.042  49.211  1.00  0.00    -0.371 N 
HETATM   10  H11 UNL     1      23.800   2.158  48.755  1.00  0.00     0.161 HD
BRANCH   9  11
HETATM   11  C12 UNL     1      23.152   2.985  50.234  1.00  0.00     0.133 C 
HETATM   12  C11 UNL     1      23.912   2.503  51.234  1.00  0.00     0.016 C 
HETATM   13  C10 UNL     1      24.515   1.195  51.492  1.00  0.00     0.038 C 
HETATM   14  C21 UNL     1      24.339   3.319  52.420  1.00  0.00     0.144 C 
HETATM   15  C9  UNL     1      24.770   1.047  52.804  1.00  0.00     0.010 C 
HETATM   16  N4  UNL     1      24.341   2.255  53.422  1.00  0.00    -0.381 N 
HETATM   17  H19 UNL     1      24.087   2.285  54.433  1.00  0.00     0.160 HD
HETATM   18  C20 UNL     1      23.358   4.379  52.690  1.00  0.00     0.037 C 
HETATM   19  C19 UNL     1      22.663   4.802  51.647  1.00  0.00     0.086 C 
HETATM   20  N3  UNL     1      22.819   4.365  50.474  1.00  0.00    -0.229 NA
BRANCH  15  21
HETATM   21  C8  UNL     1      25.368  -0.129  53.425  1.00  0.00     0.095 C 
BRANCH  21  22
HETATM   22  C7  UNL     1      26.808  -0.096  53.647  1.00  0.00    -0.047 A 
HETATM   23  C2  UNL     1      27.507  -1.136  53.071  1.00  0.00    -0.055 A 
HETATM   24  C1  UNL     1      26.826  -2.208  52.280  1.00  0.00     0.049 C 
HETATM   25  C3  UNL     1      28.896  -1.235  53.200  1.00  0.00     0.007 A 
HETATM   26  C4  UNL     1      29.519  -0.257  53.922  1.00  0.00     0.001 A 
HETATM   27  C5  UNL     1      28.793   0.782  54.492  1.00  0.00     0.001 A 
HETATM   28  C6  UNL     1      27.437   0.880  54.367  1.00  0.00     0.008 A 
ENDBRANCH  21  22
ENDBRANCH  15  21
ENDBRANCH   9  11
ENDBRANCH   8   9
ENDBRANCH   6   8
ENDBRANCH   1   5
TORSDOF 6
ENDMDL
MODEL 3
REMARK VINA RESULT:      -7.4      2.884      7.426
REMARK  6 active torsions:
REMARK  status: ('A' for Active; 'I' for Inactive)
REMARK    1  A    between atoms: C7_7  and  C8_8 
REMARK    2  A    between atoms: C8_8  and  C9_9 
REMARK    3  A    between atoms: C12_12  and  N1_13 
REMARK    4  A    between atoms: N1_13  and  C13_14 
REMARK    5  A    between atoms: C13_14  and  C14_15 
REMARK    6  A    between atoms: C15_16  and  C16_18 
ROOT
HETATM    1  C16 UNL     1      27.541   0.886  52.443  1.00  0.00     0.029 C 
HETATM    2  C17 UNL     1      27.148   2.160  52.326  1.00  0.00     0.095 C 
HETATM    3  C18 UNL     1      26.741   2.702  51.055  1.00  0.00     0.087 C 
HETATM    4  N2  UNL     1      26.412   3.124  50.031  1.00  0.00    -0.192 NA
ENDROOT
BRANCH   1   5
HETATM    5  C15 UNL     1      27.982   0.161  53.616  1.00  0.00     0.009 C 
HETATM    6  C14 UNL     1      27.196  -0.198  54.645  1.00  0.00     0.012 C 
HETATM    7 BR1  UNL     1      29.861  -0.254  53.547  1.00  0.00    -0.051 Br
BRANCH   6   8
HETATM    8  C13 UNL     1      25.767   0.020  54.881  1.00  0.00     0.150 C 
BRANCH   8   9
HETATM    9  N1  UNL     1      24.884  -0.658  53.972  1.00  0.00    -0.371 N 
HETATM   10  H11 UNL     1      24.956  -1.311  53.160  1.00  0.00     0.161 HD
BRANCH   9  11
HETATM   11  C12 UNL     1      23.464  -0.620  53.927  1.00  0.00     0.133 C 
HETATM   12  C11 UNL     1      22.962   0.293  53.076  1.00  0.00     0.016 C 
HETATM   13  C10 UNL     1      23.578   1.268  52.176  1.00  0.00     0.038 C 
HETATM   14  C21 UNL     1      21.492   0.509  52.863  1.00  0.00     0.144 C 
HETATM   15  C9  UNL     1      22.715   2.261  51.897  1.00  0.00     0.010 C 
HETATM   16  N4  UNL     1      21.522   1.949  52.608  1.00  0.00    -0.381 N 
HETATM   17  H19 UNL     1      20.835   2.690  52.864  1.00  0.00     0.160 HD
HETATM   18  C20 UNL     1      20.742   0.143  54.072  1.00  0.00     0.037 C 
HETATM   19  C19 UNL     1      21.303  -0.772  54.845  1.00  0.00     0.086 C 
HETATM   20  N3  UNL     1      22.401  -1.335  54.584  1.00  0.00    -0.229 NA
BRANCH  15  21
HETATM   21  C8  UNL     1      22.987   3.405  51.036  1.00  0.00     0.095 C 
BRANCH  21  22
HETATM   22  C7  UNL     1      22.416   3.369  49.695  1.00  0.00    -0.047 A 
HETATM   23  C2  UNL     1      21.342   4.212  49.500  1.00  0.00    -0.055 A 
HETATM   24  C1  UNL     1      20.816   5.093  50.590  1.00  0.00     0.049 C 
HETATM   25  C3  UNL     1      20.692   4.285  48.264  1.00  0.00     0.007 A 
HETATM   26  C4  UNL     1      21.171   3.481  47.268  1.00  0.00     0.001 A 
HETATM   27  C5  UNL     1      22.255   2.640  47.488  1.00  0.00     0.001 A 
HETATM   28  C6  UNL     1      22.891   2.569  48.695  1.00  0.00     0.008 A 
ENDBRANCH  21  22
ENDBRANCH  15  21
ENDBRANCH   9  11
ENDBRANCH   8   9
ENDBRANCH   6   8
ENDBRANCH   1   5
TORSDOF 6
ENDMDL
MODEL 4
REMARK VINA RESULT:      -7.3      2.873      6.001
REMARK  6 active torsions:
REMARK  status: ('A' for Active; 'I' for Inactive)
REMARK    1  A    between atoms: C7_7  and  C8_8 
REMARK    2  A    between atoms: C8_8  and  C9_9 
REMARK    3  A    between atoms: C12_12  and  N1_13 
REMARK    4  A    between atoms: N1_13  and  C13_14 
REMARK    5  A    between atoms: C13_14  and  C14_15 
REMARK    6  A    between atoms: C15_16  and  C16_18 
ROOT
HETATM    1  C16 UNL     1      25.403   5.851  49.645  1.00  0.00     0.029 C 
HETATM    2  C17 UNL     1      26.190   6.240  48.634  1.00  0.00     0.095 C 
HETATM    3  C18 UNL     1      26.355   7.633  48.310  1.00  0.00     0.087 C 
HETATM    4  N2  UNL     1      26.483   8.755  48.063  1.00  0.00    -0.192 NA
ENDROOT
BRANCH   1   5
HETATM    5  C15 UNL     1      25.110   4.517  50.124  1.00  0.00     0.009 C 
HETATM    6  C14 UNL     1      24.018   4.167  50.823  1.00  0.00     0.012 C 
HETATM    7 BR1  UNL     1      26.482   3.256  49.638  1.00  0.00    -0.051 Br
BRANCH   6   8
HETATM    8  C13 UNL     1      22.879   4.966  51.284  1.00  0.00     0.150 C 
BRANCH   8   9
HETATM    9  N1  UNL     1      22.129   4.398  52.371  1.00  0.00    -0.371 N 
HETATM   10  H11 UNL     1      22.118   4.443  53.415  1.00  0.00     0.161 HD
BRANCH   9  11
HETATM   11  C12 UNL     1      21.039   3.490  52.311  1.00  0.00     0.133 C 
HETATM   12  C11 UNL     1      21.358   2.220  52.620  1.00  0.00     0.016 C 
HETATM   13  C10 UNL     1      22.610   1.569  53.009  1.00  0.00     0.038 C 
HETATM   14  C21 UNL     1      20.368   1.092  52.624  1.00  0.00     0.144 C 
HETATM   15  C9  UNL     1      22.553   0.251  52.752  1.00  0.00     0.010 C 
HETATM   16  N4  UNL     1      21.264   0.019  52.195  1.00  0.00    -0.381 N 
HETATM   17  H19 UNL     1      21.078  -0.808  51.588  1.00  0.00     0.160 HD
HETATM   18  C20 UNL     1      19.280   1.364  51.675  1.00  0.00     0.037 C 
HETATM   19  C19 UNL     1      19.025   2.641  51.439  1.00  0.00     0.086 C 
HETATM   20  N3  UNL     1      19.638   3.594  51.992  1.00  0.00    -0.229 NA
BRANCH  15  21
HETATM   21  C8  UNL     1      23.618  -0.711  53.010  1.00  0.00     0.095 C 
BRANCH  21  22
HETATM   22  C7  UNL     1      24.957  -0.172  53.210  1.00  0.00    -0.047 A 
HETATM   23  C2  UNL     1      25.475  -0.359  54.474  1.00  0.00    -0.055 A 
HETATM   24  C1  UNL     1      24.710  -1.066  55.548  1.00  0.00     0.049 C 
HETATM   25  C3  UNL     1      26.749   0.106  54.812  1.00  0.00     0.007 A 
HETATM   26  C4  UNL     1      27.450   0.751  53.832  1.00  0.00     0.001 A 
HETATM   27  C5  UNL     1      26.907   0.927  52.564  1.00  0.00     0.001 A 
HETATM   28  C6  UNL     1      25.662   0.473  52.233  1.00  0.00     0.008 A 
ENDBRANCH  21  22
ENDBRANCH  15  21
ENDBRANCH   9  11
ENDBRANCH   8   9
ENDBRANCH   6   8
ENDBRANCH   1   5
TORSDOF 6
ENDMDL
MODEL 5
REMARK VINA RESULT:      -7.2      3.602      6.471
REMARK  6 active torsions:
REMARK  status: ('A' for Active; 'I' for Inactive)
REMARK    1  A    between atoms: C7_7  and  C8_8 
REMARK    2  A    between atoms: C8_8  and  C9_9 
REMARK    3  A    between atoms: C12_12  and  N1_13 
REMARK    4  A    between atoms: N1_13  and  C13_14 
REMARK    5  A    between atoms: C13_14  and  C14_15 
REMARK    6  A    between atoms: C15_16  and  C16_18 
ROOT
HETATM    1  C16 UNL     1      25.901   3.095  51.419  1.00  0.00     0.029 C 
HETATM    2  C17 UNL     1      25.713   3.533  50.168  1.00  0.00     0.095 C 
HETATM    3  C18 UNL     1      26.811   4.017  49.374  1.00  0.00     0.087 C 
HETATM    4  N2  UNL     1      27.702   4.400  48.745  1.00  0.00    -0.192 NA
ENDROOT
BRANCH   1   5
HETATM    5  C15 UNL     1      24.939   2.575  52.368  1.00  0.00     0.009 C 
HETATM    6  C14 UNL     1      24.064   3.315  53.070  1.00  0.00     0.012 C 
HETATM    7 BR1  UNL     1      25.040   0.658  52.523  1.00  0.00    -0.051 Br
BRANCH   6   8
HETATM    8  C13 UNL     1      23.836   4.762  53.093  1.00  0.00     0.150 C 
BRANCH   8   9
HETATM    9  N1  UNL     1      22.740   5.224  52.285  1.00  0.00    -0.371 N 
HETATM   10  H11 UNL     1      21.751   5.534  52.421  1.00  0.00     0.161 HD
BRANCH   9  11
HETATM   11  C12 UNL     1      22.698   5.414  50.879  1.00  0.00     0.133 C 
HETATM   12  C11 UNL     1      22.093   4.421  50.203  1.00  0.00     0.016 C 
HETATM   13  C10 UNL     1      21.459   3.169  50.619  1.00  0.00     0.038 C 
HETATM   14  C21 UNL     1      21.932   4.409  48.711  1.00  0.00     0.144 C 
HETATM   15  C9  UNL     1      21.427   2.297  49.596  1.00  0.00     0.010 C 
HETATM   16  N4  UNL     1      22.034   2.966  48.496  1.00  0.00    -0.381 N 
HETATM   17  H19 UNL     1      22.460   2.433  47.707  1.00  0.00     0.160 HD
HETATM   18  C20 UNL     1      23.012   5.175  48.075  1.00  0.00     0.037 C 
HETATM   19  C19 UNL     1      23.542   6.142  48.806  1.00  0.00     0.086 C 
HETATM   20  N3  UNL     1      23.157   6.434  49.971  1.00  0.00    -0.229 NA
BRANCH  15  21
HETATM   21  C8  UNL     1      20.870   0.950  49.645  1.00  0.00     0.095 C 
BRANCH  21  22
HETATM   22  C7  UNL     1      20.561   0.415  50.965  1.00  0.00    -0.047 A 
HETATM   23  C2  UNL     1      19.217   0.246  51.221  1.00  0.00    -0.055 A 
HETATM   24  C1  UNL     1      18.167   0.588  50.211  1.00  0.00     0.049 C 
HETATM   25  C3  UNL     1      18.769  -0.258  52.447  1.00  0.00     0.007 A 
HETATM   26  C4  UNL     1      19.726  -0.572  53.370  1.00  0.00     0.001 A 
HETATM   27  C5  UNL     1      21.075  -0.393  53.089  1.00  0.00     0.001 A 
HETATM   28  C6  UNL     1      21.513   0.099  51.892  1.00  0.00     0.008 A 
ENDBRANCH  21  22
ENDBRANCH  15  21
ENDBRANCH   9  11
ENDBRANCH   8   9
ENDBRANCH   6   8
ENDBRANCH   1   5
TORSDOF 6
ENDMDL
MODEL 6
REMARK VINA RESULT:      -7.2      2.999      5.558
REMARK  6 active torsions:
REMARK  status: ('A' for Active; 'I' for Inactive)
REMARK    1  A    between atoms: C7_7  and  C8_8 
REMARK    2  A    between atoms: C8_8  and  C9_9 
REMARK    3  A    between atoms: C12_12  and  N1_13 
REMARK    4  A    between atoms: N1_13  and  C13_14 
REMARK    5  A    between atoms: C13_14  and  C14_15 
REMARK    6  A    between atoms: C15_16  and  C16_18 
ROOT
HETATM    1  C16 UNL     1      26.318   6.078  48.474  1.00  0.00     0.029 C 
HETATM    2  C17 UNL     1      27.553   6.593  48.482  1.00  0.00     0.095 C 
HETATM    3  C18 UNL     1      28.709   5.764  48.263  1.00  0.00     0.087 C 
HETATM    4  N2  UNL     1      29.629   5.089  48.081  1.00  0.00    -0.192 NA
ENDROOT
BRANCH   1   5
HETATM    5  C15 UNL     1      25.043   6.736  48.670  1.00  0.00     0.009 C 
HETATM    6  C14 UNL     1      23.854   6.114  48.748  1.00  0.00     0.012 C 
HETATM    7 BR1  UNL     1      25.230   8.646  48.819  1.00  0.00    -0.051 Br
BRANCH   6   8
HETATM    8  C13 UNL     1      23.509   4.693  48.661  1.00  0.00     0.150 C 
BRANCH   8   9
HETATM    9  N1  UNL     1      23.938   3.887  49.771  1.00  0.00    -0.371 N 
HETATM   10  H11 UNL     1      24.814   3.714  50.313  1.00  0.00     0.161 HD
BRANCH   9  11
HETATM   11  C12 UNL     1      23.174   2.975  50.547  1.00  0.00     0.133 C 
HETATM   12  C11 UNL     1      23.820   2.486  51.622  1.00  0.00     0.016 C 
HETATM   13  C10 UNL     1      25.162   2.701  52.165  1.00  0.00     0.038 C 
HETATM   14  C21 UNL     1      23.210   1.510  52.585  1.00  0.00     0.144 C 
HETATM   15  C9  UNL     1      25.521   1.668  52.948  1.00  0.00     0.010 C 
HETATM   16  N4  UNL     1      24.421   0.766  52.930  1.00  0.00    -0.381 N 
HETATM   17  H19 UNL     1      24.548  -0.247  53.141  1.00  0.00     0.160 HD
HETATM   18  C20 UNL     1      22.192   0.695  51.908  1.00  0.00     0.037 C 
HETATM   19  C19 UNL     1      21.598   1.258  50.869  1.00  0.00     0.086 C 
HETATM   20  N3  UNL     1      21.844   2.427  50.467  1.00  0.00    -0.229 NA
BRANCH  15  21
HETATM   21  C8  UNL     1      26.791   1.539  53.654  1.00  0.00     0.095 C 
BRANCH  21  22
HETATM   22  C7  UNL     1      27.525   0.294  53.466  1.00  0.00    -0.047 A 
HETATM   23  C2  UNL     1      28.822   0.310  53.931  1.00  0.00    -0.055 A 
HETATM   24  C1  UNL     1      29.418   1.521  54.580  1.00  0.00     0.049 C 
HETATM   25  C3  UNL     1      29.648  -0.813  53.819  1.00  0.00     0.007 A 
HETATM   26  C4  UNL     1      29.106  -1.919  53.227  1.00  0.00     0.001 A 
HETATM   27  C5  UNL     1      27.795  -1.912  52.766  1.00  0.00     0.001 A 
HETATM   28  C6  UNL     1      26.988  -0.815  52.876  1.00  0.00     0.008 A 
ENDBRANCH  21  22
ENDBRANCH  15  21
ENDBRANCH   9  11
ENDBRANCH   8   9
ENDBRANCH   6   8
ENDBRANCH   1   5
TORSDOF 6
ENDMDL
MODEL 7
REMARK VINA RESULT:      -7.2      2.104      3.312
REMARK  6 active torsions:
REMARK  status: ('A' for Active; 'I' for Inactive)
REMARK    1  A    between atoms: C7_7  and  C8_8 
REMARK    2  A    between atoms: C8_8  and  C9_9 
REMARK    3  A    between atoms: C12_12  and  N1_13 
REMARK    4  A    between atoms: N1_13  and  C13_14 
REMARK    5  A    between atoms: C13_14  and  C14_15 
REMARK    6  A    between atoms: C15_16  and  C16_18 
ROOT
HETATM    1  C16 UNL     1      20.777   2.922  50.359  1.00  0.00     0.029 C 
HETATM    2  C17 UNL     1      20.188   3.880  49.633  1.00  0.00     0.095 C 
HETATM    3  C18 UNL     1      20.007   3.734  48.212  1.00  0.00     0.087 C 
HETATM    4  N2  UNL     1      19.862   3.604  47.072  1.00  0.00    -0.192 NA
ENDROOT
BRANCH   1   5
HETATM    5  C15 UNL     1      21.048   2.878  51.780  1.00  0.00     0.009 C 
HETATM    6  C14 UNL     1      21.680   3.837  52.478  1.00  0.00     0.012 C 
HETATM    7 BR1  UNL     1      20.388   1.262  52.593  1.00  0.00    -0.051 Br
BRANCH   6   8
HETATM    8  C13 UNL     1      22.247   5.118  52.049  1.00  0.00     0.150 C 
BRANCH   8   9
HETATM    9  N1  UNL     1      23.680   5.150  51.941  1.00  0.00    -0.371 N 
HETATM   10  H11 UNL     1      24.490   5.554  52.464  1.00  0.00     0.161 HD
BRANCH   9  11
HETATM   11  C12 UNL     1      24.505   4.552  50.952  1.00  0.00     0.133 C 
HETATM   12  C11 UNL     1      25.086   3.401  51.338  1.00  0.00     0.016 C 
HETATM   13  C10 UNL     1      25.046   2.627  52.579  1.00  0.00     0.038 C 
HETATM   14  C21 UNL     1      25.997   2.595  50.458  1.00  0.00     0.144 C 
HETATM   15  C9  UNL     1      26.128   1.834  52.672  1.00  0.00     0.010 C 
HETATM   16  N4  UNL     1      26.888   2.075  51.493  1.00  0.00    -0.381 N 
HETATM   17  H19 UNL     1      27.913   1.883  51.462  1.00  0.00     0.160 HD
HETATM   18  C20 UNL     1      26.670   3.467  49.486  1.00  0.00     0.037 C 
HETATM   19  C19 UNL     1      26.022   4.571  49.153  1.00  0.00     0.086 C 
HETATM   20  N3  UNL     1      24.885   4.880  49.602  1.00  0.00    -0.229 NA
BRANCH  15  21
HETATM   21  C8  UNL     1      26.421   0.925  53.773  1.00  0.00     0.095 C 
BRANCH  21  22
HETATM   22  C7  UNL     1      27.194  -0.269  53.453  1.00  0.00    -0.047 A 
HETATM   23  C2  UNL     1      28.533  -0.195  53.769  1.00  0.00    -0.055 A 
HETATM   24  C1  UNL     1      29.135   1.024  54.396  1.00  0.00     0.049 C 
HETATM   25  C3  UNL     1      29.398  -1.265  53.518  1.00  0.00     0.007 A 
HETATM   26  C4  UNL     1      28.851  -2.379  52.946  1.00  0.00     0.001 A 
HETATM   27  C5  UNL     1      27.497  -2.430  52.636  1.00  0.00     0.001 A 
HETATM   28  C6  UNL     1      26.652  -1.386  52.882  1.00  0.00     0.008 A 
ENDBRANCH  21  22
ENDBRANCH  15  21
ENDBRANCH   9  11
ENDBRANCH   8   9
ENDBRANCH   6   8
ENDBRANCH   1   5
TORSDOF 6
ENDMDL
MODEL 8
REMARK VINA RESULT:      -7.1      3.206      5.401
REMARK  6 active torsions:
REMARK  status: ('A' for Active; 'I' for Inactive)
REMARK    1  A    between atoms: C7_7  and  C8_8 
REMARK    2  A    between atoms: C8_8  and  C9_9 
REMARK    3  A    between atoms: C12_12  and  N1_13 
REMARK    4  A    between atoms: N1_13  and  C13_14 
REMARK    5  A    between atoms: C13_14  and  C14_15 
REMARK    6  A    between atoms: C15_16  and  C16_18 
ROOT
HETATM    1  C16 UNL     1      25.336   6.141  49.914  1.00  0.00     0.029 C 
HETATM    2  C17 UNL     1      25.917   5.346  49.007  1.00  0.00     0.095 C 
HETATM    3  C18 UNL     1      26.457   4.064  49.376  1.00  0.00     0.087 C 
HETATM    4  N2  UNL     1      26.883   3.034  49.683  1.00  0.00    -0.192 NA
ENDROOT
BRANCH   1   5
HETATM    5  C15 UNL     1      24.739   7.450  49.746  1.00  0.00     0.009 C 
HETATM    6  C14 UNL     1      23.571   7.842  50.281  1.00  0.00     0.012 C 
HETATM    7 BR1  UNL     1      25.824   8.604  48.652  1.00  0.00    -0.051 Br
BRANCH   6   8
HETATM    8  C13 UNL     1      22.615   7.124  51.128  1.00  0.00     0.150 C 
BRANCH   8   9
HETATM    9  N1  UNL     1      21.641   6.336  50.423  1.00  0.00    -0.371 N 
HETATM   10  H11 UNL     1      20.610   6.344  50.253  1.00  0.00     0.161 HD
BRANCH   9  11
HETATM   11  C12 UNL     1      21.847   5.162  49.651  1.00  0.00     0.133 C 
HETATM   12  C11 UNL     1      22.332   4.118  50.349  1.00  0.00     0.016 C 
HETATM   13  C10 UNL     1      22.696   3.938  51.755  1.00  0.00     0.038 C 
HETATM   14  C21 UNL     1      22.625   2.777  49.742  1.00  0.00     0.144 C 
HETATM   15  C9  UNL     1      23.560   2.916  51.888  1.00  0.00     0.010 C 
HETATM   16  N4  UNL     1      23.771   2.412  50.573  1.00  0.00    -0.381 N 
HETATM   17  H19 UNL     1      24.634   1.880  50.330  1.00  0.00     0.160 HD
HETATM   18  C20 UNL     1      22.955   2.923  48.318  1.00  0.00     0.037 C 
HETATM   19  C19 UNL     1      22.425   3.970  47.707  1.00  0.00     0.086 C 
HETATM   20  N3  UNL     1      21.662   4.801  48.269  1.00  0.00    -0.229 NA
BRANCH  15  21
HETATM   21  C8  UNL     1      24.138   2.451  53.143  1.00  0.00     0.095 C 
BRANCH  21  22
HETATM   22  C7  UNL     1      25.225   1.484  53.048  1.00  0.00    -0.047 A 
HETATM   23  C2  UNL     1      24.842   0.166  53.180  1.00  0.00    -0.055 A 
HETATM   24  C1  UNL     1      23.415  -0.227  53.399  1.00  0.00     0.049 C 
HETATM   25  C3  UNL     1      25.777  -0.871  53.111  1.00  0.00     0.007 A 
HETATM   26  C4  UNL     1      27.080  -0.514  52.910  1.00  0.00     0.001 A 
HETATM   27  C5  UNL     1      27.442   0.822  52.780  1.00  0.00     0.001 A 
HETATM   28  C6  UNL     1      26.530   1.836  52.847  1.00  0.00     0.008 A 
ENDBRANCH  21  22
ENDBRANCH  15  21
ENDBRANCH   9  11
ENDBRANCH   8   9
ENDBRANCH   6   8
ENDBRANCH   1   5
TORSDOF 6
ENDMDL
MODEL 9
REMARK VINA RESULT:      -7.1      2.311      5.048
REMARK  6 active torsions:
REMARK  status: ('A' for Active; 'I' for Inactive)
REMARK    1  A    between atoms: C7_7  and  C8_8 
REMARK    2  A    between atoms: C8_8  and  C9_9 
REMARK    3  A    between atoms: C12_12  and  N1_13 
REMARK    4  A    between atoms: N1_13  and  C13_14 
REMARK    5  A    between atoms: C13_14  and  C14_15 
REMARK    6  A    between atoms: C15_16  and  C16_18 
ROOT
HETATM    1  C16 UNL     1      22.524   4.516  49.257  1.00  0.00     0.029 C 
HETATM    2  C17 UNL     1      23.820   4.728  48.995  1.00  0.00     0.095 C 
HETATM    3  C18 UNL     1      24.567   5.740  49.695  1.00  0.00     0.087 C 
HETATM    4  N2  UNL     1      25.158   6.552  50.267  1.00  0.00    -0.192 NA
ENDROOT
BRANCH   1   5
HETATM    5  C15 UNL     1      21.609   3.560  48.671  1.00  0.00     0.009 C 
HETATM    6  C14 UNL     1      20.768   2.770  49.359  1.00  0.00     0.012 C 
HETATM    7 BR1  UNL     1      21.720   3.537  46.749  1.00  0.00    -0.051 Br
BRANCH   6   8
HETATM    8  C13 UNL     1      20.538   2.641  50.801  1.00  0.00     0.150 C 
BRANCH   8   9
HETATM    9  N1  UNL     1      21.675   2.212  51.568  1.00  0.00    -0.371 N 
HETATM   10  H11 UNL     1      22.707   2.378  51.588  1.00  0.00     0.161 HD
BRANCH   9  11
HETATM   11  C12 UNL     1      21.709   1.318  52.671  1.00  0.00     0.133 C 
HETATM   12  C11 UNL     1      22.928   0.812  52.936  1.00  0.00     0.016 C 
HETATM   13  C10 UNL     1      24.242   0.993  52.319  1.00  0.00     0.038 C 
HETATM   14  C21 UNL     1      23.202  -0.151  54.054  1.00  0.00     0.144 C 
HETATM   15  C9  UNL     1      25.042  -0.050  52.605  1.00  0.00     0.010 C 
HETATM   16  N4  UNL     1      24.264  -0.925  53.415  1.00  0.00    -0.381 N 
HETATM   17  H19 UNL     1      24.488  -1.941  53.481  1.00  0.00     0.160 HD
HETATM   18  C20 UNL     1      21.999  -0.940  54.354  1.00  0.00     0.037 C 
HETATM   19  C19 UNL     1      20.844  -0.361  54.074  1.00  0.00     0.086 C 
HETATM   20  N3  UNL     1      20.737   0.803  53.600  1.00  0.00    -0.229 NA
BRANCH  15  21
HETATM   21  C8  UNL     1      26.420  -0.210  52.157  1.00  0.00     0.095 C 
BRANCH  21  22
HETATM   22  C7  UNL     1      27.432   0.580  52.847  1.00  0.00    -0.047 A 
HETATM   23  C2  UNL     1      28.481  -0.148  53.366  1.00  0.00    -0.055 A 
HETATM   24  C1  UNL     1      28.563  -1.636  53.222  1.00  0.00     0.049 C 
HETATM   25  C3  UNL     1      29.526   0.475  54.055  1.00  0.00     0.007 A 
HETATM   26  C4  UNL     1      29.453   1.833  54.187  1.00  0.00     0.001 A 
HETATM   27  C5  UNL     1      28.386   2.546  53.655  1.00  0.00     0.001 A 
HETATM   28  C6  UNL     1      27.365   1.938  52.981  1.00  0.00     0.008 A 
ENDBRANCH  21  22
ENDBRANCH  15  21
ENDBRANCH   9  11
ENDBRANCH   8   9
ENDBRANCH   6   8
ENDBRANCH   1   5
TORSDOF 6
ENDMDL
