MODEL 1
REMARK VINA RESULT:      -7.6      0.000      0.000
REMARK  6 active torsions:
REMARK  status: ('A' for Active; 'I' for Inactive)
REMARK    1  A    between atoms: C2_2  and  C3_3 
REMARK    2  A    between atoms: C4_4  and  C5_5 
REMARK    3  A    between atoms: C5_5  and  O1_6 
REMARK    4  A    between atoms: O1_6  and  C6_7 
REMARK    5  A    between atoms: C7_8  and  C8_9 
REMARK    6  A    between atoms: C8_9  and  O2_10 
ROOT
HETATM    1  C6  UNL     1      25.295   1.220  53.115  1.00  0.00     0.132 A 
HETATM    2  C7  UNL     1      25.680   0.349  54.030  1.00  0.00     0.053 A 
HETATM    3  C9  UNL     1      24.738  -0.586  54.614  1.00  0.00     0.194 A 
HETATM    4  O3  UNL     1      25.138  -1.398  55.477  1.00  0.00    -0.287 OA
HETATM    5  C10 UNL     1      23.332  -0.611  54.224  1.00  0.00     0.029 A 
HETATM    6  C11 UNL     1      22.440  -1.500  54.780  1.00  0.00     0.016 A 
HETATM    7  C12 UNL     1      21.104  -1.507  54.395  1.00  0.00     0.001 A 
HETATM    8  C13 UNL     1      20.669  -0.609  53.442  1.00  0.00     0.001 A 
HETATM    9  C14 UNL     1      21.579   0.272  52.897  1.00  0.00     0.016 A 
HETATM   10  C15 UNL     1      22.908   0.304  53.258  1.00  0.00     0.031 A 
HETATM   11  C16 UNL     1      23.880   1.224  52.697  1.00  0.00     0.217 A 
HETATM   12  O4  UNL     1      23.377   2.008  51.829  1.00  0.00    -0.284 OA
ENDROOT
BRANCH   1  13
HETATM   13  O1  UNL     1      26.025   2.186  52.441  1.00  0.00    -0.343 OA
BRANCH  13  14
HETATM   14  C5  UNL     1      26.663   1.896  51.232  1.00  0.00     0.203 C 
BRANCH  14  15
HETATM   15  C4  UNL     1      26.643   3.163  50.428  1.00  0.00    -0.000 C 
HETATM   16  C3  UNL     1      25.935   3.972  49.621  1.00  0.00    -0.003 C 
BRANCH  16  17
HETATM   17  C2  UNL     1      26.289   5.249  48.968  1.00  0.00    -0.010 C 
HETATM   18  C1  UNL     1      27.544   5.097  48.627  1.00  0.00     0.011 C 
ENDBRANCH  16  17
ENDBRANCH  14  15
ENDBRANCH  13  14
ENDBRANCH   1  13
BRANCH   2  19
HETATM   19  C8  UNL     1      27.090   0.309  54.481  1.00  0.00     0.210 C 
BRANCH  19  20
HETATM   20  O2  UNL     1      27.720  -0.879  54.217  1.00  0.00    -0.396 OA
HETATM   21  H10 UNL     1      28.699  -0.847  54.210  1.00  0.00     0.209 HD
ENDBRANCH  19  20
ENDBRANCH   2  19
TORSDOF 6
ENDMDL
MODEL 2
REMARK VINA RESULT:      -7.4      1.329      1.956
REMARK  6 active torsions:
REMARK  status: ('A' for Active; 'I' for Inactive)
REMARK    1  A    between atoms: C2_2  and  C3_3 
REMARK    2  A    between atoms: C4_4  and  C5_5 
REMARK    3  A    between atoms: C5_5  and  O1_6 
REMARK    4  A    between atoms: O1_6  and  C6_7 
REMARK    5  A    between atoms: C7_8  and  C8_9 
REMARK    6  A    between atoms: C8_9  and  O2_10 
ROOT
HETATM    1  C6  UNL     1      24.674   2.338  51.887  1.00  0.00     0.132 A 
HETATM    2  C7  UNL     1      25.542   1.427  52.287  1.00  0.00     0.053 A 
HETATM    3  C9  UNL     1      25.122   0.303  53.102  1.00  0.00     0.194 A 
HETATM    4  O3  UNL     1      25.971  -0.542  53.462  1.00  0.00    -0.287 OA
HETATM    5  C10 UNL     1      23.735   0.124  53.515  1.00  0.00     0.029 A 
HETATM    6  C11 UNL     1      23.339  -0.944  54.288  1.00  0.00     0.016 A 
HETATM    7  C12 UNL     1      22.012  -1.096  54.672  1.00  0.00     0.001 A 
HETATM    8  C13 UNL     1      21.079  -0.161  54.271  1.00  0.00     0.001 A 
HETATM    9  C14 UNL     1      21.496   0.901  53.497  1.00  0.00     0.016 A 
HETATM   10  C15 UNL     1      22.804   1.079  53.101  1.00  0.00     0.031 A 
HETATM   11  C16 UNL     1      23.262   2.190  52.287  1.00  0.00     0.217 A 
HETATM   12  O4  UNL     1      22.325   2.993  51.972  1.00  0.00    -0.284 OA
ENDROOT
BRANCH   1  13
HETATM   13  O1  UNL     1      24.865   3.473  51.115  1.00  0.00    -0.343 OA
BRANCH  13  14
HETATM   14  C5  UNL     1      24.840   3.410  49.719  1.00  0.00     0.203 C 
BRANCH  14  15
HETATM   15  C4  UNL     1      25.855   4.404  49.233  1.00  0.00    -0.000 C 
HETATM   16  C3  UNL     1      27.143   4.642  48.937  1.00  0.00    -0.003 C 
BRANCH  16  17
HETATM   17  C2  UNL     1      27.820   5.857  48.438  1.00  0.00    -0.010 C 
HETATM   18  C1  UNL     1      29.047   5.465  48.200  1.00  0.00     0.011 C 
ENDBRANCH  16  17
ENDBRANCH  14  15
ENDBRANCH  13  14
ENDBRANCH   1  13
BRANCH   2  19
HETATM   19  C8  UNL     1      26.970   1.535  51.910  1.00  0.00     0.210 C 
BRANCH  19  20
HETATM   20  O2  UNL     1      27.474   2.804  52.017  1.00  0.00    -0.396 OA
HETATM   21  H10 UNL     1      28.221   2.913  52.641  1.00  0.00     0.209 HD
ENDBRANCH  19  20
ENDBRANCH   2  19
TORSDOF 6
ENDMDL
MODEL 3
REMARK VINA RESULT:      -7.2      1.973      4.454
REMARK  6 active torsions:
REMARK  status: ('A' for Active; 'I' for Inactive)
REMARK    1  A    between atoms: C2_2  and  C3_3 
REMARK    2  A    between atoms: C4_4  and  C5_5 
REMARK    3  A    between atoms: C5_5  and  O1_6 
REMARK    4  A    between atoms: O1_6  and  C6_7 
REMARK    5  A    between atoms: C7_8  and  C8_9 
REMARK    6  A    between atoms: C8_9  and  O2_10 
ROOT
HETATM    1  C6  UNL     1      24.897   1.455  52.284  1.00  0.00     0.132 A 
HETATM    2  C7  UNL     1      24.018   2.406  52.023  1.00  0.00     0.053 A 
HETATM    3  C9  UNL     1      22.624   2.254  52.392  1.00  0.00     0.194 A 
HETATM    4  O3  UNL     1      21.818   3.175  52.130  1.00  0.00    -0.287 OA
HETATM    5  C10 UNL     1      22.128   1.058  53.064  1.00  0.00     0.029 A 
HETATM    6  C11 UNL     1      20.804   0.917  53.414  1.00  0.00     0.016 A 
HETATM    7  C12 UNL     1      20.351  -0.232  54.052  1.00  0.00     0.001 A 
HETATM    8  C13 UNL     1      21.245  -1.244  54.339  1.00  0.00     0.001 A 
HETATM    9  C14 UNL     1      22.566  -1.082  53.980  1.00  0.00     0.016 A 
HETATM   10  C15 UNL     1      23.045   0.043  53.346  1.00  0.00     0.031 A 
HETATM   11  C16 UNL     1      24.431   0.231  52.961  1.00  0.00     0.217 A 
HETATM   12  O4  UNL     1      25.170  -0.759  53.270  1.00  0.00    -0.284 OA
ENDROOT
BRANCH   1  13
HETATM   13  O1  UNL     1      26.256   1.402  52.018  1.00  0.00    -0.343 OA
BRANCH  13  14
HETATM   14  C5  UNL     1      27.190   1.913  52.923  1.00  0.00     0.203 C 
BRANCH  14  15
HETATM   15  C4  UNL     1      28.234   0.850  53.101  1.00  0.00    -0.000 C 
HETATM   16  C3  UNL     1      29.078   0.234  53.945  1.00  0.00    -0.003 C 
BRANCH  16  17
HETATM   17  C2  UNL     1      30.035  -0.872  53.732  1.00  0.00    -0.010 C 
HETATM   18  C1  UNL     1      29.294  -1.855  53.285  1.00  0.00     0.011 C 
ENDBRANCH  16  17
ENDBRANCH  14  15
ENDBRANCH  13  14
ENDBRANCH   1  13
BRANCH   2  19
HETATM   19  C8  UNL     1      24.439   3.652  51.343  1.00  0.00     0.210 C 
BRANCH  19  20
HETATM   20  O2  UNL     1      24.202   4.786  52.074  1.00  0.00    -0.396 OA
HETATM   21  H10 UNL     1      24.935   5.435  52.100  1.00  0.00     0.209 HD
ENDBRANCH  19  20
ENDBRANCH   2  19
TORSDOF 6
ENDMDL
MODEL 4
REMARK VINA RESULT:      -7.2      2.340      3.211
REMARK  6 active torsions:
REMARK  status: ('A' for Active; 'I' for Inactive)
REMARK    1  A    between atoms: C2_2  and  C3_3 
REMARK    2  A    between atoms: C4_4  and  C5_5 
REMARK    3  A    between atoms: C5_5  and  O1_6 
REMARK    4  A    between atoms: O1_6  and  C6_7 
REMARK    5  A    between atoms: C7_8  and  C8_9 
REMARK    6  A    between atoms: C8_9  and  O2_10 
ROOT
HETATM    1  C6  UNL     1      23.812   0.347  53.000  1.00  0.00     0.132 A 
HETATM    2  C7  UNL     1      23.684  -0.492  54.013  1.00  0.00     0.053 A 
HETATM    3  C9  UNL     1      22.394  -1.063  54.349  1.00  0.00     0.194 A 
HETATM    4  O3  UNL     1      22.309  -1.855  55.315  1.00  0.00    -0.287 OA
HETATM    5  C10 UNL     1      21.188  -0.746  53.594  1.00  0.00     0.029 A 
HETATM    6  C11 UNL     1      19.965  -1.291  53.915  1.00  0.00     0.016 A 
HETATM    7  C12 UNL     1      18.826  -0.975  53.183  1.00  0.00     0.001 A 
HETATM    8  C13 UNL     1      18.926  -0.101  52.118  1.00  0.00     0.001 A 
HETATM    9  C14 UNL     1      20.160   0.433  51.813  1.00  0.00     0.016 A 
HETATM   10  C15 UNL     1      21.306   0.139  52.520  1.00  0.00     0.031 A 
HETATM   11  C16 UNL     1      22.613   0.692  52.215  1.00  0.00     0.217 A 
HETATM   12  O4  UNL     1      22.595   1.483  51.218  1.00  0.00    -0.284 OA
ENDROOT
BRANCH   1  13
HETATM   13  O1  UNL     1      24.937   0.996  52.519  1.00  0.00    -0.343 OA
BRANCH  13  14
HETATM   14  C5  UNL     1      25.334   2.233  53.034  1.00  0.00     0.203 C 
BRANCH  14  15
HETATM   15  C4  UNL     1      26.724   2.045  53.566  1.00  0.00    -0.000 C 
HETATM   16  C3  UNL     1      28.037   1.990  53.287  1.00  0.00    -0.003 C 
BRANCH  16  17
HETATM   17  C2  UNL     1      29.210   1.765  54.158  1.00  0.00    -0.010 C 
HETATM   18  C1  UNL     1      29.555   0.525  53.915  1.00  0.00     0.011 C 
ENDBRANCH  16  17
ENDBRANCH  14  15
ENDBRANCH  13  14
ENDBRANCH   1  13
BRANCH   2  19
HETATM   19  C8  UNL     1      24.860  -0.866  54.830  1.00  0.00     0.210 C 
BRANCH  19  20
HETATM   20  O2  UNL     1      25.951  -1.238  54.090  1.00  0.00    -0.396 OA
HETATM   21  H10 UNL     1      25.773  -1.452  53.151  1.00  0.00     0.209 HD
ENDBRANCH  19  20
ENDBRANCH   2  19
TORSDOF 6
ENDMDL
MODEL 5
REMARK VINA RESULT:      -7.0      2.319      5.736
REMARK  6 active torsions:
REMARK  status: ('A' for Active; 'I' for Inactive)
REMARK    1  A    between atoms: C2_2  and  C3_3 
REMARK    2  A    between atoms: C4_4  and  C5_5 
REMARK    3  A    between atoms: C5_5  and  O1_6 
REMARK    4  A    between atoms: O1_6  and  C6_7 
REMARK    5  A    between atoms: C7_8  and  C8_9 
REMARK    6  A    between atoms: C8_9  and  O2_10 
ROOT
HETATM    1  C6  UNL     1      23.804   0.955  53.084  1.00  0.00     0.132 A 
HETATM    2  C7  UNL     1      23.967  -0.102  53.859  1.00  0.00     0.053 A 
HETATM    3  C9  UNL     1      25.264  -0.420  54.424  1.00  0.00     0.194 A 
HETATM    4  O3  UNL     1      25.382  -1.429  55.155  1.00  0.00    -0.287 OA
HETATM    5  C10 UNL     1      26.441   0.403  54.170  1.00  0.00     0.029 A 
HETATM    6  C11 UNL     1      27.671   0.099  54.709  1.00  0.00     0.016 A 
HETATM    7  C12 UNL     1      28.780   0.897  54.453  1.00  0.00     0.001 A 
HETATM    8  C13 UNL     1      28.644   2.009  53.647  1.00  0.00     0.001 A 
HETATM    9  C14 UNL     1      27.404   2.296  53.118  1.00  0.00     0.016 A 
HETATM   10  C15 UNL     1      26.286   1.525  53.352  1.00  0.00     0.031 A 
HETATM   11  C16 UNL     1      24.973   1.810  52.804  1.00  0.00     0.217 A 
HETATM   12  O4  UNL     1      24.956   2.855  52.076  1.00  0.00    -0.284 OA
ENDROOT
BRANCH   1  13
HETATM   13  O1  UNL     1      22.667   1.430  52.452  1.00  0.00    -0.343 OA
BRANCH  13  14
HETATM   14  C5  UNL     1      22.298   0.969  51.185  1.00  0.00     0.203 C 
BRANCH  14  15
HETATM   15  C4  UNL     1      20.867   0.529  51.294  1.00  0.00    -0.000 C 
HETATM   16  C3  UNL     1      19.864   0.156  52.107  1.00  0.00    -0.003 C 
BRANCH  16  17
HETATM   17  C2  UNL     1      18.470  -0.237  51.816  1.00  0.00    -0.010 C 
HETATM   18  C1  UNL     1      18.127  -0.980  52.838  1.00  0.00     0.011 C 
ENDBRANCH  16  17
ENDBRANCH  14  15
ENDBRANCH  13  14
ENDBRANCH   1  13
BRANCH   2  19
HETATM   19  C8  UNL     1      22.823  -0.990  54.166  1.00  0.00     0.210 C 
BRANCH  19  20
HETATM   20  O2  UNL     1      22.677  -1.260  55.501  1.00  0.00    -0.396 OA
HETATM   21  H10 UNL     1      21.802  -1.047  55.884  1.00  0.00     0.209 HD
ENDBRANCH  19  20
ENDBRANCH   2  19
TORSDOF 6
ENDMDL
MODEL 6
REMARK VINA RESULT:      -6.9      2.374      4.150
REMARK  6 active torsions:
REMARK  status: ('A' for Active; 'I' for Inactive)
REMARK    1  A    between atoms: C2_2  and  C3_3 
REMARK    2  A    between atoms: C4_4  and  C5_5 
REMARK    3  A    between atoms: C5_5  and  O1_6 
REMARK    4  A    between atoms: O1_6  and  C6_7 
REMARK    5  A    between atoms: C7_8  and  C8_9 
REMARK    6  A    between atoms: C8_9  and  O2_10 
ROOT
HETATM    1  C6  UNL     1      24.810   3.469  51.454  1.00  0.00     0.132 A 
HETATM    2  C7  UNL     1      23.655   3.094  51.973  1.00  0.00     0.053 A 
HETATM    3  C9  UNL     1      23.508   1.799  52.609  1.00  0.00     0.194 A 
HETATM    4  O3  UNL     1      22.399   1.476  53.091  1.00  0.00    -0.287 OA
HETATM    5  C10 UNL     1      24.616   0.855  52.707  1.00  0.00     0.029 A 
HETATM    6  C11 UNL     1      24.474  -0.373  53.311  1.00  0.00     0.016 A 
HETATM    7  C12 UNL     1      25.543  -1.258  53.394  1.00  0.00     0.001 A 
HETATM    8  C13 UNL     1      26.764  -0.897  52.861  1.00  0.00     0.001 A 
HETATM    9  C14 UNL     1      26.885   0.338  52.260  1.00  0.00     0.016 A 
HETATM   10  C15 UNL     1      25.845   1.236  52.162  1.00  0.00     0.031 A 
HETATM   11  C16 UNL     1      25.953   2.540  51.534  1.00  0.00     0.217 A 
HETATM   12  O4  UNL     1      27.118   2.774  51.076  1.00  0.00    -0.284 OA
ENDROOT
BRANCH   1  13
HETATM   13  O1  UNL     1      25.158   4.646  50.811  1.00  0.00    -0.343 OA
BRANCH  13  14
HETATM   14  C5  UNL     1      25.050   4.770  49.423  1.00  0.00     0.203 C 
BRANCH  14  15
HETATM   15  C4  UNL     1      26.370   5.299  48.942  1.00  0.00    -0.000 C 
HETATM   16  C3  UNL     1      27.642   5.016  48.614  1.00  0.00    -0.003 C 
BRANCH  16  17
HETATM   17  C2  UNL     1      28.740   5.883  48.138  1.00  0.00    -0.010 C 
HETATM   18  C1  UNL     1      28.149   7.011  47.835  1.00  0.00     0.011 C 
ENDBRANCH  16  17
ENDBRANCH  14  15
ENDBRANCH  13  14
ENDBRANCH   1  13
BRANCH   2  19
HETATM   19  C8  UNL     1      22.480   3.992  51.916  1.00  0.00     0.210 C 
BRANCH  19  20
HETATM   20  O2  UNL     1      22.697   5.221  52.480  1.00  0.00    -0.396 OA
HETATM   21  H10 UNL     1      23.631   5.436  52.684  1.00  0.00     0.209 HD
ENDBRANCH  19  20
ENDBRANCH   2  19
TORSDOF 6
ENDMDL
MODEL 7
REMARK VINA RESULT:      -6.9      1.543      3.299
REMARK  6 active torsions:
REMARK  status: ('A' for Active; 'I' for Inactive)
REMARK    1  A    between atoms: C2_2  and  C3_3 
REMARK    2  A    between atoms: C4_4  and  C5_5 
REMARK    3  A    between atoms: C5_5  and  O1_6 
REMARK    4  A    between atoms: O1_6  and  C6_7 
REMARK    5  A    between atoms: C7_8  and  C8_9 
REMARK    6  A    between atoms: C8_9  and  O2_10 
ROOT
HETATM    1  C6  UNL     1      24.317   2.159  52.610  1.00  0.00     0.132 A 
HETATM    2  C7  UNL     1      23.219   2.853  52.368  1.00  0.00     0.053 A 
HETATM    3  C9  UNL     1      21.908   2.290  52.622  1.00  0.00     0.194 A 
HETATM    4  O3  UNL     1      20.890   2.976  52.382  1.00  0.00    -0.287 OA
HETATM    5  C10 UNL     1      21.736   0.942  53.154  1.00  0.00     0.029 A 
HETATM    6  C11 UNL     1      20.489   0.409  53.395  1.00  0.00     0.016 A 
HETATM    7  C12 UNL     1      20.347  -0.877  53.901  1.00  0.00     0.001 A 
HETATM    8  C13 UNL     1      21.474  -1.630  54.165  1.00  0.00     0.001 A 
HETATM    9  C14 UNL     1      22.713  -1.078  53.916  1.00  0.00     0.016 A 
HETATM   10  C15 UNL     1      22.886   0.194  53.415  1.00  0.00     0.031 A 
HETATM   11  C16 UNL     1      24.181   0.792  53.146  1.00  0.00     0.217 A 
HETATM   12  O4  UNL     1      25.152   0.016  53.423  1.00  0.00    -0.284 OA
ENDROOT
BRANCH   1  13
HETATM   13  O1  UNL     1      25.647   2.506  52.438  1.00  0.00    -0.343 OA
BRANCH  13  14
HETATM   14  C5  UNL     1      26.371   2.068  51.326  1.00  0.00     0.203 C 
BRANCH  14  15
HETATM   15  C4  UNL     1      26.590   3.274  50.461  1.00  0.00    -0.000 C 
HETATM   16  C3  UNL     1      26.103   4.065  49.490  1.00  0.00    -0.003 C 
BRANCH  16  17
HETATM   17  C2  UNL     1      26.662   5.271  48.844  1.00  0.00    -0.010 C 
HETATM   18  C1  UNL     1      27.906   4.949  48.590  1.00  0.00     0.011 C 
ENDBRANCH  16  17
ENDBRANCH  14  15
ENDBRANCH  13  14
ENDBRANCH   1  13
BRANCH   2  19
HETATM   19  C8  UNL     1      23.307   4.229  51.827  1.00  0.00     0.210 C 
BRANCH  19  20
HETATM   20  O2  UNL     1      22.862   5.192  52.695  1.00  0.00    -0.396 OA
HETATM   21  H10 UNL     1      21.993   5.018  53.112  1.00  0.00     0.209 HD
ENDBRANCH  19  20
ENDBRANCH   2  19
TORSDOF 6
ENDMDL
MODEL 8
REMARK VINA RESULT:      -6.9      2.617      4.633
REMARK  6 active torsions:
REMARK  status: ('A' for Active; 'I' for Inactive)
REMARK    1  A    between atoms: C2_2  and  C3_3 
REMARK    2  A    between atoms: C4_4  and  C5_5 
REMARK    3  A    between atoms: C5_5  and  O1_6 
REMARK    4  A    between atoms: O1_6  and  C6_7 
REMARK    5  A    between atoms: C7_8  and  C8_9 
REMARK    6  A    between atoms: C8_9  and  O2_10 
ROOT
HETATM    1  C6  UNL     1      23.668   0.156  53.702  1.00  0.00     0.132 A 
HETATM    2  C7  UNL     1      22.461  -0.330  53.932  1.00  0.00     0.053 A 
HETATM    3  C9  UNL     1      21.274   0.395  53.523  1.00  0.00     0.194 A 
HETATM    4  O3  UNL     1      20.147  -0.095  53.756  1.00  0.00    -0.287 OA
HETATM    5  C10 UNL     1      21.352   1.684  52.845  1.00  0.00     0.029 A 
HETATM    6  C11 UNL     1      20.223   2.371  52.458  1.00  0.00     0.016 A 
HETATM    7  C12 UNL     1      20.318   3.599  51.813  1.00  0.00     0.001 A 
HETATM    8  C13 UNL     1      21.565   4.135  51.558  1.00  0.00     0.001 A 
HETATM    9  C14 UNL     1      22.682   3.431  51.954  1.00  0.00     0.016 A 
HETATM   10  C15 UNL     1      22.620   2.213  52.595  1.00  0.00     0.031 A 
HETATM   11  C16 UNL     1      23.784   1.458  53.019  1.00  0.00     0.217 A 
HETATM   12  O4  UNL     1      24.882   2.040  52.737  1.00  0.00    -0.284 OA
ENDROOT
BRANCH   1  13
HETATM   13  O1  UNL     1      24.913  -0.369  54.007  1.00  0.00    -0.343 OA
BRANCH  13  14
HETATM   14  C5  UNL     1      25.660  -1.060  53.049  1.00  0.00     0.203 C 
BRANCH  14  15
HETATM   15  C4  UNL     1      27.097  -0.697  53.289  1.00  0.00    -0.000 C 
HETATM   16  C3  UNL     1      28.019   0.279  53.322  1.00  0.00    -0.003 C 
BRANCH  16  17
HETATM   17  C2  UNL     1      29.464   0.244  53.629  1.00  0.00    -0.010 C 
HETATM   18  C1  UNL     1      29.765  -1.030  53.606  1.00  0.00     0.011 C 
ENDBRANCH  16  17
ENDBRANCH  14  15
ENDBRANCH  13  14
ENDBRANCH   1  13
BRANCH   2  19
HETATM   19  C8  UNL     1      22.296  -1.633  54.615  1.00  0.00     0.210 C 
BRANCH  19  20
HETATM   20  O2  UNL     1      23.018  -1.743  55.774  1.00  0.00    -0.396 OA
HETATM   21  H10 UNL     1      23.162  -2.656  56.099  1.00  0.00     0.209 HD
ENDBRANCH  19  20
ENDBRANCH   2  19
TORSDOF 6
ENDMDL
MODEL 9
REMARK VINA RESULT:      -6.8      2.124      4.603
REMARK  6 active torsions:
REMARK  status: ('A' for Active; 'I' for Inactive)
REMARK    1  A    between atoms: C2_2  and  C3_3 
REMARK    2  A    between atoms: C4_4  and  C5_5 
REMARK    3  A    between atoms: C5_5  and  O1_6 
REMARK    4  A    between atoms: O1_6  and  C6_7 
REMARK    5  A    between atoms: C7_8  and  C8_9 
REMARK    6  A    between atoms: C8_9  and  O2_10 
ROOT
HETATM    1  C6  UNL     1      23.526   0.775  53.162  1.00  0.00     0.132 A 
HETATM    2  C7  UNL     1      23.791  -0.253  53.948  1.00  0.00     0.053 A 
HETATM    3  C9  UNL     1      25.138  -0.503  54.421  1.00  0.00     0.194 A 
HETATM    4  O3  UNL     1      25.353  -1.485  55.166  1.00  0.00    -0.287 OA
HETATM    5  C10 UNL     1      26.258   0.359  54.058  1.00  0.00     0.029 A 
HETATM    6  C11 UNL     1      27.536   0.120  54.509  1.00  0.00     0.016 A 
HETATM    7  C12 UNL     1      28.589   0.954  54.151  1.00  0.00     0.001 A 
HETATM    8  C13 UNL     1      28.346   2.037  53.330  1.00  0.00     0.001 A 
HETATM    9  C14 UNL     1      27.059   2.259  52.889  1.00  0.00     0.016 A 
HETATM   10  C15 UNL     1      25.995   1.451  53.227  1.00  0.00     0.031 A 
HETATM   11  C16 UNL     1      24.634   1.667  52.772  1.00  0.00     0.217 A 
HETATM   12  O4  UNL     1      24.519   2.690  52.023  1.00  0.00    -0.284 OA
ENDROOT
BRANCH   1  13
HETATM   13  O1  UNL     1      22.325   1.185  52.606  1.00  0.00    -0.343 OA
BRANCH  13  14
HETATM   14  C5  UNL     1      21.663   0.402  51.657  1.00  0.00     0.203 C 
BRANCH  14  15
HETATM   15  C4  UNL     1      21.879   1.070  50.330  1.00  0.00    -0.000 C 
HETATM   16  C3  UNL     1      21.607   1.072  49.015  1.00  0.00    -0.003 C 
BRANCH  16  17
HETATM   17  C2  UNL     1      22.046   1.974  47.930  1.00  0.00    -0.010 C 
HETATM   18  C1  UNL     1      22.943   2.741  48.496  1.00  0.00     0.011 C 
ENDBRANCH  16  17
ENDBRANCH  14  15
ENDBRANCH  13  14
ENDBRANCH   1  13
BRANCH   2  19
HETATM   19  C8  UNL     1      22.711  -1.177  54.363  1.00  0.00     0.210 C 
BRANCH  19  20
HETATM   20  O2  UNL     1      22.704  -1.449  55.706  1.00  0.00    -0.396 OA
HETATM   21  H10 UNL     1      21.862  -1.268  56.171  1.00  0.00     0.209 HD
ENDBRANCH  19  20
ENDBRANCH   2  19
TORSDOF 6
ENDMDL
