MODEL 1
REMARK VINA RESULT:      -9.7      0.000      0.000
REMARK  0 active torsions:
REMARK  status: ('A' for Active; 'I' for Inactive)
ROOT
HETATM    1  C1  UNL     1      21.423   0.691  49.066  1.00  0.00     0.049 C 
HETATM    2  C2  UNL     1      21.419   1.753  49.977  1.00  0.00    -0.048 C 
HETATM    3  C3  UNL     1      21.252   2.159  51.226  1.00  0.00     0.023 C 
HETATM    4  C4  UNL     1      20.600   3.309  51.935  1.00  0.00     0.161 C 
HETATM    5  O1  UNL     1      19.505   3.717  52.253  1.00  0.00    -0.292 OA
HETATM    6  C5  UNL     1      21.831   4.104  52.291  1.00  0.00     0.093 C 
HETATM    7  C6  UNL     1      23.004   3.975  51.407  1.00  0.00     0.023 C 
HETATM    8  C7  UNL     1      22.667   4.041  49.968  1.00  0.00    -0.020 C 
HETATM    9  C8  UNL     1      21.862   3.106  49.312  1.00  0.00     0.004 C 
HETATM   10  C9  UNL     1      24.024   2.883  51.825  1.00  0.00     0.024 C 
HETATM   11  C10 UNL     1      24.483   3.421  53.145  1.00  0.00     0.016 C 
HETATM   12  C11 UNL     1      23.373   1.566  52.011  1.00  0.00    -0.035 C 
HETATM   13  C12 UNL     1      22.160   1.006  51.613  1.00  0.00    -0.030 C 
HETATM   14  C13 UNL     1      21.116   0.157  51.297  1.00  0.00     0.040 C 
HETATM   15  C14 UNL     1      19.690   0.609  51.405  1.00  0.00     0.017 C 
HETATM   16  C15 UNL     1      21.133  -0.447  52.778  1.00  0.00     0.177 C 
HETATM   17  O2  UNL     1      22.209  -1.212  53.045  1.00  0.00    -0.386 OA
HETATM   18  C16 UNL     1      22.919  -0.864  54.205  1.00  0.00     0.207 C 
HETATM   19  C17 UNL     1      24.219  -0.233  53.748  1.00  0.00    -0.024 A 
HETATM   20  C18 UNL     1      25.332  -0.747  54.314  1.00  0.00     0.010 A 
HETATM   21  C19 UNL     1      26.528  -0.218  53.880  1.00  0.00     0.001 A 
HETATM   22  C20 UNL     1      26.605   0.795  52.909  1.00  0.00     0.001 A 
HETATM   23  C21 UNL     1      25.423   1.312  52.337  1.00  0.00     0.012 A 
HETATM   24  C22 UNL     1      24.259   0.766  52.792  1.00  0.00    -0.021 A 
ENDROOT
TORSDOF 0
ENDMDL
MODEL 2
REMARK VINA RESULT:      -9.4      1.301      1.742
REMARK  0 active torsions:
REMARK  status: ('A' for Active; 'I' for Inactive)
ROOT
HETATM    1  C1  UNL     1      21.530   0.937  48.683  1.00  0.00     0.049 C 
HETATM    2  C2  UNL     1      21.892   2.044  49.458  1.00  0.00    -0.048 C 
HETATM    3  C3  UNL     1      21.688   2.764  50.550  1.00  0.00     0.023 C 
HETATM    4  C4  UNL     1      21.624   4.217  50.917  1.00  0.00     0.161 C 
HETATM    5  O1  UNL     1      20.890   5.176  50.830  1.00  0.00    -0.292 OA
HETATM    6  C5  UNL     1      22.967   4.357  51.589  1.00  0.00     0.093 C 
HETATM    7  C6  UNL     1      24.047   3.456  51.147  1.00  0.00     0.023 C 
HETATM    8  C7  UNL     1      24.146   3.334  49.676  1.00  0.00    -0.020 C 
HETATM    9  C8  UNL     1      23.141   2.795  48.869  1.00  0.00     0.004 C 
HETATM   10  C9  UNL     1      24.178   2.139  51.957  1.00  0.00     0.024 C 
HETATM   11  C10 UNL     1      24.533   2.677  53.308  1.00  0.00     0.016 C 
HETATM   12  C11 UNL     1      22.893   1.406  52.024  1.00  0.00    -0.035 C 
HETATM   13  C12 UNL     1      21.702   1.444  51.298  1.00  0.00    -0.030 C 
HETATM   14  C13 UNL     1      20.472   1.177  50.728  1.00  0.00     0.040 C 
HETATM   15  C14 UNL     1      19.544   2.285  50.332  1.00  0.00     0.017 C 
HETATM   16  C15 UNL     1      19.813   1.017  52.177  1.00  0.00     0.177 C 
HETATM   17  O2  UNL     1      20.202  -0.090  52.837  1.00  0.00    -0.386 OA
HETATM   18  C16 UNL     1      20.694   0.127  54.133  1.00  0.00     0.207 C 
HETATM   19  C17 UNL     1      22.191  -0.099  54.076  1.00  0.00    -0.024 A 
HETATM   20  C18 UNL     1      22.677  -0.945  55.010  1.00  0.00     0.010 A 
HETATM   21  C19 UNL     1      24.030  -1.198  54.948  1.00  0.00     0.001 A 
HETATM   22  C20 UNL     1      24.869  -0.623  53.978  1.00  0.00     0.001 A 
HETATM   23  C21 UNL     1      24.331   0.257  53.016  1.00  0.00     0.012 A 
HETATM   24  C22 UNL     1      22.989   0.486  53.109  1.00  0.00    -0.021 A 
ENDROOT
TORSDOF 0
ENDMDL
MODEL 3
REMARK VINA RESULT:      -8.9      1.809      3.827
REMARK  0 active torsions:
REMARK  status: ('A' for Active; 'I' for Inactive)
ROOT
HETATM    1  C1  UNL     1      23.334   5.035  52.152  1.00  0.00     0.049 C 
HETATM    2  C2  UNL     1      22.812   4.102  51.249  1.00  0.00    -0.048 C 
HETATM    3  C3  UNL     1      22.992   2.987  50.558  1.00  0.00     0.023 C 
HETATM    4  C4  UNL     1      22.696   2.487  49.175  1.00  0.00     0.161 C 
HETATM    5  O1  UNL     1      23.091   2.588  48.035  1.00  0.00    -0.292 OA
HETATM    6  C5  UNL     1      21.516   1.601  49.485  1.00  0.00     0.093 C 
HETATM    7  C6  UNL     1      20.683   1.958  50.648  1.00  0.00     0.023 C 
HETATM    8  C7  UNL     1      20.359   3.400  50.719  1.00  0.00    -0.020 C 
HETATM    9  C8  UNL     1      21.314   4.406  50.884  1.00  0.00     0.004 C 
HETATM   10  C9  UNL     1      21.089   1.279  51.983  1.00  0.00     0.024 C 
HETATM   11  C10 UNL     1      20.843  -0.160  51.649  1.00  0.00     0.016 C 
HETATM   12  C11 UNL     1      22.522   1.491  52.292  1.00  0.00    -0.035 C 
HETATM   13  C12 UNL     1      23.498   2.387  51.857  1.00  0.00    -0.030 C 
HETATM   14  C13 UNL     1      24.628   3.168  51.707  1.00  0.00     0.040 C 
HETATM   15  C14 UNL     1      25.106   3.587  50.350  1.00  0.00     0.017 C 
HETATM   16  C15 UNL     1      25.556   1.865  51.733  1.00  0.00     0.177 C 
HETATM   17  O2  UNL     1      25.632   1.270  52.938  1.00  0.00    -0.386 OA
HETATM   18  C16 UNL     1      25.341  -0.103  52.949  1.00  0.00     0.207 C 
HETATM   19  C17 UNL     1      23.990  -0.258  53.617  1.00  0.00    -0.024 A 
HETATM   20  C18 UNL     1      23.949  -1.165  54.616  1.00  0.00     0.010 A 
HETATM   21  C19 UNL     1      22.739  -1.290  55.266  1.00  0.00     0.001 A 
HETATM   22  C20 UNL     1      21.608  -0.529  54.924  1.00  0.00     0.001 A 
HETATM   23  C21 UNL     1      21.684   0.410  53.873  1.00  0.00     0.012 A 
HETATM   24  C22 UNL     1      22.895   0.505  53.253  1.00  0.00    -0.021 A 
ENDROOT
TORSDOF 0
ENDMDL
MODEL 4
REMARK VINA RESULT:      -7.9     10.286     12.548
REMARK  0 active torsions:
REMARK  status: ('A' for Active; 'I' for Inactive)
ROOT
HETATM    1  C1  UNL     1      33.201   5.245  44.310  1.00  0.00     0.049 C 
HETATM    2  C2  UNL     1      33.553   5.823  45.534  1.00  0.00    -0.048 C 
HETATM    3  C3  UNL     1      33.470   6.864  46.348  1.00  0.00     0.023 C 
HETATM    4  C4  UNL     1      34.389   7.639  47.245  1.00  0.00     0.161 C 
HETATM    5  O1  UNL     1      35.273   8.464  47.196  1.00  0.00    -0.292 OA
HETATM    6  C5  UNL     1      33.938   7.098  48.579  1.00  0.00     0.093 C 
HETATM    7  C6  UNL     1      33.386   5.732  48.609  1.00  0.00     0.023 C 
HETATM    8  C7  UNL     1      34.181   4.759  47.829  1.00  0.00    -0.020 C 
HETATM    9  C8  UNL     1      34.364   4.833  46.445  1.00  0.00     0.004 C 
HETATM   10  C9  UNL     1      31.844   5.642  48.454  1.00  0.00     0.024 C 
HETATM   11  C10 UNL     1      31.398   6.360  49.690  1.00  0.00     0.016 C 
HETATM   12  C11 UNL     1      31.371   6.361  47.249  1.00  0.00    -0.035 C 
HETATM   13  C12 UNL     1      31.976   6.822  46.081  1.00  0.00    -0.030 C 
HETATM   14  C13 UNL     1      32.252   7.295  44.812  1.00  0.00     0.040 C 
HETATM   15  C14 UNL     1      33.464   8.136  44.544  1.00  0.00     0.017 C 
HETATM   16  C15 UNL     1      31.312   8.565  45.059  1.00  0.00     0.177 C 
HETATM   17  O2  UNL     1      29.998   8.274  45.106  1.00  0.00    -0.386 OA
HETATM   18  C16 UNL     1      29.319   8.747  46.240  1.00  0.00     0.207 C 
HETATM   19  C17 UNL     1      29.013   7.538  47.100  1.00  0.00    -0.024 A 
HETATM   20  C18 UNL     1      27.725   7.429  47.493  1.00  0.00     0.010 A 
HETATM   21  C19 UNL     1      27.416   6.312  48.240  1.00  0.00     0.001 A 
HETATM   22  C20 UNL     1      28.368   5.337  48.583  1.00  0.00     0.001 A 
HETATM   23  C21 UNL     1      29.706   5.482  48.158  1.00  0.00     0.012 A 
HETATM   24  C22 UNL     1      29.975   6.598  47.422  1.00  0.00    -0.021 A 
ENDROOT
TORSDOF 0
ENDMDL
MODEL 5
REMARK VINA RESULT:      -7.8     11.458     13.853
REMARK  0 active torsions:
REMARK  status: ('A' for Active; 'I' for Inactive)
ROOT
HETATM    1  C1  UNL     1      35.417   8.101  48.216  1.00  0.00     0.049 C 
HETATM    2  C2  UNL     1      34.561   7.003  48.353  1.00  0.00    -0.048 C 
HETATM    3  C3  UNL     1      33.355   6.490  48.166  1.00  0.00     0.023 C 
HETATM    4  C4  UNL     1      32.388   5.637  48.932  1.00  0.00     0.161 C 
HETATM    5  O1  UNL     1      31.599   5.702  49.849  1.00  0.00    -0.292 OA
HETATM    6  C5  UNL     1      32.590   4.330  48.208  1.00  0.00     0.093 C 
HETATM    7  C6  UNL     1      33.909   4.089  47.594  1.00  0.00     0.023 C 
HETATM    8  C7  UNL     1      35.042   4.444  48.475  1.00  0.00    -0.020 C 
HETATM    9  C8  UNL     1      35.304   5.741  48.924  1.00  0.00     0.004 C 
HETATM   10  C9  UNL     1      34.032   4.521  46.108  1.00  0.00     0.024 C 
HETATM   11  C10 UNL     1      33.037   3.603  45.468  1.00  0.00     0.016 C 
HETATM   12  C11 UNL     1      33.623   5.931  45.911  1.00  0.00    -0.035 C 
HETATM   13  C12 UNL     1      33.458   7.031  46.751  1.00  0.00    -0.030 C 
HETATM   14  C13 UNL     1      33.305   8.295  47.289  1.00  0.00     0.040 C 
HETATM   15  C14 UNL     1      32.555   8.507  48.569  1.00  0.00     0.017 C 
HETATM   16  C15 UNL     1      32.011   8.546  46.382  1.00  0.00     0.177 C 
HETATM   17  O2  UNL     1      32.281   8.693  45.071  1.00  0.00    -0.386 OA
HETATM   18  C16 UNL     1      31.549   7.861  44.210  1.00  0.00     0.207 C 
HETATM   19  C17 UNL     1      32.514   6.818  43.686  1.00  0.00    -0.024 A 
HETATM   20  C18 UNL     1      32.524   6.674  42.343  1.00  0.00     0.010 A 
HETATM   21  C19 UNL     1      33.427   5.761  41.842  1.00  0.00     0.001 A 
HETATM   22  C20 UNL     1      34.292   5.016  42.662  1.00  0.00     0.001 A 
HETATM   23  C21 UNL     1      34.256   5.189  44.062  1.00  0.00     0.012 A 
HETATM   24  C22 UNL     1      33.350   6.099  44.522  1.00  0.00    -0.021 A 
ENDROOT
TORSDOF 0
ENDMDL
MODEL 6
REMARK VINA RESULT:      -7.8      4.531      6.704
REMARK  0 active torsions:
REMARK  status: ('A' for Active; 'I' for Inactive)
ROOT
HETATM    1  C1  UNL     1      22.926   3.592  48.356  1.00  0.00     0.049 C 
HETATM    2  C2  UNL     1      23.117   4.506  49.397  1.00  0.00    -0.048 C 
HETATM    3  C3  UNL     1      23.917   4.984  50.339  1.00  0.00     0.023 C 
HETATM    4  C4  UNL     1      23.798   5.427  51.766  1.00  0.00     0.161 C 
HETATM    5  O1  UNL     1      23.685   4.975  52.884  1.00  0.00    -0.292 OA
HETATM    6  C5  UNL     1      23.848   6.921  51.562  1.00  0.00     0.093 C 
HETATM    7  C6  UNL     1      23.353   7.449  50.278  1.00  0.00     0.023 C 
HETATM    8  C7  UNL     1      22.070   6.849  49.850  1.00  0.00    -0.020 C 
HETATM    9  C8  UNL     1      21.906   5.496  49.546  1.00  0.00     0.004 C 
HETATM   10  C9  UNL     1      24.432   7.621  49.176  1.00  0.00     0.024 C 
HETATM   11  C10 UNL     1      25.311   8.656  49.807  1.00  0.00     0.016 C 
HETATM   12  C11 UNL     1      25.196   6.371  48.957  1.00  0.00    -0.035 C 
HETATM   13  C12 UNL     1      24.987   5.027  49.263  1.00  0.00    -0.030 C 
HETATM   14  C13 UNL     1      25.025   3.647  49.331  1.00  0.00     0.040 C 
HETATM   15  C14 UNL     1      24.666   2.924  50.594  1.00  0.00     0.017 C 
HETATM   16  C15 UNL     1      26.584   3.688  49.688  1.00  0.00     0.177 C 
HETATM   17  O2  UNL     1      27.371   4.064  48.663  1.00  0.00    -0.386 OA
HETATM   18  C16 UNL     1      28.254   5.119  48.940  1.00  0.00     0.207 C 
HETATM   19  C17 UNL     1      27.727   6.335  48.207  1.00  0.00    -0.024 A 
HETATM   20  C18 UNL     1      28.635   6.978  47.441  1.00  0.00     0.010 A 
HETATM   21  C19 UNL     1      28.165   8.061  46.731  1.00  0.00     0.001 A 
HETATM   22  C20 UNL     1      26.826   8.486  46.786  1.00  0.00     0.001 A 
HETATM   23  C21 UNL     1      25.902   7.793  47.596  1.00  0.00     0.012 A 
HETATM   24  C22 UNL     1      26.403   6.728  48.286  1.00  0.00    -0.021 A 
ENDROOT
TORSDOF 0
ENDMDL
MODEL 7
REMARK VINA RESULT:      -7.6     11.557     13.450
REMARK  0 active torsions:
REMARK  status: ('A' for Active; 'I' for Inactive)
ROOT
HETATM    1  C1  UNL     1      31.802   8.926  47.991  1.00  0.00     0.049 C 
HETATM    2  C2  UNL     1      32.481   8.656  46.798  1.00  0.00    -0.048 C 
HETATM    3  C3  UNL     1      33.573   8.195  46.208  1.00  0.00     0.023 C 
HETATM    4  C4  UNL     1      34.449   8.580  45.053  1.00  0.00     0.161 C 
HETATM    5  O1  UNL     1      35.306   9.380  44.750  1.00  0.00    -0.292 OA
HETATM    6  C5  UNL     1      33.987   7.556  44.046  1.00  0.00     0.093 C 
HETATM    7  C6  UNL     1      32.604   7.061  44.165  1.00  0.00     0.023 C 
HETATM    8  C7  UNL     1      31.612   8.134  44.397  1.00  0.00    -0.020 C 
HETATM    9  C8  UNL     1      31.595   8.946  45.533  1.00  0.00     0.004 C 
HETATM   10  C9  UNL     1      32.437   5.774  45.017  1.00  0.00     0.024 C 
HETATM   11  C10 UNL     1      33.222   4.796  44.200  1.00  0.00     0.016 C 
HETATM   12  C11 UNL     1      33.047   5.921  46.358  1.00  0.00    -0.035 C 
HETATM   13  C12 UNL     1      33.448   7.004  47.140  1.00  0.00    -0.030 C 
HETATM   14  C13 UNL     1      33.840   7.843  48.166  1.00  0.00     0.040 C 
HETATM   15  C14 UNL     1      34.711   9.034  47.903  1.00  0.00     0.017 C 
HETATM   16  C15 UNL     1      35.083   6.892  48.496  1.00  0.00     0.177 C 
HETATM   17  O2  UNL     1      34.740   5.712  49.047  1.00  0.00    -0.386 OA
HETATM   18  C16 UNL     1      35.262   4.577  48.408  1.00  0.00     0.207 C 
HETATM   19  C17 UNL     1      34.107   3.906  47.694  1.00  0.00    -0.024 A 
HETATM   20  C18 UNL     1      33.971   2.587  47.944  1.00  0.00     0.010 A 
HETATM   21  C19 UNL     1      32.899   1.966  47.338  1.00  0.00     0.001 A 
HETATM   22  C20 UNL     1      31.993   2.649  46.509  1.00  0.00     0.001 A 
HETATM   23  C21 UNL     1      32.164   4.029  46.267  1.00  0.00     0.012 A 
HETATM   24  C22 UNL     1      33.235   4.608  46.881  1.00  0.00    -0.021 A 
ENDROOT
TORSDOF 0
ENDMDL
MODEL 8
REMARK VINA RESULT:      -7.5      2.766      4.897
REMARK  0 active torsions:
REMARK  status: ('A' for Active; 'I' for Inactive)
ROOT
HETATM    1  C1  UNL     1      22.899   7.185  50.779  1.00  0.00     0.049 C 
HETATM    2  C2  UNL     1      22.400   6.173  49.953  1.00  0.00    -0.048 C 
HETATM    3  C3  UNL     1      22.645   5.249  49.036  1.00  0.00     0.023 C 
HETATM    4  C4  UNL     1      22.003   4.747  47.777  1.00  0.00     0.161 C 
HETATM    5  O1  UNL     1      21.848   5.052  46.615  1.00  0.00    -0.292 OA
HETATM    6  C5  UNL     1      21.414   3.462  48.301  1.00  0.00     0.093 C 
HETATM    7  C6  UNL     1      21.051   3.411  49.729  1.00  0.00     0.023 C 
HETATM    8  C7  UNL     1      20.325   4.613  50.195  1.00  0.00    -0.020 C 
HETATM    9  C8  UNL     1      20.874   5.898  50.209  1.00  0.00     0.004 C 
HETATM   10  C9  UNL     1      22.160   2.870  50.671  1.00  0.00     0.024 C 
HETATM   11  C10 UNL     1      22.293   1.467  50.166  1.00  0.00     0.016 C 
HETATM   12  C11 UNL     1      23.437   3.598  50.490  1.00  0.00    -0.035 C 
HETATM   13  C12 UNL     1      23.798   4.821  49.925  1.00  0.00    -0.030 C 
HETATM   14  C13 UNL     1      24.444   5.982  49.545  1.00  0.00     0.040 C 
HETATM   15  C14 UNL     1      24.167   6.623  48.218  1.00  0.00     0.017 C 
HETATM   16  C15 UNL     1      25.678   5.134  48.981  1.00  0.00     0.177 C 
HETATM   17  O2  UNL     1      26.424   4.551  49.938  1.00  0.00    -0.386 OA
HETATM   18  C16 UNL     1      26.636   3.173  49.777  1.00  0.00     0.207 C 
HETATM   19  C17 UNL     1      25.802   2.477  50.834  1.00  0.00    -0.024 A 
HETATM   20  C18 UNL     1      26.469   1.573  51.582  1.00  0.00     0.010 A 
HETATM   21  C19 UNL     1      25.740   0.960  52.578  1.00  0.00     0.001 A 
HETATM   22  C20 UNL     1      24.385   1.246  52.817  1.00  0.00     0.001 A 
HETATM   23  C21 UNL     1      23.716   2.196  52.016  1.00  0.00     0.012 A 
HETATM   24  C22 UNL     1      24.468   2.781  51.040  1.00  0.00    -0.021 A 
ENDROOT
TORSDOF 0
ENDMDL
MODEL 9
REMARK VINA RESULT:      -7.4     11.137     13.015
REMARK  0 active torsions:
REMARK  status: ('A' for Active; 'I' for Inactive)
ROOT
HETATM    1  C1  UNL     1      33.464  10.080  47.082  1.00  0.00     0.049 C 
HETATM    2  C2  UNL     1      32.305   9.297  47.064  1.00  0.00    -0.048 C 
HETATM    3  C3  UNL     1      31.530   8.456  46.397  1.00  0.00     0.023 C 
HETATM    4  C4  UNL     1      30.061   8.248  46.175  1.00  0.00     0.161 C 
HETATM    5  O1  UNL     1      29.131   8.711  45.554  1.00  0.00    -0.292 OA
HETATM    6  C5  UNL     1      29.844   7.063  47.082  1.00  0.00     0.093 C 
HETATM    7  C6  UNL     1      30.736   6.925  48.248  1.00  0.00     0.023 C 
HETATM    8  C7  UNL     1      30.939   8.191  48.987  1.00  0.00    -0.020 C 
HETATM    9  C8  UNL     1      31.552   9.322  48.443  1.00  0.00     0.004 C 
HETATM   10  C9  UNL     1      32.001   6.058  48.010  1.00  0.00     0.024 C 
HETATM   11  C10 UNL     1      31.377   4.726  47.731  1.00  0.00     0.016 C 
HETATM   12  C11 UNL     1      32.767   6.518  46.829  1.00  0.00    -0.035 C 
HETATM   13  C12 UNL     1      32.805   7.695  46.081  1.00  0.00    -0.030 C 
HETATM   14  C13 UNL     1      33.140   8.731  45.230  1.00  0.00     0.040 C 
HETATM   15  C14 UNL     1      32.084   9.565  44.571  1.00  0.00     0.017 C 
HETATM   16  C15 UNL     1      33.237   7.714  43.999  1.00  0.00     0.177 C 
HETATM   17  O2  UNL     1      34.292   6.881  44.057  1.00  0.00    -0.386 OA
HETATM   18  C16 UNL     1      33.989   5.517  43.926  1.00  0.00     0.207 C 
HETATM   19  C17 UNL     1      34.173   4.894  45.295  1.00  0.00    -0.024 A 
HETATM   20  C18 UNL     1      34.949   3.790  45.319  1.00  0.00     0.010 A 
HETATM   21  C19 UNL     1      35.166   3.232  46.561  1.00  0.00     0.001 A 
HETATM   22  C20 UNL     1      34.622   3.767  47.741  1.00  0.00     0.001 A 
HETATM   23  C21 UNL     1      33.814   4.923  47.682  1.00  0.00     0.012 A 
HETATM   24  C22 UNL     1      33.620   5.445  46.437  1.00  0.00    -0.021 A 
ENDROOT
TORSDOF 0
ENDMDL
