MODEL 1
REMARK VINA RESULT:      -7.6      0.000      0.000
REMARK  5 active torsions:
REMARK  status: ('A' for Active; 'I' for Inactive)
REMARK    1  A    between atoms: C11_16  and  C12_17 
REMARK    2  A    between atoms: C13_18  and  N5_19 
REMARK    3  A    between atoms: N5_19  and  C14_20 
REMARK    4  A    between atoms: C14_20  and  C15_21 
REMARK    5  A    between atoms: C15_21  and  C16_23 
ROOT
HETATM    1  C1  UNL     1      24.286   2.898  53.106  1.00  0.00     0.313 A 
HETATM    2  C2  UNL     1      25.146   2.462  52.275  1.00  0.00     0.229 A 
HETATM    3  N1  UNL     1      24.919   3.851  51.866  1.00  0.00     0.029 N 
HETATM    4  N2  UNL     1      23.978   4.297  50.900  1.00  0.00    -0.215 N 
HETATM    5  C3  UNL     1      23.962   5.180  49.803  1.00  0.00     0.083 A 
HETATM    6  C4  UNL     1      22.715   5.500  49.316  1.00  0.00     0.052 A 
HETATM    7  C5  UNL     1      22.701   6.373  48.250  1.00  0.00     0.013 A 
HETATM    8 BR1  UNL     1      21.011   6.879  47.499  1.00  0.00    -0.051 Br
HETATM    9  C6  UNL     1      23.818   6.929  47.662  1.00  0.00     0.021 A 
HETATM   10  C7  UNL     1      25.054   6.587  48.176  1.00  0.00     0.033 A 
HETATM   11  C8  UNL     1      25.091   5.718  49.238  1.00  0.00     0.061 A 
HETATM   12  N3  UNL     1      26.390   5.400  49.714  1.00  0.00    -0.349 N 
HETATM   13  C9  UNL     1      26.774   4.041  49.721  1.00  0.00     0.207 C 
HETATM   14  N4  UNL     1      26.797   2.850  50.119  1.00  0.00    -0.249 NA
HETATM   15  C10 UNL     1      26.061   2.421  51.196  1.00  0.00     0.066 A 
HETATM   16  C11 UNL     1      26.164   1.195  51.636  1.00  0.00     0.107 A 
HETATM   17  H3  UNL     1      25.249   4.855  52.034  1.00  0.00     0.310 HD
HETATM   18  H4  UNL     1      23.130   3.766  51.186  1.00  0.00     0.194 HD
HETATM   19  H8  UNL     1      26.972   6.202  50.021  1.00  0.00     0.167 HD
ENDROOT
BRANCH  16  20
HETATM   20  C12 UNL     1      25.976   0.003  52.409  1.00  0.00     0.004 C 
HETATM   21  C13 UNL     1      26.398  -0.916  53.248  1.00  0.00     0.080 C 
BRANCH  21  22
HETATM   22  N5  UNL     1      27.661  -1.043  53.880  1.00  0.00    -0.392 N 
HETATM   23  H13 UNL     1      28.174  -1.912  53.680  1.00  0.00     0.159 HD
BRANCH  22  24
HETATM   24  C14 UNL     1      28.070   0.081  54.733  1.00  0.00     0.200 C 
BRANCH  24  25
HETATM   25  C15 UNL     1      29.231   0.719  54.056  1.00  0.00     0.172 C 
HETATM   26  O1  UNL     1      30.118   0.160  53.451  1.00  0.00    -0.294 OA
BRANCH  25  27
HETATM   27  C16 UNL     1      29.302   2.199  54.135  1.00  0.00     0.302 C 
HETATM   28  F1  UNL     1      28.063   2.778  53.857  1.00  0.00    -0.247 F 
ENDBRANCH  25  27
ENDBRANCH  24  25
ENDBRANCH  22  24
ENDBRANCH  21  22
ENDBRANCH  16  20
TORSDOF 5
ENDMDL
MODEL 2
REMARK VINA RESULT:      -7.4      6.784      8.203
REMARK  5 active torsions:
REMARK  status: ('A' for Active; 'I' for Inactive)
REMARK    1  A    between atoms: C11_16  and  C12_17 
REMARK    2  A    between atoms: C13_18  and  N5_19 
REMARK    3  A    between atoms: N5_19  and  C14_20 
REMARK    4  A    between atoms: C14_20  and  C15_21 
REMARK    5  A    between atoms: C15_21  and  C16_23 
ROOT
HETATM    1  C1  UNL     1      21.328  -0.116  54.770  1.00  0.00     0.313 A 
HETATM    2  C2  UNL     1      21.258   0.122  53.521  1.00  0.00     0.229 A 
HETATM    3  N1  UNL     1      19.876  -0.165  53.914  1.00  0.00     0.029 N 
HETATM    4  N2  UNL     1      19.237  -1.433  53.869  1.00  0.00    -0.215 N 
HETATM    5  C3  UNL     1      18.007  -1.957  53.428  1.00  0.00     0.083 A 
HETATM    6  C4  UNL     1      17.721  -3.236  53.846  1.00  0.00     0.052 A 
HETATM    7  C5  UNL     1      16.512  -3.742  53.423  1.00  0.00     0.013 A 
HETATM    8 BR1  UNL     1      16.022  -5.519  53.952  1.00  0.00    -0.051 Br
HETATM    9  C6  UNL     1      15.599  -3.070  52.636  1.00  0.00     0.021 A 
HETATM   10  C7  UNL     1      15.917  -1.787  52.234  1.00  0.00     0.033 A 
HETATM   11  C8  UNL     1      17.118  -1.264  52.644  1.00  0.00     0.061 A 
HETATM   12  N3  UNL     1      17.389   0.054  52.191  1.00  0.00    -0.349 N 
HETATM   13  C9  UNL     1      18.561   0.260  51.430  1.00  0.00     0.207 C 
HETATM   14  N4  UNL     1      19.792   0.388  51.217  1.00  0.00    -0.249 NA
HETATM   15  C10 UNL     1      20.723   0.309  52.224  1.00  0.00     0.066 A 
HETATM   16  C11 UNL     1      21.990   0.523  51.987  1.00  0.00     0.107 A 
HETATM   17  H3  UNL     1      18.982   0.291  54.287  1.00  0.00     0.310 HD
HETATM   18  H4  UNL     1      19.965  -2.039  54.301  1.00  0.00     0.194 HD
HETATM   19  H8  UNL     1      16.694   0.778  52.453  1.00  0.00     0.167 HD
ENDROOT
BRANCH  16  20
HETATM   20  C12 UNL     1      23.404   0.674  52.164  1.00  0.00     0.004 C 
HETATM   21  C13 UNL     1      24.528   0.427  52.796  1.00  0.00     0.080 C 
BRANCH  21  22
HETATM   22  N5  UNL     1      24.757  -0.381  53.939  1.00  0.00    -0.392 N 
HETATM   23  H13 UNL     1      24.035  -1.087  54.138  1.00  0.00     0.159 HD
BRANCH  22  24
HETATM   24  C14 UNL     1      25.991  -0.106  54.686  1.00  0.00     0.200 C 
BRANCH  24  25
HETATM   25  C15 UNL     1      27.115  -0.532  53.809  1.00  0.00     0.172 C 
HETATM   26  O1  UNL     1      27.258  -1.612  53.283  1.00  0.00    -0.294 OA
BRANCH  25  27
HETATM   27  C16 UNL     1      28.169   0.482  53.558  1.00  0.00     0.302 C 
HETATM   28  F1  UNL     1      29.420  -0.119  53.411  1.00  0.00    -0.247 F 
ENDBRANCH  25  27
ENDBRANCH  24  25
ENDBRANCH  22  24
ENDBRANCH  21  22
ENDBRANCH  16  20
TORSDOF 5
ENDMDL
MODEL 3
REMARK VINA RESULT:      -7.2      2.707      3.442
REMARK  5 active torsions:
REMARK  status: ('A' for Active; 'I' for Inactive)
REMARK    1  A    between atoms: C11_16  and  C12_17 
REMARK    2  A    between atoms: C13_18  and  N5_19 
REMARK    3  A    between atoms: N5_19  and  C14_20 
REMARK    4  A    between atoms: C14_20  and  C15_21 
REMARK    5  A    between atoms: C15_21  and  C16_23 
ROOT
HETATM    1  C1  UNL     1      23.068   2.047  49.807  1.00  0.00     0.313 A 
HETATM    2  C2  UNL     1      23.197   2.426  51.015  1.00  0.00     0.229 A 
HETATM    3  N1  UNL     1      23.372   3.652  50.230  1.00  0.00     0.029 N 
HETATM    4  N2  UNL     1      24.605   4.181  49.765  1.00  0.00    -0.215 N 
HETATM    5  C3  UNL     1      25.244   5.435  49.728  1.00  0.00     0.083 A 
HETATM    6  C4  UNL     1      26.352   5.514  48.917  1.00  0.00     0.052 A 
HETATM    7  C5  UNL     1      26.969   6.746  48.872  1.00  0.00     0.013 A 
HETATM    8 BR1  UNL     1      28.524   6.956  47.772  1.00  0.00    -0.051 Br
HETATM    9  C6  UNL     1      26.558   7.867  49.564  1.00  0.00     0.021 A 
HETATM   10  C7  UNL     1      25.441   7.754  50.368  1.00  0.00     0.033 A 
HETATM   11  C8  UNL     1      24.812   6.535  50.428  1.00  0.00     0.061 A 
HETATM   12  N3  UNL     1      23.676   6.482  51.277  1.00  0.00    -0.349 N 
HETATM   13  C9  UNL     1      23.686   5.541  52.330  1.00  0.00     0.207 C 
HETATM   14  N4  UNL     1      23.614   4.407  52.867  1.00  0.00    -0.249 NA
HETATM   15  C10 UNL     1      23.393   3.263  52.140  1.00  0.00     0.066 A 
HETATM   16  C11 UNL     1      23.245   2.108  52.732  1.00  0.00     0.107 A 
HETATM   17  H3  UNL     1      22.836   4.466  49.788  1.00  0.00     0.310 HD
HETATM   18  H4  UNL     1      25.056   3.327  49.377  1.00  0.00     0.194 HD
HETATM   19  H8  UNL     1      22.913   7.152  51.062  1.00  0.00     0.167 HD
ENDROOT
BRANCH  16  20
HETATM   20  C12 UNL     1      23.038   0.709  52.958  1.00  0.00     0.004 C 
HETATM   21  C13 UNL     1      23.373  -0.444  53.491  1.00  0.00     0.080 C 
BRANCH  21  22
HETATM   22  N5  UNL     1      24.475  -0.760  54.326  1.00  0.00    -0.392 N 
HETATM   23  H13 UNL     1      24.255  -0.894  55.323  1.00  0.00     0.159 HD
BRANCH  22  24
HETATM   24  C14 UNL     1      25.781  -0.856  53.661  1.00  0.00     0.200 C 
BRANCH  24  25
HETATM   25  C15 UNL     1      26.492   0.419  53.948  1.00  0.00     0.172 C 
HETATM   26  O1  UNL     1      26.785   0.858  55.037  1.00  0.00    -0.294 OA
BRANCH  25  27
HETATM   27  C16 UNL     1      26.878   1.233  52.770  1.00  0.00     0.302 C 
HETATM   28  F1  UNL     1      26.191   0.821  51.627  1.00  0.00    -0.247 F 
ENDBRANCH  25  27
ENDBRANCH  24  25
ENDBRANCH  22  24
ENDBRANCH  21  22
ENDBRANCH  16  20
TORSDOF 5
ENDMDL
MODEL 4
REMARK VINA RESULT:      -7.1      2.149      2.520
REMARK  5 active torsions:
REMARK  status: ('A' for Active; 'I' for Inactive)
REMARK    1  A    between atoms: C11_16  and  C12_17 
REMARK    2  A    between atoms: C13_18  and  N5_19 
REMARK    3  A    between atoms: N5_19  and  C14_20 
REMARK    4  A    between atoms: C14_20  and  C15_21 
REMARK    5  A    between atoms: C15_21  and  C16_23 
ROOT
HETATM    1  C1  UNL     1      22.242   0.966  51.097  1.00  0.00     0.313 A 
HETATM    2  C2  UNL     1      23.083   1.499  51.890  1.00  0.00     0.229 A 
HETATM    3  N1  UNL     1      22.288   2.626  51.393  1.00  0.00     0.029 N 
HETATM    4  N2  UNL     1      22.595   3.437  50.268  1.00  0.00    -0.215 N 
HETATM    5  C3  UNL     1      22.623   4.810  49.960  1.00  0.00     0.083 A 
HETATM    6  C4  UNL     1      22.730   5.118  48.623  1.00  0.00     0.052 A 
HETATM    7  C5  UNL     1      22.745   6.463  48.322  1.00  0.00     0.013 A 
HETATM    8 BR1  UNL     1      22.893   6.993  46.487  1.00  0.00    -0.051 Br
HETATM    9  C6  UNL     1      22.661   7.485  49.246  1.00  0.00     0.021 A 
HETATM   10  C7  UNL     1      22.554   7.142  50.579  1.00  0.00     0.033 A 
HETATM   11  C8  UNL     1      22.538   5.807  50.900  1.00  0.00     0.061 A 
HETATM   12  N3  UNL     1      22.434   5.520  52.287  1.00  0.00    -0.349 N 
HETATM   13  C9  UNL     1      23.459   4.748  52.877  1.00  0.00     0.207 C 
HETATM   14  N4  UNL     1      24.116   3.711  53.143  1.00  0.00    -0.249 NA
HETATM   15  C10 UNL     1      23.777   2.478  52.641  1.00  0.00     0.066 A 
HETATM   16  C11 UNL     1      24.431   1.404  52.996  1.00  0.00     0.107 A 
HETATM   17  H3  UNL     1      21.400   3.193  51.581  1.00  0.00     0.310 HD
HETATM   18  H4  UNL     1      22.846   2.714  49.562  1.00  0.00     0.194 HD
HETATM   19  H8  UNL     1      21.604   5.909  52.772  1.00  0.00     0.167 HD
ENDROOT
BRANCH  16  20
HETATM   20  C12 UNL     1      24.854   0.040  53.108  1.00  0.00     0.004 C 
HETATM   21  C13 UNL     1      25.694  -0.886  53.511  1.00  0.00     0.080 C 
BRANCH  21  22
HETATM   22  N5  UNL     1      26.902  -0.747  54.240  1.00  0.00    -0.392 N 
HETATM   23  H13 UNL     1      26.854  -1.001  55.236  1.00  0.00     0.159 HD
BRANCH  22  24
HETATM   24  C14 UNL     1      28.060  -0.259  53.479  1.00  0.00     0.200 C 
BRANCH  24  25
HETATM   25  C15 UNL     1      28.430   1.054  54.074  1.00  0.00     0.172 C 
HETATM   26  O1  UNL     1      28.964   1.243  55.143  1.00  0.00    -0.294 OA
BRANCH  25  27
HETATM   27  C16 UNL     1      28.105   2.253  53.264  1.00  0.00     0.302 C 
HETATM   28  F1  UNL     1      27.557   1.896  52.032  1.00  0.00    -0.247 F 
ENDBRANCH  25  27
ENDBRANCH  24  25
ENDBRANCH  22  24
ENDBRANCH  21  22
ENDBRANCH  16  20
TORSDOF 5
ENDMDL
MODEL 5
REMARK VINA RESULT:      -6.9      2.807      3.896
REMARK  5 active torsions:
REMARK  status: ('A' for Active; 'I' for Inactive)
REMARK    1  A    between atoms: C11_16  and  C12_17 
REMARK    2  A    between atoms: C13_18  and  N5_19 
REMARK    3  A    between atoms: N5_19  and  C14_20 
REMARK    4  A    between atoms: C14_20  and  C15_21 
REMARK    5  A    between atoms: C15_21  and  C16_23 
ROOT
HETATM    1  C1  UNL     1      26.522   2.910  49.938  1.00  0.00     0.313 A 
HETATM    2  C2  UNL     1      25.577   3.583  50.463  1.00  0.00     0.229 A 
HETATM    3  N1  UNL     1      25.890   4.303  49.225  1.00  0.00     0.029 N 
HETATM    4  N2  UNL     1      26.800   5.385  49.092  1.00  0.00    -0.215 N 
HETATM    5  C3  UNL     1      26.818   6.651  48.477  1.00  0.00     0.083 A 
HETATM    6  C4  UNL     1      28.052   7.253  48.390  1.00  0.00     0.052 A 
HETATM    7  C5  UNL     1      28.069   8.487  47.778  1.00  0.00     0.013 A 
HETATM    8 BR1  UNL     1      29.742   9.408  47.610  1.00  0.00    -0.051 Br
HETATM    9  C6  UNL     1      26.965   9.135  47.262  1.00  0.00     0.021 A 
HETATM   10  C7  UNL     1      25.741   8.503  47.364  1.00  0.00     0.033 A 
HETATM   11  C8  UNL     1      25.702   7.273  47.972  1.00  0.00     0.061 A 
HETATM   12  N3  UNL     1      24.415   6.680  48.054  1.00  0.00    -0.349 N 
HETATM   13  C9  UNL     1      23.922   6.351  49.336  1.00  0.00     0.207 C 
HETATM   14  N4  UNL     1      23.827   5.695  50.403  1.00  0.00    -0.249 NA
HETATM   15  C10 UNL     1      24.594   4.583  50.653  1.00  0.00     0.066 A 
HETATM   16  C11 UNL     1      24.419   3.875  51.737  1.00  0.00     0.107 A 
HETATM   17  H3  UNL     1      25.655   4.349  48.182  1.00  0.00     0.310 HD
HETATM   18  H4  UNL     1      27.618   5.026  49.625  1.00  0.00     0.194 HD
HETATM   19  H8  UNL     1      23.922   6.535  47.153  1.00  0.00     0.167 HD
ENDROOT
BRANCH  16  20
HETATM   20  C12 UNL     1      24.558   2.864  52.742  1.00  0.00     0.004 C 
HETATM   21  C13 UNL     1      25.254   2.213  53.646  1.00  0.00     0.080 C 
BRANCH  21  22
HETATM   22  N5  UNL     1      26.603   2.395  54.044  1.00  0.00    -0.392 N 
HETATM   23  H13 UNL     1      26.755   3.065  54.810  1.00  0.00     0.159 HD
BRANCH  22  24
HETATM   24  C14 UNL     1      27.603   1.607  53.312  1.00  0.00     0.200 C 
BRANCH  24  25
HETATM   25  C15 UNL     1      27.437   0.199  53.764  1.00  0.00     0.172 C 
HETATM   26  O1  UNL     1      27.576  -0.226  54.889  1.00  0.00    -0.294 OA
BRANCH  25  27
HETATM   27  C16 UNL     1      27.062  -0.784  52.718  1.00  0.00     0.302 C 
HETATM   28  F1  UNL     1      26.778  -0.148  51.508  1.00  0.00    -0.247 F 
ENDBRANCH  25  27
ENDBRANCH  24  25
ENDBRANCH  22  24
ENDBRANCH  21  22
ENDBRANCH  16  20
TORSDOF 5
ENDMDL
MODEL 6
REMARK VINA RESULT:      -6.9      4.058      7.607
REMARK  5 active torsions:
REMARK  status: ('A' for Active; 'I' for Inactive)
REMARK    1  A    between atoms: C11_16  and  C12_17 
REMARK    2  A    between atoms: C13_18  and  N5_19 
REMARK    3  A    between atoms: N5_19  and  C14_20 
REMARK    4  A    between atoms: C14_20  and  C15_21 
REMARK    5  A    between atoms: C15_21  and  C16_23 
ROOT
HETATM    1  C1  UNL     1      26.613   4.544  49.231  1.00  0.00     0.313 A 
HETATM    2  C2  UNL     1      25.434   4.654  49.698  1.00  0.00     0.229 A 
HETATM    3  N1  UNL     1      26.178   3.954  50.750  1.00  0.00     0.029 N 
HETATM    4  N2  UNL     1      26.281   2.546  50.908  1.00  0.00    -0.215 N 
HETATM    5  C3  UNL     1      26.176   1.613  51.957  1.00  0.00     0.083 A 
HETATM    6  C4  UNL     1      26.629   0.345  51.673  1.00  0.00     0.052 A 
HETATM    7  C5  UNL     1      26.537  -0.564  52.705  1.00  0.00     0.013 A 
HETATM    8 BR1  UNL     1      27.142  -2.358  52.407  1.00  0.00    -0.051 Br
HETATM    9  C6  UNL     1      26.037  -0.292  53.962  1.00  0.00     0.021 A 
HETATM   10  C7  UNL     1      25.590   0.991  54.214  1.00  0.00     0.033 A 
HETATM   11  C8  UNL     1      25.673   1.912  53.199  1.00  0.00     0.061 A 
HETATM   12  N3  UNL     1      25.191   3.208  53.519  1.00  0.00    -0.349 N 
HETATM   13  C9  UNL     1      24.147   3.735  52.727  1.00  0.00     0.207 C 
HETATM   14  N4  UNL     1      23.614   4.249  51.711  1.00  0.00    -0.249 NA
HETATM   15  C10 UNL     1      24.333   4.557  50.582  1.00  0.00     0.066 A 
HETATM   16  C11 UNL     1      23.768   5.162  49.570  1.00  0.00     0.107 A 
HETATM   17  H3  UNL     1      26.786   4.113  51.616  1.00  0.00     0.310 HD
HETATM   18  H4  UNL     1      26.489   2.249  49.932  1.00  0.00     0.194 HD
HETATM   19  H8  UNL     1      25.644   3.677  54.326  1.00  0.00     0.167 HD
ENDROOT
BRANCH  16  20
HETATM   20  C12 UNL     1      23.562   5.786  48.298  1.00  0.00     0.004 C 
HETATM   21  C13 UNL     1      23.786   6.739  47.421  1.00  0.00     0.080 C 
BRANCH  21  22
HETATM   22  N5  UNL     1      24.632   7.872  47.524  1.00  0.00    -0.392 N 
HETATM   23  H13 UNL     1      25.386   7.930  46.826  1.00  0.00     0.159 HD
BRANCH  22  24
HETATM   24  C14 UNL     1      24.320   8.812  48.609  1.00  0.00     0.200 C 
BRANCH  24  25
HETATM   25  C15 UNL     1      25.627   9.272  49.152  1.00  0.00     0.172 C 
HETATM   26  O1  UNL     1      26.003  10.417  49.268  1.00  0.00    -0.294 OA
BRANCH  25  27
HETATM   27  C16 UNL     1      26.562   8.210  49.596  1.00  0.00     0.302 C 
HETATM   28  F1  UNL     1      26.093   7.577  50.748  1.00  0.00    -0.247 F 
ENDBRANCH  25  27
ENDBRANCH  24  25
ENDBRANCH  22  24
ENDBRANCH  21  22
ENDBRANCH  16  20
TORSDOF 5
ENDMDL
MODEL 7
REMARK VINA RESULT:      -6.8      2.646      3.128
REMARK  5 active torsions:
REMARK  status: ('A' for Active; 'I' for Inactive)
REMARK    1  A    between atoms: C11_16  and  C12_17 
REMARK    2  A    between atoms: C13_18  and  N5_19 
REMARK    3  A    between atoms: N5_19  and  C14_20 
REMARK    4  A    between atoms: C14_20  and  C15_21 
REMARK    5  A    between atoms: C15_21  and  C16_23 
ROOT
HETATM    1  C1  UNL     1      21.494   0.260  51.779  1.00  0.00     0.313 A 
HETATM    2  C2  UNL     1      22.449   0.985  52.206  1.00  0.00     0.229 A 
HETATM    3  N1  UNL     1      21.624   1.902  51.416  1.00  0.00     0.029 N 
HETATM    4  N2  UNL     1      21.795   2.210  50.039  1.00  0.00    -0.215 N 
HETATM    5  C3  UNL     1      21.816   3.363  49.233  1.00  0.00     0.083 A 
HETATM    6  C4  UNL     1      21.747   3.142  47.877  1.00  0.00     0.052 A 
HETATM    7  C5  UNL     1      21.756   4.273  47.089  1.00  0.00     0.013 A 
HETATM    8 BR1  UNL     1      21.665   4.069  45.185  1.00  0.00    -0.051 Br
HETATM    9  C6  UNL     1      21.826   5.569  47.559  1.00  0.00     0.021 A 
HETATM   10  C7  UNL     1      21.894   5.756  48.926  1.00  0.00     0.033 A 
HETATM   11  C8  UNL     1      21.887   4.642  49.728  1.00  0.00     0.061 A 
HETATM   12  N3  UNL     1      21.967   4.901  51.122  1.00  0.00    -0.349 N 
HETATM   13  C9  UNL     1      23.042   4.329  51.836  1.00  0.00     0.207 C 
HETATM   14  N4  UNL     1      23.702   3.418  52.396  1.00  0.00    -0.249 NA
HETATM   15  C10 UNL     1      23.265   2.117  52.443  1.00  0.00     0.066 A 
HETATM   16  C11 UNL     1      23.934   1.206  53.100  1.00  0.00     0.107 A 
HETATM   17  H3  UNL     1      20.785   2.564  51.477  1.00  0.00     0.310 HD
HETATM   18  H4  UNL     1      21.928   1.259  49.636  1.00  0.00     0.194 HD
HETATM   19  H8  UNL     1      21.222   5.505  51.517  1.00  0.00     0.167 HD
ENDROOT
BRANCH  16  20
HETATM   20  C12 UNL     1      24.332  -0.046  53.670  1.00  0.00     0.004 C 
HETATM   21  C13 UNL     1      25.212  -0.832  54.248  1.00  0.00     0.080 C 
BRANCH  21  22
HETATM   22  N5  UNL     1      26.552  -0.556  54.622  1.00  0.00    -0.392 N 
HETATM   23  H13 UNL     1      26.771  -0.682  55.620  1.00  0.00     0.159 HD
BRANCH  22  24
HETATM   24  C14 UNL     1      27.448  -0.129  53.540  1.00  0.00     0.200 C 
BRANCH  24  25
HETATM   25  C15 UNL     1      28.728   0.264  54.187  1.00  0.00     0.172 C 
HETATM   26  O1  UNL     1      28.869   1.018  55.124  1.00  0.00    -0.294 OA
BRANCH  25  27
HETATM   27  C16 UNL     1      29.960  -0.335  53.618  1.00  0.00     0.302 C 
HETATM   28  F1  UNL     1      29.774  -1.687  53.326  1.00  0.00    -0.247 F 
ENDBRANCH  25  27
ENDBRANCH  24  25
ENDBRANCH  22  24
ENDBRANCH  21  22
ENDBRANCH  16  20
TORSDOF 5
ENDMDL
MODEL 8
REMARK VINA RESULT:      -6.8      3.756      6.993
REMARK  5 active torsions:
REMARK  status: ('A' for Active; 'I' for Inactive)
REMARK    1  A    between atoms: C11_16  and  C12_17 
REMARK    2  A    between atoms: C13_18  and  N5_19 
REMARK    3  A    between atoms: N5_19  and  C14_20 
REMARK    4  A    between atoms: C14_20  and  C15_21 
REMARK    5  A    between atoms: C15_21  and  C16_23 
ROOT
HETATM    1  C1  UNL     1      23.967   5.747  51.834  1.00  0.00     0.313 A 
HETATM    2  C2  UNL     1      23.673   4.975  50.866  1.00  0.00     0.229 A 
HETATM    3  N1  UNL     1      23.714   4.091  52.034  1.00  0.00     0.029 N 
HETATM    4  N2  UNL     1      24.840   3.354  52.488  1.00  0.00    -0.215 N 
HETATM    5  C3  UNL     1      25.111   2.042  52.922  1.00  0.00     0.083 A 
HETATM    6  C4  UNL     1      26.330   1.857  53.532  1.00  0.00     0.052 A 
HETATM    7  C5  UNL     1      26.588   0.575  53.967  1.00  0.00     0.013 A 
HETATM    8 BR1  UNL     1      28.263   0.216  54.828  1.00  0.00    -0.051 Br
HETATM    9  C6  UNL     1      25.730  -0.497  53.835  1.00  0.00     0.021 A 
HETATM   10  C7  UNL     1      24.514  -0.277  53.219  1.00  0.00     0.033 A 
HETATM   11  C8  UNL     1      24.237   0.993  52.777  1.00  0.00     0.061 A 
HETATM   12  N3  UNL     1      22.976   1.152  52.146  1.00  0.00    -0.349 N 
HETATM   13  C9  UNL     1      22.961   1.634  50.819  1.00  0.00     0.207 C 
HETATM   14  N4  UNL     1      23.055   2.483  49.898  1.00  0.00    -0.249 NA
HETATM   15  C10 UNL     1      23.342   3.804  50.143  1.00  0.00     0.066 A 
HETATM   16  C11 UNL     1      23.357   4.681  49.174  1.00  0.00     0.107 A 
HETATM   17  H3  UNL     1      23.116   3.700  52.831  1.00  0.00     0.310 HD
HETATM   18  H4  UNL     1      25.586   4.078  52.442  1.00  0.00     0.194 HD
HETATM   19  H8  UNL     1      22.146   0.892  52.712  1.00  0.00     0.167 HD
ENDROOT
BRANCH  16  20
HETATM   20  C12 UNL     1      23.476   5.911  48.450  1.00  0.00     0.004 C 
HETATM   21  C13 UNL     1      24.183   6.865  47.889  1.00  0.00     0.080 C 
BRANCH  21  22
HETATM   22  N5  UNL     1      25.592   7.007  47.806  1.00  0.00    -0.392 N 
HETATM   23  H13 UNL     1      25.958   7.288  46.887  1.00  0.00     0.159 HD
BRANCH  22  24
HETATM   24  C14 UNL     1      26.340   6.736  49.041  1.00  0.00     0.200 C 
BRANCH  24  25
HETATM   25  C15 UNL     1      27.151   5.517  48.779  1.00  0.00     0.172 C 
HETATM   26  O1  UNL     1      26.809   4.367  48.939  1.00  0.00    -0.294 OA
BRANCH  25  27
HETATM   27  C16 UNL     1      28.526   5.743  48.269  1.00  0.00     0.302 C 
HETATM   28  F1  UNL     1      28.901   7.079  48.409  1.00  0.00    -0.247 F 
ENDBRANCH  25  27
ENDBRANCH  24  25
ENDBRANCH  22  24
ENDBRANCH  21  22
ENDBRANCH  16  20
TORSDOF 5
ENDMDL
MODEL 9
REMARK VINA RESULT:      -6.8      4.959      7.167
REMARK  5 active torsions:
REMARK  status: ('A' for Active; 'I' for Inactive)
REMARK    1  A    between atoms: C11_16  and  C12_17 
REMARK    2  A    between atoms: C13_18  and  N5_19 
REMARK    3  A    between atoms: N5_19  and  C14_20 
REMARK    4  A    between atoms: C14_20  and  C15_21 
REMARK    5  A    between atoms: C15_21  and  C16_23 
ROOT
HETATM    1  C1  UNL     1      29.587   5.418  48.060  1.00  0.00     0.313 A 
HETATM    2  C2  UNL     1      29.286   6.636  47.845  1.00  0.00     0.229 A 
HETATM    3  N1  UNL     1      28.420   6.240  48.959  1.00  0.00     0.029 N 
HETATM    4  N2  UNL     1      27.098   5.729  48.853  1.00  0.00    -0.215 N 
HETATM    5  C3  UNL     1      25.852   5.951  49.468  1.00  0.00     0.083 A 
HETATM    6  C4  UNL     1      24.886   5.005  49.213  1.00  0.00     0.052 A 
HETATM    7  C5  UNL     1      23.670   5.217  49.825  1.00  0.00     0.013 A 
HETATM    8 BR1  UNL     1      22.258   3.955  49.529  1.00  0.00    -0.051 Br
HETATM    9  C6  UNL     1      23.371   6.281  50.652  1.00  0.00     0.021 A 
HETATM   10  C7  UNL     1      24.363   7.213  50.888  1.00  0.00     0.033 A 
HETATM   11  C8  UNL     1      25.582   7.020  50.286  1.00  0.00     0.061 A 
HETATM   12  N3  UNL     1      26.555   8.016  50.562  1.00  0.00    -0.349 N 
HETATM   13  C9  UNL     1      27.112   8.712  49.467  1.00  0.00     0.207 C 
HETATM   14  N4  UNL     1      27.837   8.884  48.456  1.00  0.00    -0.249 NA
HETATM   15  C10 UNL     1      28.664   7.901  47.970  1.00  0.00     0.066 A 
HETATM   16  C11 UNL     1      29.465   8.133  46.963  1.00  0.00     0.107 A 
HETATM   17  H3  UNL     1      28.377   6.177  50.026  1.00  0.00     0.310 HD
HETATM   18  H4  UNL     1      27.217   5.022  48.098  1.00  0.00     0.194 HD
HETATM   19  H8  UNL     1      26.786   8.163  51.563  1.00  0.00     0.167 HD
ENDROOT
BRANCH  16  20
HETATM   20  C12 UNL     1      30.448   7.961  45.935  1.00  0.00     0.004 C 
HETATM   21  C13 UNL     1      31.549   7.426  45.459  1.00  0.00     0.080 C 
BRANCH  21  22
HETATM   22  N5  UNL     1      32.431   6.496  46.066  1.00  0.00    -0.392 N 
HETATM   23  H13 UNL     1      32.243   5.505  45.863  1.00  0.00     0.159 HD
BRANCH  22  24
HETATM   24  C14 UNL     1      33.493   7.069  46.903  1.00  0.00     0.200 C 
BRANCH  24  25
HETATM   25  C15 UNL     1      33.093   6.823  48.315  1.00  0.00     0.172 C 
HETATM   26  O1  UNL     1      33.164   5.777  48.920  1.00  0.00    -0.294 OA
BRANCH  25  27
HETATM   27  C16 UNL     1      32.548   7.989  49.052  1.00  0.00     0.302 C 
HETATM   28  F1  UNL     1      31.592   7.591  49.988  1.00  0.00    -0.247 F 
ENDBRANCH  25  27
ENDBRANCH  24  25
ENDBRANCH  22  24
ENDBRANCH  21  22
ENDBRANCH  16  20
TORSDOF 5
ENDMDL
