MODEL 1
REMARK VINA RESULT:      -7.4      0.000      0.000
REMARK  5 active torsions:
REMARK  status: ('A' for Active; 'I' for Inactive)
REMARK    1  A    between atoms: O1_2  and  C2_3 
REMARK    2  A    between atoms: C2_3  and  C3_4 
REMARK    3  A    between atoms: C3_4  and  O2_5 
REMARK    4  A    between atoms: O2_5  and  C4_6 
REMARK    5  A    between atoms: C8_11  and  C9_12 
ROOT
HETATM    1  C2  UNL     1      22.645   0.926  52.088  1.00  0.00     0.092 C 
HETATM    2  C6  UNL     1      23.909   1.303  52.208  1.00  0.00     0.044 C 
HETATM    3  C7  UNL     1      25.051   0.639  52.883  1.00  0.00     0.092 C 
HETATM    4  C8  UNL     1      26.263   0.688  51.954  1.00  0.00     0.148 C 
HETATM    5  N1  UNL     1      26.431   1.962  51.347  1.00  0.00    -0.275 NA
HETATM    6  C16 UNL     1      25.551   2.852  51.147  1.00  0.00     0.201 C 
HETATM    7  N2  UNL     1      24.212   2.562  51.578  1.00  0.00    -0.352 N 
HETATM    8  H20 UNL     1      23.490   3.300  51.411  1.00  0.00     0.166 HD
ENDROOT
BRANCH   1   9
HETATM    9  O1  UNL     1      21.649   1.640  51.424  1.00  0.00    -0.356 OA
HETATM   10  C1  UNL     1      20.516   1.066  50.832  1.00  0.00     0.209 C 
ENDBRANCH   1   9
BRANCH   1  11
HETATM   11  C3  UNL     1      22.116  -0.345  52.667  1.00  0.00     0.245 C 
BRANCH  11  12
HETATM   12  O2  UNL     1      22.054  -0.228  54.076  1.00  0.00    -0.315 OA
BRANCH  12  13
HETATM   13  C4  UNL     1      22.264  -1.245  54.966  1.00  0.00     0.255 C 
HETATM   14  C5  UNL     1      23.580  -1.322  55.627  1.00  0.00     0.126 C 
HETATM   15  O3  UNL     1      21.196  -1.932  55.016  1.00  0.00    -0.266 OA
ENDBRANCH  12  13
ENDBRANCH  11  12
ENDBRANCH   1  11
BRANCH   4  16
HETATM   16  C9  UNL     1      27.477   0.187  52.644  1.00  0.00    -0.027 A 
HETATM   17  C10 UNL     1      28.399   1.058  53.223  1.00  0.00     0.010 A 
HETATM   18  C11 UNL     1      29.544   0.635  53.877  1.00  0.00     0.001 A 
HETATM   19  C12 UNL     1      29.797  -0.715  53.967  1.00  0.00     0.001 A 
HETATM   20  C13 UNL     1      28.920  -1.620  53.413  1.00  0.00     0.007 A 
HETATM   21  C14 UNL     1      27.781  -1.153  52.765  1.00  0.00    -0.054 A 
HETATM   22  C15 UNL     1      26.839  -2.152  52.170  1.00  0.00     0.049 C 
ENDBRANCH   4  16
TORSDOF 5
ENDMDL
MODEL 2
REMARK VINA RESULT:      -7.4      2.698      6.312
REMARK  5 active torsions:
REMARK  status: ('A' for Active; 'I' for Inactive)
REMARK    1  A    between atoms: O1_2  and  C2_3 
REMARK    2  A    between atoms: C2_3  and  C3_4 
REMARK    3  A    between atoms: C3_4  and  O2_5 
REMARK    4  A    between atoms: O2_5  and  C4_6 
REMARK    5  A    between atoms: C8_11  and  C9_12 
ROOT
HETATM    1  C2  UNL     1      26.599   1.028  52.206  1.00  0.00     0.092 C 
HETATM    2  C6  UNL     1      25.361   1.495  52.137  1.00  0.00     0.044 C 
HETATM    3  C7  UNL     1      24.068   0.779  52.009  1.00  0.00     0.092 C 
HETATM    4  C8  UNL     1      23.077   1.380  53.005  1.00  0.00     0.148 C 
HETATM    5  N1  UNL     1      23.112   2.800  53.017  1.00  0.00    -0.275 NA
HETATM    6  C16 UNL     1      24.064   3.559  52.667  1.00  0.00     0.201 C 
HETATM    7  N2  UNL     1      25.267   2.930  52.197  1.00  0.00    -0.352 N 
HETATM    8  H20 UNL     1      26.051   3.562  51.911  1.00  0.00     0.166 HD
ENDROOT
BRANCH   1   9
HETATM    9  O1  UNL     1      27.749   1.804  52.326  1.00  0.00    -0.356 OA
HETATM   10  C1  UNL     1      28.212   2.366  53.522  1.00  0.00     0.209 C 
ENDBRANCH   1   9
BRANCH   1  11
HETATM   11  C3  UNL     1      26.922  -0.430  52.161  1.00  0.00     0.245 C 
BRANCH  11  12
HETATM   12  O2  UNL     1      27.626  -0.789  53.335  1.00  0.00    -0.315 OA
BRANCH  12  13
HETATM   13  C4  UNL     1      28.801  -1.489  53.372  1.00  0.00     0.255 C 
HETATM   14  C5  UNL     1      30.049  -0.732  53.576  1.00  0.00     0.126 C 
HETATM   15  O3  UNL     1      28.515  -2.717  53.212  1.00  0.00    -0.266 OA
ENDBRANCH  12  13
ENDBRANCH  11  12
ENDBRANCH   1  11
BRANCH   4  16
HETATM   16  C9  UNL     1      21.720   0.814  52.805  1.00  0.00    -0.027 A 
HETATM   17  C10 UNL     1      20.924   1.193  51.724  1.00  0.00     0.010 A 
HETATM   18  C11 UNL     1      19.653   0.691  51.498  1.00  0.00     0.001 A 
HETATM   19  C12 UNL     1      19.137  -0.233  52.379  1.00  0.00     0.001 A 
HETATM   20  C13 UNL     1      19.880  -0.642  53.463  1.00  0.00     0.007 A 
HETATM   21  C14 UNL     1      21.152  -0.114  53.653  1.00  0.00    -0.054 A 
HETATM   22  C15 UNL     1      21.945  -0.571  54.837  1.00  0.00     0.049 C 
ENDBRANCH   4  16
TORSDOF 5
ENDMDL
MODEL 3
REMARK VINA RESULT:      -7.1      2.470      4.764
REMARK  5 active torsions:
REMARK  status: ('A' for Active; 'I' for Inactive)
REMARK    1  A    between atoms: O1_2  and  C2_3 
REMARK    2  A    between atoms: C2_3  and  C3_4 
REMARK    3  A    between atoms: C3_4  and  O2_5 
REMARK    4  A    between atoms: O2_5  and  C4_6 
REMARK    5  A    between atoms: C8_11  and  C9_12 
ROOT
HETATM    1  C2  UNL     1      23.890   2.653  50.759  1.00  0.00     0.092 C 
HETATM    2  C6  UNL     1      24.379   1.663  51.491  1.00  0.00     0.044 C 
HETATM    3  C7  UNL     1      25.756   1.118  51.576  1.00  0.00     0.092 C 
HETATM    4  C8  UNL     1      26.117   0.931  53.048  1.00  0.00     0.148 C 
HETATM    5  N1  UNL     1      25.064   0.338  53.795  1.00  0.00    -0.275 NA
HETATM    6  C16 UNL     1      23.824   0.340  53.531  1.00  0.00     0.201 C 
HETATM    7  N2  UNL     1      23.408   1.019  52.336  1.00  0.00    -0.352 N 
HETATM    8  H20 UNL     1      22.383   1.018  52.124  1.00  0.00     0.166 HD
ENDROOT
BRANCH   1   9
HETATM    9  O1  UNL     1      22.564   3.082  50.761  1.00  0.00    -0.356 OA
HETATM   10  C1  UNL     1      22.044   4.063  51.615  1.00  0.00     0.209 C 
ENDBRANCH   1   9
BRANCH   1  11
HETATM   11  C3  UNL     1      24.723   3.455  49.813  1.00  0.00     0.245 C 
BRANCH  11  12
HETATM   12  O2  UNL     1      25.298   4.547  50.507  1.00  0.00    -0.315 OA
BRANCH  12  13
HETATM   13  C4  UNL     1      25.527   5.789  49.980  1.00  0.00     0.255 C 
HETATM   14  C5  UNL     1      26.421   5.888  48.812  1.00  0.00     0.126 C 
HETATM   15  O3  UNL     1      24.864   6.622  50.673  1.00  0.00    -0.266 OA
ENDBRANCH  12  13
ENDBRANCH  11  12
ENDBRANCH   1  11
BRANCH   4  16
HETATM   16  C9  UNL     1      27.419   0.234  53.187  1.00  0.00    -0.027 A 
HETATM   17  C10 UNL     1      27.528  -1.146  53.020  1.00  0.00     0.010 A 
HETATM   18  C11 UNL     1      28.723  -1.838  53.140  1.00  0.00     0.001 A 
HETATM   19  C12 UNL     1      29.869  -1.138  53.439  1.00  0.00     0.001 A 
HETATM   20  C13 UNL     1      29.818   0.226  53.614  1.00  0.00     0.007 A 
HETATM   21  C14 UNL     1      28.599   0.883  53.485  1.00  0.00    -0.054 A 
HETATM   22  C15 UNL     1      28.564   2.367  53.678  1.00  0.00     0.049 C 
ENDBRANCH   4  16
TORSDOF 5
ENDMDL
MODEL 4
REMARK VINA RESULT:      -6.9      2.264      4.413
REMARK  5 active torsions:
REMARK  status: ('A' for Active; 'I' for Inactive)
REMARK    1  A    between atoms: O1_2  and  C2_3 
REMARK    2  A    between atoms: C2_3  and  C3_4 
REMARK    3  A    between atoms: C3_4  and  O2_5 
REMARK    4  A    between atoms: O2_5  and  C4_6 
REMARK    5  A    between atoms: C8_11  and  C9_12 
ROOT
HETATM    1  C2  UNL     1      23.444   2.252  51.369  1.00  0.00     0.092 C 
HETATM    2  C6  UNL     1      24.101   1.241  51.920  1.00  0.00     0.044 C 
HETATM    3  C7  UNL     1      25.549   0.921  51.919  1.00  0.00     0.092 C 
HETATM    4  C8  UNL     1      25.966   0.542  53.339  1.00  0.00     0.148 C 
HETATM    5  N1  UNL     1      25.038  -0.336  53.961  1.00  0.00    -0.275 NA
HETATM    6  C16 UNL     1      23.809  -0.489  53.692  1.00  0.00     0.201 C 
HETATM    7  N2  UNL     1      23.264   0.311  52.631  1.00  0.00    -0.352 N 
HETATM    8  H20 UNL     1      22.249   0.181  52.413  1.00  0.00     0.166 HD
ENDROOT
BRANCH   1   9
HETATM    9  O1  UNL     1      22.067   2.452  51.436  1.00  0.00    -0.356 OA
HETATM   10  C1  UNL     1      21.444   3.486  52.147  1.00  0.00     0.209 C 
ENDBRANCH   1   9
BRANCH   1  11
HETATM   11  C3  UNL     1      24.117   3.331  50.586  1.00  0.00     0.245 C 
BRANCH  11  12
HETATM   12  O2  UNL     1      23.997   3.050  49.204  1.00  0.00    -0.315 OA
BRANCH  12  13
HETATM   13  C4  UNL     1      23.068   3.596  48.362  1.00  0.00     0.255 C 
HETATM   14  C5  UNL     1      22.260   2.678  47.538  1.00  0.00     0.126 C 
HETATM   15  O3  UNL     1      23.125   4.858  48.501  1.00  0.00    -0.266 OA
ENDBRANCH  12  13
ENDBRANCH  11  12
ENDBRANCH   1  11
BRANCH   4  16
HETATM   16  C9  UNL     1      27.366   0.051  53.364  1.00  0.00    -0.027 A 
HETATM   17  C10 UNL     1      27.670  -1.297  53.182  1.00  0.00     0.010 A 
HETATM   18  C11 UNL     1      28.961  -1.799  53.197  1.00  0.00     0.001 A 
HETATM   19  C12 UNL     1      30.009  -0.930  53.401  1.00  0.00     0.001 A 
HETATM   20  C13 UNL     1      29.766   0.413  53.586  1.00  0.00     0.007 A 
HETATM   21  C14 UNL     1      28.455   0.875  53.563  1.00  0.00    -0.054 A 
HETATM   22  C15 UNL     1      28.210   2.338  53.766  1.00  0.00     0.049 C 
ENDBRANCH   4  16
TORSDOF 5
ENDMDL
MODEL 5
REMARK VINA RESULT:      -6.8      2.164      2.714
REMARK  5 active torsions:
REMARK  status: ('A' for Active; 'I' for Inactive)
REMARK    1  A    between atoms: O1_2  and  C2_3 
REMARK    2  A    between atoms: C2_3  and  C3_4 
REMARK    3  A    between atoms: C3_4  and  O2_5 
REMARK    4  A    between atoms: O2_5  and  C4_6 
REMARK    5  A    between atoms: C8_11  and  C9_12 
ROOT
HETATM    1  C2  UNL     1      22.920   3.308  51.435  1.00  0.00     0.092 C 
HETATM    2  C6  UNL     1      24.242   3.316  51.534  1.00  0.00     0.044 C 
HETATM    3  C7  UNL     1      25.140   2.614  52.483  1.00  0.00     0.092 C 
HETATM    4  C8  UNL     1      26.291   1.991  51.697  1.00  0.00     0.148 C 
HETATM    5  N1  UNL     1      26.827   2.878  50.725  1.00  0.00    -0.275 NA
HETATM    6  C16 UNL     1      26.257   3.866  50.172  1.00  0.00     0.201 C 
HETATM    7  N2  UNL     1      24.901   4.142  50.558  1.00  0.00    -0.352 N 
HETATM    8  H20 UNL     1      24.435   4.958  50.097  1.00  0.00     0.166 HD
ENDROOT
BRANCH   1   9
HETATM    9  O1  UNL     1      22.176   4.015  50.493  1.00  0.00    -0.356 OA
HETATM   10  C1  UNL     1      21.041   4.782  50.785  1.00  0.00     0.209 C 
ENDBRANCH   1   9
BRANCH   1  11
HETATM   11  C3  UNL     1      22.040   2.519  52.349  1.00  0.00     0.245 C 
BRANCH  11  12
HETATM   12  O2  UNL     1      21.962   1.184  51.885  1.00  0.00    -0.315 OA
BRANCH  12  13
HETATM   13  C4  UNL     1      20.985   0.685  51.067  1.00  0.00     0.255 C 
HETATM   14  C5  UNL     1      21.175   0.808  49.611  1.00  0.00     0.126 C 
HETATM   15  O3  UNL     1      20.079   0.197  51.814  1.00  0.00    -0.266 OA
ENDBRANCH  12  13
ENDBRANCH  11  12
ENDBRANCH   1  11
BRANCH   4  16
HETATM   16  C9  UNL     1      27.308   1.419  52.613  1.00  0.00    -0.027 A 
HETATM   17  C10 UNL     1      28.184   2.233  53.330  1.00  0.00     0.010 A 
HETATM   18  C11 UNL     1      29.148   1.743  54.196  1.00  0.00     0.001 A 
HETATM   19  C12 UNL     1      29.255   0.381  54.368  1.00  0.00     0.001 A 
HETATM   20  C13 UNL     1      28.414  -0.469  53.686  1.00  0.00     0.007 A 
HETATM   21  C14 UNL     1      27.461   0.065  52.825  1.00  0.00    -0.054 A 
HETATM   22  C15 UNL     1      26.556  -0.875  52.092  1.00  0.00     0.049 C 
ENDBRANCH   4  16
TORSDOF 5
ENDMDL
MODEL 6
REMARK VINA RESULT:      -6.8      2.176      3.865
REMARK  5 active torsions:
REMARK  status: ('A' for Active; 'I' for Inactive)
REMARK    1  A    between atoms: O1_2  and  C2_3 
REMARK    2  A    between atoms: C2_3  and  C3_4 
REMARK    3  A    between atoms: C3_4  and  O2_5 
REMARK    4  A    between atoms: O2_5  and  C4_6 
REMARK    5  A    between atoms: C8_11  and  C9_12 
ROOT
HETATM    1  C2  UNL     1      23.119   1.675  51.831  1.00  0.00     0.092 C 
HETATM    2  C6  UNL     1      23.910   0.771  52.389  1.00  0.00     0.044 C 
HETATM    3  C7  UNL     1      25.370   0.548  52.244  1.00  0.00     0.092 C 
HETATM    4  C8  UNL     1      25.972   0.341  53.632  1.00  0.00     0.148 C 
HETATM    5  N1  UNL     1      25.191  -0.529  54.439  1.00  0.00    -0.275 NA
HETATM    6  C16 UNL     1      23.955  -0.789  54.334  1.00  0.00     0.201 C 
HETATM    7  N2  UNL     1      23.233  -0.137  53.278  1.00  0.00    -0.352 N 
HETATM    8  H20 UNL     1      22.214  -0.355  53.196  1.00  0.00     0.166 HD
ENDROOT
BRANCH   1   9
HETATM    9  O1  UNL     1      21.747   1.790  52.043  1.00  0.00    -0.356 OA
HETATM   10  C1  UNL     1      20.770   1.621  51.054  1.00  0.00     0.209 C 
ENDBRANCH   1   9
BRANCH   1  11
HETATM   11  C3  UNL     1      23.615   2.712  50.876  1.00  0.00     0.245 C 
BRANCH  11  12
HETATM   12  O2  UNL     1      24.090   3.829  51.604  1.00  0.00    -0.315 OA
BRANCH  12  13
HETATM   13  C4  UNL     1      23.306   4.757  52.233  1.00  0.00     0.255 C 
HETATM   14  C5  UNL     1      22.232   5.397  51.451  1.00  0.00     0.126 C 
HETATM   15  O3  UNL     1      23.720   4.853  53.431  1.00  0.00    -0.266 OA
ENDBRANCH  12  13
ENDBRANCH  11  12
ENDBRANCH   1  11
BRANCH   4  16
HETATM   16  C9  UNL     1      27.400  -0.052  53.534  1.00  0.00    -0.027 A 
HETATM   17  C10 UNL     1      27.781  -1.385  53.390  1.00  0.00     0.010 A 
HETATM   18  C11 UNL     1      29.101  -1.796  53.294  1.00  0.00     0.001 A 
HETATM   19  C12 UNL     1      30.098  -0.848  53.342  1.00  0.00     0.001 A 
HETATM   20  C13 UNL     1      29.777   0.483  53.482  1.00  0.00     0.007 A 
HETATM   21  C14 UNL     1      28.440   0.854  53.575  1.00  0.00    -0.054 A 
HETATM   22  C15 UNL     1      28.110   2.306  53.727  1.00  0.00     0.049 C 
ENDBRANCH   4  16
TORSDOF 5
ENDMDL
MODEL 7
REMARK VINA RESULT:      -6.8      2.918      6.648
REMARK  5 active torsions:
REMARK  status: ('A' for Active; 'I' for Inactive)
REMARK    1  A    between atoms: O1_2  and  C2_3 
REMARK    2  A    between atoms: C2_3  and  C3_4 
REMARK    3  A    between atoms: C3_4  and  O2_5 
REMARK    4  A    between atoms: O2_5  and  C4_6 
REMARK    5  A    between atoms: C8_11  and  C9_12 
ROOT
HETATM    1  C2  UNL     1      26.012  -0.279  52.764  1.00  0.00     0.092 C 
HETATM    2  C6  UNL     1      24.776   0.179  52.903  1.00  0.00     0.044 C 
HETATM    3  C7  UNL     1      24.119   1.370  52.311  1.00  0.00     0.092 C 
HETATM    4  C8  UNL     1      22.744   0.959  51.789  1.00  0.00     0.148 C 
HETATM    5  N1  UNL     1      22.039   0.133  52.706  1.00  0.00    -0.275 NA
HETATM    6  C16 UNL     1      22.519  -0.600  53.622  1.00  0.00     0.201 C 
HETATM    7  N2  UNL     1      23.947  -0.615  53.772  1.00  0.00    -0.352 N 
HETATM    8  H20 UNL     1      24.337  -1.222  54.529  1.00  0.00     0.166 HD
ENDROOT
BRANCH   1   9
HETATM    9  O1  UNL     1      26.524  -1.421  53.377  1.00  0.00    -0.356 OA
HETATM   10  C1  UNL     1      27.309  -2.387  52.735  1.00  0.00     0.209 C 
ENDBRANCH   1   9
BRANCH   1  11
HETATM   11  C3  UNL     1      27.038   0.391  51.910  1.00  0.00     0.245 C 
BRANCH  11  12
HETATM   12  O2  UNL     1      27.480   1.573  52.551  1.00  0.00    -0.315 OA
BRANCH  12  13
HETATM   13  C4  UNL     1      28.391   1.629  53.570  1.00  0.00     0.255 C 
HETATM   14  C5  UNL     1      29.418   0.574  53.635  1.00  0.00     0.126 C 
HETATM   15  O3  UNL     1      28.114   2.654  54.269  1.00  0.00    -0.266 OA
ENDBRANCH  12  13
ENDBRANCH  11  12
ENDBRANCH   1  11
BRANCH   4  16
HETATM   16  C9  UNL     1      21.976   2.146  51.337  1.00  0.00    -0.027 A 
HETATM   17  C10 UNL     1      21.856   3.284  52.134  1.00  0.00     0.010 A 
HETATM   18  C11 UNL     1      21.150   4.413  51.752  1.00  0.00     0.001 A 
HETATM   19  C12 UNL     1      20.530   4.425  50.523  1.00  0.00     0.001 A 
HETATM   20  C13 UNL     1      20.616   3.328  49.696  1.00  0.00     0.007 A 
HETATM   21  C14 UNL     1      21.335   2.214  50.117  1.00  0.00    -0.054 A 
HETATM   22  C15 UNL     1      21.418   1.031  49.205  1.00  0.00     0.049 C 
ENDBRANCH   4  16
TORSDOF 5
ENDMDL
MODEL 8
REMARK VINA RESULT:      -6.7      2.705      4.892
REMARK  5 active torsions:
REMARK  status: ('A' for Active; 'I' for Inactive)
REMARK    1  A    between atoms: O1_2  and  C2_3 
REMARK    2  A    between atoms: C2_3  and  C3_4 
REMARK    3  A    between atoms: C3_4  and  O2_5 
REMARK    4  A    between atoms: O2_5  and  C4_6 
REMARK    5  A    between atoms: C8_11  and  C9_12 
ROOT
HETATM    1  C2  UNL     1      19.422  -0.132  52.852  1.00  0.00     0.092 C 
HETATM    2  C6  UNL     1      20.650  -0.535  53.144  1.00  0.00     0.044 C 
HETATM    3  C7  UNL     1      21.953  -0.165  52.541  1.00  0.00     0.092 C 
HETATM    4  C8  UNL     1      22.950   0.115  53.664  1.00  0.00     0.148 C 
HETATM    5  N1  UNL     1      22.889  -0.857  54.699  1.00  0.00    -0.275 NA
HETATM    6  C16 UNL     1      21.917  -1.611  55.004  1.00  0.00     0.201 C 
HETATM    7  N2  UNL     1      20.718  -1.486  54.223  1.00  0.00    -0.352 N 
HETATM    8  H20 UNL     1      19.919  -2.110  54.479  1.00  0.00     0.166 HD
ENDROOT
BRANCH   1   9
HETATM    9  O1  UNL     1      18.259  -0.554  53.493  1.00  0.00    -0.356 OA
HETATM   10  C1  UNL     1      17.299  -1.402  52.927  1.00  0.00     0.209 C 
ENDBRANCH   1   9
BRANCH   1  11
HETATM   11  C3  UNL     1      19.124   0.850  51.767  1.00  0.00     0.245 C 
BRANCH  11  12
HETATM   12  O2  UNL     1      19.807   2.061  52.032  1.00  0.00    -0.315 OA
BRANCH  12  13
HETATM   13  C4  UNL     1      19.348   3.314  51.729  1.00  0.00     0.255 C 
HETATM   14  C5  UNL     1      20.327   4.315  51.268  1.00  0.00     0.126 C 
HETATM   15  O3  UNL     1      18.093   3.315  51.930  1.00  0.00    -0.266 OA
ENDBRANCH  12  13
ENDBRANCH  11  12
ENDBRANCH   1  11
BRANCH   4  16
HETATM   16  C9  UNL     1      24.313   0.328  53.119  1.00  0.00    -0.027 A 
HETATM   17  C10 UNL     1      25.205  -0.730  52.952  1.00  0.00     0.010 A 
HETATM   18  C11 UNL     1      26.486  -0.578  52.447  1.00  0.00     0.001 A 
HETATM   19  C12 UNL     1      26.913   0.680  52.087  1.00  0.00     0.001 A 
HETATM   20  C13 UNL     1      26.073   1.761  52.231  1.00  0.00     0.007 A 
HETATM   21  C14 UNL     1      24.794   1.565  52.742  1.00  0.00    -0.054 A 
HETATM   22  C15 UNL     1      23.895   2.752  52.891  1.00  0.00     0.049 C 
ENDBRANCH   4  16
TORSDOF 5
ENDMDL
MODEL 9
REMARK VINA RESULT:      -6.7      2.496      5.302
REMARK  5 active torsions:
REMARK  status: ('A' for Active; 'I' for Inactive)
REMARK    1  A    between atoms: O1_2  and  C2_3 
REMARK    2  A    between atoms: C2_3  and  C3_4 
REMARK    3  A    between atoms: C3_4  and  O2_5 
REMARK    4  A    between atoms: O2_5  and  C4_6 
REMARK    5  A    between atoms: C8_11  and  C9_12 
ROOT
HETATM    1  C2  UNL     1      23.318  -0.110  53.096  1.00  0.00     0.092 C 
HETATM    2  C6  UNL     1      23.034   0.918  52.310  1.00  0.00     0.044 C 
HETATM    3  C7  UNL     1      23.684   2.246  52.189  1.00  0.00     0.092 C 
HETATM    4  C8  UNL     1      23.874   2.564  50.707  1.00  0.00     0.148 C 
HETATM    5  N1  UNL     1      22.723   2.257  49.934  1.00  0.00    -0.275 NA
HETATM    6  C16 UNL     1      21.801   1.429  50.203  1.00  0.00     0.201 C 
HETATM    7  N2  UNL     1      21.912   0.699  51.435  1.00  0.00    -0.352 N 
HETATM    8  H20 UNL     1      21.150   0.017  51.652  1.00  0.00     0.166 HD
ENDROOT
BRANCH   1   9
HETATM    9  O1  UNL     1      22.630  -1.321  53.123  1.00  0.00    -0.356 OA
HETATM   10  C1  UNL     1      21.785  -1.735  54.160  1.00  0.00     0.209 C 
ENDBRANCH   1   9
BRANCH   1  11
HETATM   11  C3  UNL     1      24.442  -0.095  54.081  1.00  0.00     0.245 C 
BRANCH  11  12
HETATM   12  O2  UNL     1      25.490  -0.920  53.606  1.00  0.00    -0.315 OA
BRANCH  12  13
HETATM   13  C4  UNL     1      26.720  -0.481  53.197  1.00  0.00     0.255 C 
HETATM   14  C5  UNL     1      26.800   0.262  51.927  1.00  0.00     0.126 C 
HETATM   15  O3  UNL     1      27.563  -0.846  54.076  1.00  0.00    -0.266 OA
ENDBRANCH  12  13
ENDBRANCH  11  12
ENDBRANCH   1  11
BRANCH   4  16
HETATM   16  C9  UNL     1      24.367   3.952  50.525  1.00  0.00    -0.027 A 
HETATM   17  C10 UNL     1      23.624   5.052  50.951  1.00  0.00     0.010 A 
HETATM   18  C11 UNL     1      24.046   6.363  50.801  1.00  0.00     0.001 A 
HETATM   19  C12 UNL     1      25.261   6.606  50.203  1.00  0.00     0.001 A 
HETATM   20  C13 UNL     1      26.036   5.556  49.764  1.00  0.00     0.007 A 
HETATM   21  C14 UNL     1      25.576   4.255  49.933  1.00  0.00    -0.054 A 
HETATM   22  C15 UNL     1      26.432   3.127  49.450  1.00  0.00     0.049 C 
ENDBRANCH   4  16
TORSDOF 5
ENDMDL
