MODEL 1
REMARK VINA RESULT:      -7.4      0.000      0.000
REMARK  7 active torsions:
REMARK  status: ('A' for Active; 'I' for Inactive)
REMARK    1  A    between atoms: C2_2  and  O1_3 
REMARK    2  A    between atoms: O1_3  and  C3_4 
REMARK    3  A    between atoms: C5_6  and  O2_7 
REMARK    4  A    between atoms: O2_7  and  C6_8 
REMARK    5  A    between atoms: C6_8  and  C7_9 
REMARK    6  A    between atoms: C7_9  and  O3_10 
REMARK    7  A    between atoms: C9_12  and  C10_13 
ROOT
HETATM    1  C3  UNL     1      26.850  -0.439  53.210  1.00  0.00     0.073 A 
HETATM    2  C4  UNL     1      25.524  -0.704  53.464  1.00  0.00     0.074 A 
HETATM    3  C5  UNL     1      24.482   0.014  52.947  1.00  0.00     0.086 A 
HETATM    4  C8  UNL     1      24.824   1.080  52.109  1.00  0.00     0.056 A 
HETATM    5  C9  UNL     1      23.940   1.918  51.494  1.00  0.00     0.084 A 
HETATM    6  N1  UNL     1      24.320   2.931  50.696  1.00  0.00    -0.240 NA
HETATM    7  C16 UNL     1      25.599   3.178  50.458  1.00  0.00     0.234 A 
HETATM    8  N2  UNL     1      26.535   2.385  51.035  1.00  0.00    -0.241 NA
HETATM    9  C17 UNL     1      26.163   1.357  51.845  1.00  0.00     0.076 A 
HETATM   10  C18 UNL     1      27.185   0.611  52.385  1.00  0.00     0.069 A 
ENDROOT
BRANCH   5  11
HETATM   11  C10 UNL     1      22.515   1.703  51.713  1.00  0.00     0.005 C 
HETATM   12  C11 UNL     1      21.596   2.008  52.617  1.00  0.00    -0.012 C 
HETATM   13  C12 UNL     1      20.368   2.092  52.137  1.00  0.00     0.020 C 
HETATM   14  C13 UNL     1      20.397   1.174  51.005  1.00  0.00    -0.060 C 
HETATM   15  C14 UNL     1      19.197   0.630  50.300  1.00  0.00     0.048 C 
HETATM   16  C15 UNL     1      21.678   0.946  50.755  1.00  0.00     0.021 C 
ENDBRANCH   5  11
BRANCH   3  17
HETATM   17  O2  UNL     1      23.126  -0.088  53.077  1.00  0.00    -0.348 OA
BRANCH  17  18
HETATM   18  C6  UNL     1      22.349  -1.113  53.583  1.00  0.00     0.201 C 
BRANCH  18  19
HETATM   19  C7  UNL     1      21.965  -1.006  55.023  1.00  0.00     0.190 C 
BRANCH  19  20
HETATM   20  O3  UNL     1      22.854  -1.833  55.752  1.00  0.00    -0.399 OA
HETATM   21  H11 UNL     1      23.137  -1.397  56.577  1.00  0.00     0.209 HD
ENDBRANCH  19  20
ENDBRANCH  18  19
ENDBRANCH  17  18
ENDBRANCH   3  17
BRANCH   1  22
HETATM   22  O1  UNL     1      27.779  -1.291  53.835  1.00  0.00    -0.351 OA
BRANCH  22  23
HETATM   23  C2  UNL     1      28.976  -1.617  53.174  1.00  0.00     0.171 C 
HETATM   24  C1  UNL     1      30.167  -0.880  53.755  1.00  0.00     0.034 C 
ENDBRANCH  22  23
ENDBRANCH   1  22
TORSDOF 7
ENDMDL
MODEL 2
REMARK VINA RESULT:      -7.3      2.656      6.726
REMARK  7 active torsions:
REMARK  status: ('A' for Active; 'I' for Inactive)
REMARK    1  A    between atoms: C2_2  and  O1_3 
REMARK    2  A    between atoms: O1_3  and  C3_4 
REMARK    3  A    between atoms: C5_6  and  O2_7 
REMARK    4  A    between atoms: O2_7  and  C6_8 
REMARK    5  A    between atoms: C6_8  and  C7_9 
REMARK    6  A    between atoms: C7_9  and  O3_10 
REMARK    7  A    between atoms: C9_12  and  C10_13 
ROOT
HETATM    1  C3  UNL     1      22.116   1.064  51.604  1.00  0.00     0.073 A 
HETATM    2  C4  UNL     1      23.441   1.390  51.429  1.00  0.00     0.074 A 
HETATM    3  C5  UNL     1      24.453   0.961  52.243  1.00  0.00     0.086 A 
HETATM    4  C8  UNL     1      24.079   0.141  53.312  1.00  0.00     0.056 A 
HETATM    5  C9  UNL     1      24.931  -0.390  54.237  1.00  0.00     0.084 A 
HETATM    6  N1  UNL     1      24.521  -1.175  55.248  1.00  0.00    -0.240 NA
HETATM    7  C16 UNL     1      23.243  -1.483  55.408  1.00  0.00     0.234 A 
HETATM    8  N2  UNL     1      22.338  -0.991  54.525  1.00  0.00    -0.241 NA
HETATM    9  C17 UNL     1      22.741  -0.195  53.498  1.00  0.00     0.076 A 
HETATM   10  C18 UNL     1      21.750   0.255  52.657  1.00  0.00     0.069 A 
ENDROOT
BRANCH   5  11
HETATM   11  C10 UNL     1      26.353  -0.092  54.121  1.00  0.00     0.005 C 
HETATM   12  C11 UNL     1      27.202   0.844  54.516  1.00  0.00    -0.012 C 
HETATM   13  C12 UNL     1      28.446   0.424  54.661  1.00  0.00     0.020 C 
HETATM   14  C13 UNL     1      28.533  -0.671  53.702  1.00  0.00    -0.060 C 
HETATM   15  C14 UNL     1      29.801  -1.293  53.210  1.00  0.00     0.048 C 
HETATM   16  C15 UNL     1      27.284  -0.975  53.384  1.00  0.00     0.021 C 
ENDBRANCH   5  11
BRANCH   3  17
HETATM   17  O2  UNL     1      25.803   1.171  52.238  1.00  0.00    -0.348 OA
BRANCH  17  18
HETATM   18  C6  UNL     1      26.604   1.830  51.325  1.00  0.00     0.201 C 
BRANCH  18  19
HETATM   19  C7  UNL     1      26.262   3.259  51.051  1.00  0.00     0.190 C 
BRANCH  19  20
HETATM   20  O3  UNL     1      27.218   3.744  50.125  1.00  0.00    -0.399 OA
HETATM   21  H11 UNL     1      28.119   3.482  50.386  1.00  0.00     0.209 HD
ENDBRANCH  19  20
ENDBRANCH  18  19
ENDBRANCH  17  18
ENDBRANCH   3  17
BRANCH   1  22
HETATM   22  O1  UNL     1      21.220   1.601  50.661  1.00  0.00    -0.351 OA
BRANCH  22  23
HETATM   23  C2  UNL     1      21.719   2.304  49.551  1.00  0.00     0.171 C 
HETATM   24  C1  UNL     1      21.618   1.497  48.272  1.00  0.00     0.034 C 
ENDBRANCH  22  23
ENDBRANCH   1  22
TORSDOF 7
ENDMDL
MODEL 3
REMARK VINA RESULT:      -7.2      2.459      3.996
REMARK  7 active torsions:
REMARK  status: ('A' for Active; 'I' for Inactive)
REMARK    1  A    between atoms: C2_2  and  O1_3 
REMARK    2  A    between atoms: O1_3  and  C3_4 
REMARK    3  A    between atoms: C5_6  and  O2_7 
REMARK    4  A    between atoms: O2_7  and  C6_8 
REMARK    5  A    between atoms: C6_8  and  C7_9 
REMARK    6  A    between atoms: C7_9  and  O3_10 
REMARK    7  A    between atoms: C9_12  and  C10_13 
ROOT
HETATM    1  C3  UNL     1      26.120  -0.159  54.578  1.00  0.00     0.073 A 
HETATM    2  C4  UNL     1      25.943   0.751  53.562  1.00  0.00     0.074 A 
HETATM    3  C5  UNL     1      24.748   0.993  52.944  1.00  0.00     0.086 A 
HETATM    4  C8  UNL     1      23.656   0.249  53.401  1.00  0.00     0.056 A 
HETATM    5  C9  UNL     1      22.382   0.337  52.921  1.00  0.00     0.084 A 
HETATM    6  N1  UNL     1      21.365  -0.402  53.395  1.00  0.00    -0.240 NA
HETATM    7  C16 UNL     1      21.544  -1.276  54.373  1.00  0.00     0.234 A 
HETATM    8  N2  UNL     1      22.786  -1.418  54.901  1.00  0.00    -0.241 NA
HETATM    9  C17 UNL     1      23.824  -0.675  54.429  1.00  0.00     0.076 A 
HETATM   10  C18 UNL     1      25.044  -0.891  55.027  1.00  0.00     0.069 A 
ENDROOT
BRANCH   5  11
HETATM   11  C10 UNL     1      22.112   1.280  51.842  1.00  0.00     0.005 C 
HETATM   12  C11 UNL     1      22.205   1.325  50.522  1.00  0.00    -0.012 C 
HETATM   13  C12 UNL     1      21.344   2.143  49.943  1.00  0.00     0.020 C 
HETATM   14  C13 UNL     1      21.115   3.153  50.969  1.00  0.00    -0.060 C 
HETATM   15  C14 UNL     1      20.484   4.490  50.743  1.00  0.00     0.048 C 
HETATM   16  C15 UNL     1      21.574   2.635  52.098  1.00  0.00     0.021 C 
ENDBRANCH   5  11
BRANCH   3  17
HETATM   17  O2  UNL     1      24.375   1.837  51.937  1.00  0.00    -0.348 OA
BRANCH  17  18
HETATM   18  C6  UNL     1      24.964   3.001  51.479  1.00  0.00     0.201 C 
BRANCH  18  19
HETATM   19  C7  UNL     1      26.102   2.839  50.524  1.00  0.00     0.190 C 
BRANCH  19  20
HETATM   20  O3  UNL     1      27.282   3.198  51.220  1.00  0.00    -0.399 OA
HETATM   21  H11 UNL     1      27.388   2.661  52.026  1.00  0.00     0.209 HD
ENDBRANCH  19  20
ENDBRANCH  18  19
ENDBRANCH  17  18
ENDBRANCH   3  17
BRANCH   1  22
HETATM   22  O1  UNL     1      27.427  -0.267  55.089  1.00  0.00    -0.351 OA
BRANCH  22  23
HETATM   23  C2  UNL     1      28.492   0.341  54.403  1.00  0.00     0.171 C 
HETATM   24  C1  UNL     1      29.486  -0.674  53.874  1.00  0.00     0.034 C 
ENDBRANCH  22  23
ENDBRANCH   1  22
TORSDOF 7
ENDMDL
MODEL 4
REMARK VINA RESULT:      -6.7      2.556      5.665
REMARK  7 active torsions:
REMARK  status: ('A' for Active; 'I' for Inactive)
REMARK    1  A    between atoms: C2_2  and  O1_3 
REMARK    2  A    between atoms: O1_3  and  C3_4 
REMARK    3  A    between atoms: C5_6  and  O2_7 
REMARK    4  A    between atoms: O2_7  and  C6_8 
REMARK    5  A    between atoms: C6_8  and  C7_9 
REMARK    6  A    between atoms: C7_9  and  O3_10 
REMARK    7  A    between atoms: C9_12  and  C10_13 
ROOT
HETATM    1  C3  UNL     1      21.756   0.228  52.116  1.00  0.00     0.073 A 
HETATM    2  C4  UNL     1      22.872   0.978  52.408  1.00  0.00     0.074 A 
HETATM    3  C5  UNL     1      23.465   1.849  51.536  1.00  0.00     0.086 A 
HETATM    4  C8  UNL     1      22.872   1.958  50.275  1.00  0.00     0.056 A 
HETATM    5  C9  UNL     1      23.305   2.766  49.264  1.00  0.00     0.084 A 
HETATM    6  N1  UNL     1      22.698   2.835  48.067  1.00  0.00    -0.240 NA
HETATM    7  C16 UNL     1      21.625   2.110  47.794  1.00  0.00     0.234 A 
HETATM    8  N2  UNL     1      21.136   1.283  48.752  1.00  0.00    -0.241 NA
HETATM    9  C17 UNL     1      21.742   1.204  49.969  1.00  0.00     0.076 A 
HETATM   10  C18 UNL     1      21.173   0.337  50.873  1.00  0.00     0.069 A 
ENDROOT
BRANCH   5  11
HETATM   11  C10 UNL     1      24.483   3.593  49.495  1.00  0.00     0.005 C 
HETATM   12  C11 UNL     1      25.801   3.476  49.437  1.00  0.00    -0.012 C 
HETATM   13  C12 UNL     1      26.438   4.606  49.188  1.00  0.00     0.020 C 
HETATM   14  C13 UNL     1      25.542   5.613  49.745  1.00  0.00    -0.060 C 
HETATM   15  C14 UNL     1      25.909   7.034  50.034  1.00  0.00     0.048 C 
HETATM   16  C15 UNL     1      24.379   5.005  49.926  1.00  0.00     0.021 C 
ENDBRANCH   5  11
BRANCH   3  17
HETATM   17  O2  UNL     1      24.555   2.666  51.634  1.00  0.00    -0.348 OA
BRANCH  17  18
HETATM   18  C6  UNL     1      25.503   2.780  52.635  1.00  0.00     0.201 C 
BRANCH  18  19
HETATM   19  C7  UNL     1      26.718   1.922  52.498  1.00  0.00     0.190 C 
BRANCH  19  20
HETATM   20  O3  UNL     1      27.812   2.787  52.248  1.00  0.00    -0.399 OA
HETATM   21  H11 UNL     1      28.247   2.563  51.406  1.00  0.00     0.209 HD
ENDBRANCH  19  20
ENDBRANCH  18  19
ENDBRANCH  17  18
ENDBRANCH   3  17
BRANCH   1  22
HETATM   22  O1  UNL     1      21.292  -0.612  53.144  1.00  0.00    -0.351 OA
BRANCH  22  23
HETATM   23  C2  UNL     1      21.590  -0.302  54.482  1.00  0.00     0.171 C 
HETATM   24  C1  UNL     1      22.475  -1.350  55.128  1.00  0.00     0.034 C 
ENDBRANCH  22  23
ENDBRANCH   1  22
TORSDOF 7
ENDMDL
MODEL 5
REMARK VINA RESULT:      -6.4      2.811      4.986
REMARK  7 active torsions:
REMARK  status: ('A' for Active; 'I' for Inactive)
REMARK    1  A    between atoms: C2_2  and  O1_3 
REMARK    2  A    between atoms: O1_3  and  C3_4 
REMARK    3  A    between atoms: C5_6  and  O2_7 
REMARK    4  A    between atoms: O2_7  and  C6_8 
REMARK    5  A    between atoms: C6_8  and  C7_9 
REMARK    6  A    between atoms: C7_9  and  O3_10 
REMARK    7  A    between atoms: C9_12  and  C10_13 
ROOT
HETATM    1  C3  UNL     1      24.827   3.952  49.438  1.00  0.00     0.073 A 
HETATM    2  C4  UNL     1      24.854   3.651  50.780  1.00  0.00     0.074 A 
HETATM    3  C5  UNL     1      23.999   2.775  51.390  1.00  0.00     0.086 A 
HETATM    4  C8  UNL     1      23.048   2.166  50.565  1.00  0.00     0.056 A 
HETATM    5  C9  UNL     1      22.107   1.266  50.973  1.00  0.00     0.084 A 
HETATM    6  N1  UNL     1      21.214   0.708  50.139  1.00  0.00    -0.240 NA
HETATM    7  C16 UNL     1      21.195   1.005  48.849  1.00  0.00     0.234 A 
HETATM    8  N2  UNL     1      22.103   1.892  48.370  1.00  0.00    -0.241 NA
HETATM    9  C17 UNL     1      23.012   2.465  49.205  1.00  0.00     0.076 A 
HETATM   10  C18 UNL     1      23.890   3.352  48.627  1.00  0.00     0.069 A 
ENDROOT
BRANCH   5  11
HETATM   11  C10 UNL     1      22.070   0.894  52.382  1.00  0.00     0.005 C 
HETATM   12  C11 UNL     1      21.473   1.293  53.495  1.00  0.00    -0.012 C 
HETATM   13  C12 UNL     1      21.304   0.339  54.393  1.00  0.00     0.020 C 
HETATM   14  C13 UNL     1      22.410  -0.569  54.117  1.00  0.00    -0.060 C 
HETATM   15  C14 UNL     1      22.897  -1.645  55.033  1.00  0.00     0.048 C 
HETATM   16  C15 UNL     1      22.863  -0.235  52.917  1.00  0.00     0.021 C 
ENDBRANCH   5  11
BRANCH   3  17
HETATM   17  O2  UNL     1      23.866   2.351  52.681  1.00  0.00    -0.348 OA
BRANCH  17  18
HETATM   18  C6  UNL     1      24.686   2.548  53.778  1.00  0.00     0.201 C 
BRANCH  18  19
HETATM   19  C7  UNL     1      25.949   1.750  53.814  1.00  0.00     0.190 C 
BRANCH  19  20
HETATM   20  O3  UNL     1      27.011   2.664  54.019  1.00  0.00    -0.399 OA
HETATM   21  H11 UNL     1      27.488   2.462  54.845  1.00  0.00     0.209 HD
ENDBRANCH  19  20
ENDBRANCH  18  19
ENDBRANCH  17  18
ENDBRANCH   3  17
BRANCH   1  22
HETATM   22  O1  UNL     1      25.789   4.879  48.995  1.00  0.00    -0.351 OA
BRANCH  22  23
HETATM   23  C2  UNL     1      27.149   4.527  49.008  1.00  0.00     0.171 C 
HETATM   24  C1  UNL     1      28.025   5.608  48.406  1.00  0.00     0.034 C 
ENDBRANCH  22  23
ENDBRANCH   1  22
TORSDOF 7
ENDMDL
MODEL 6
REMARK VINA RESULT:      -6.3      2.727      5.688
REMARK  7 active torsions:
REMARK  status: ('A' for Active; 'I' for Inactive)
REMARK    1  A    between atoms: C2_2  and  O1_3 
REMARK    2  A    between atoms: O1_3  and  C3_4 
REMARK    3  A    between atoms: C5_6  and  O2_7 
REMARK    4  A    between atoms: O2_7  and  C6_8 
REMARK    5  A    between atoms: C6_8  and  C7_9 
REMARK    6  A    between atoms: C7_9  and  O3_10 
REMARK    7  A    between atoms: C9_12  and  C10_13 
ROOT
HETATM    1  C3  UNL     1      21.111  -0.854  53.631  1.00  0.00     0.073 A 
HETATM    2  C4  UNL     1      20.833   0.304  52.941  1.00  0.00     0.074 A 
HETATM    3  C5  UNL     1      21.766   1.249  52.616  1.00  0.00     0.086 A 
HETATM    4  C8  UNL     1      23.076   0.990  53.028  1.00  0.00     0.056 A 
HETATM    5  C9  UNL     1      24.151   1.801  52.806  1.00  0.00     0.084 A 
HETATM    6  N1  UNL     1      25.394   1.505  53.224  1.00  0.00    -0.240 NA
HETATM    7  C16 UNL     1      25.651   0.390  53.888  1.00  0.00     0.234 A 
HETATM    8  N2  UNL     1      24.631  -0.466  54.145  1.00  0.00    -0.241 NA
HETATM    9  C17 UNL     1      23.368  -0.179  53.728  1.00  0.00     0.076 A 
HETATM   10  C18 UNL     1      22.402  -1.108  54.036  1.00  0.00     0.069 A 
ENDROOT
BRANCH   5  11
HETATM   11  C10 UNL     1      23.939   3.047  52.080  1.00  0.00     0.005 C 
HETATM   12  C11 UNL     1      23.542   4.285  52.335  1.00  0.00    -0.012 C 
HETATM   13  C12 UNL     1      24.033   5.194  51.511  1.00  0.00     0.020 C 
HETATM   14  C13 UNL     1      24.243   4.439  50.282  1.00  0.00    -0.060 C 
HETATM   15  C14 UNL     1      24.473   5.034  48.929  1.00  0.00     0.048 C 
HETATM   16  C15 UNL     1      24.187   3.161  50.626  1.00  0.00     0.021 C 
ENDBRANCH   5  11
BRANCH   3  17
HETATM   17  O2  UNL     1      21.691   2.440  51.950  1.00  0.00    -0.348 OA
BRANCH  17  18
HETATM   18  C6  UNL     1      20.774   2.889  51.018  1.00  0.00     0.201 C 
BRANCH  18  19
HETATM   19  C7  UNL     1      19.894   4.019  51.445  1.00  0.00     0.190 C 
BRANCH  19  20
HETATM   20  O3  UNL     1      18.801   3.451  52.146  1.00  0.00    -0.399 OA
HETATM   21  H11 UNL     1      19.080   2.662  52.644  1.00  0.00     0.209 HD
ENDBRANCH  19  20
ENDBRANCH  18  19
ENDBRANCH  17  18
ENDBRANCH   3  17
BRANCH   1  22
HETATM   22  O1  UNL     1      20.017  -1.705  53.871  1.00  0.00    -0.351 OA
BRANCH  22  23
HETATM   23  C2  UNL     1      18.730  -1.315  53.462  1.00  0.00     0.171 C 
HETATM   24  C1  UNL     1      17.727  -2.447  53.574  1.00  0.00     0.034 C 
ENDBRANCH  22  23
ENDBRANCH   1  22
TORSDOF 7
ENDMDL
MODEL 7
REMARK VINA RESULT:      -6.2      2.607      4.225
REMARK  7 active torsions:
REMARK  status: ('A' for Active; 'I' for Inactive)
REMARK    1  A    between atoms: C2_2  and  O1_3 
REMARK    2  A    between atoms: O1_3  and  C3_4 
REMARK    3  A    between atoms: C5_6  and  O2_7 
REMARK    4  A    between atoms: O2_7  and  C6_8 
REMARK    5  A    between atoms: C6_8  and  C7_9 
REMARK    6  A    between atoms: C7_9  and  O3_10 
REMARK    7  A    between atoms: C9_12  and  C10_13 
ROOT
HETATM    1  C3  UNL     1      25.328   0.451  53.547  1.00  0.00     0.073 A 
HETATM    2  C4  UNL     1      24.716   1.234  52.596  1.00  0.00     0.074 A 
HETATM    3  C5  UNL     1      23.384   1.180  52.296  1.00  0.00     0.086 A 
HETATM    4  C8  UNL     1      22.625   0.256  53.020  1.00  0.00     0.056 A 
HETATM    5  C9  UNL     1      21.285   0.045  52.874  1.00  0.00     0.084 A 
HETATM    6  N1  UNL     1      20.600  -0.857  53.597  1.00  0.00    -0.240 NA
HETATM    7  C16 UNL     1      21.197  -1.607  54.510  1.00  0.00     0.234 A 
HETATM    8  N2  UNL     1      22.530  -1.452  54.711  1.00  0.00    -0.241 NA
HETATM    9  C17 UNL     1      23.235  -0.542  53.985  1.00  0.00     0.076 A 
HETATM   10  C18 UNL     1      24.580  -0.459  54.260  1.00  0.00     0.069 A 
ENDROOT
BRANCH   5  11
HETATM   11  C10 UNL     1      20.562   0.837  51.886  1.00  0.00     0.005 C 
HETATM   12  C11 UNL     1      20.246   0.767  50.603  1.00  0.00    -0.012 C 
HETATM   13  C12 UNL     1      19.136   1.408  50.280  1.00  0.00     0.020 C 
HETATM   14  C13 UNL     1      19.076   2.474  51.273  1.00  0.00    -0.060 C 
HETATM   15  C14 UNL     1      18.210   3.690  51.186  1.00  0.00     0.048 C 
HETATM   16  C15 UNL     1      19.927   2.129  52.228  1.00  0.00     0.021 C 
ENDBRANCH   5  11
BRANCH   3  17
HETATM   17  O2  UNL     1      22.603   1.860  51.404  1.00  0.00    -0.348 OA
BRANCH  17  18
HETATM   18  C6  UNL     1      22.890   2.961  50.618  1.00  0.00     0.201 C 
BRANCH  18  19
HETATM   19  C7  UNL     1      22.957   2.725  49.144  1.00  0.00     0.190 C 
BRANCH  19  20
HETATM   20  O3  UNL     1      21.762   3.240  48.586  1.00  0.00    -0.399 OA
HETATM   21  H11 UNL     1      21.082   3.363  49.274  1.00  0.00     0.209 HD
ENDBRANCH  19  20
ENDBRANCH  18  19
ENDBRANCH  17  18
ENDBRANCH   3  17
BRANCH   1  22
HETATM   22  O1  UNL     1      26.711   0.652  53.714  1.00  0.00    -0.351 OA
BRANCH  22  23
HETATM   23  C2  UNL     1      27.605   0.167  52.745  1.00  0.00     0.171 C 
HETATM   24  C1  UNL     1      28.376  -1.044  53.233  1.00  0.00     0.034 C 
ENDBRANCH  22  23
ENDBRANCH   1  22
TORSDOF 7
ENDMDL
MODEL 8
REMARK VINA RESULT:      -6.2      3.114      7.117
REMARK  7 active torsions:
REMARK  status: ('A' for Active; 'I' for Inactive)
REMARK    1  A    between atoms: C2_2  and  O1_3 
REMARK    2  A    between atoms: O1_3  and  C3_4 
REMARK    3  A    between atoms: C5_6  and  O2_7 
REMARK    4  A    between atoms: O2_7  and  C6_8 
REMARK    5  A    between atoms: C6_8  and  C7_9 
REMARK    6  A    between atoms: C7_9  and  O3_10 
REMARK    7  A    between atoms: C9_12  and  C10_13 
ROOT
HETATM    1  C3  UNL     1      21.335   2.202  48.644  1.00  0.00     0.073 A 
HETATM    2  C4  UNL     1      22.591   2.656  48.975  1.00  0.00     0.074 A 
HETATM    3  C5  UNL     1      23.253   2.322  50.123  1.00  0.00     0.086 A 
HETATM    4  C8  UNL     1      22.580   1.461  50.995  1.00  0.00     0.056 A 
HETATM    5  C9  UNL     1      23.062   1.007  52.188  1.00  0.00     0.084 A 
HETATM    6  N1  UNL     1      22.373   0.178  52.991  1.00  0.00    -0.240 NA
HETATM    7  C16 UNL     1      21.165  -0.254  52.665  1.00  0.00     0.234 A 
HETATM    8  N2  UNL     1      20.622   0.155  51.491  1.00  0.00    -0.241 NA
HETATM    9  C17 UNL     1      21.308   0.995  50.669  1.00  0.00     0.076 A 
HETATM   10  C18 UNL     1      20.673   1.353  49.503  1.00  0.00     0.069 A 
ENDROOT
BRANCH   5  11
HETATM   11  C10 UNL     1      24.387   1.443  52.611  1.00  0.00     0.005 C 
HETATM   12  C11 UNL     1      24.931   2.453  53.272  1.00  0.00    -0.012 C 
HETATM   13  C12 UNL     1      26.061   2.154  53.888  1.00  0.00     0.020 C 
HETATM   14  C13 UNL     1      26.607   1.082  53.064  1.00  0.00    -0.060 C 
HETATM   15  C14 UNL     1      28.019   0.591  53.105  1.00  0.00     0.048 C 
HETATM   16  C15 UNL     1      25.606   0.662  52.305  1.00  0.00     0.021 C 
ENDBRANCH   5  11
BRANCH   3  17
HETATM   17  O2  UNL     1      24.478   2.661  50.624  1.00  0.00    -0.348 OA
BRANCH  17  18
HETATM   18  C6  UNL     1      25.338   3.684  50.270  1.00  0.00     0.201 C 
BRANCH  18  19
HETATM   19  C7  UNL     1      26.575   3.286  49.531  1.00  0.00     0.190 C 
BRANCH  19  20
HETATM   20  O3  UNL     1      27.518   4.328  49.708  1.00  0.00    -0.399 OA
HETATM   21  H11 UNL     1      27.441   4.991  48.997  1.00  0.00     0.209 HD
ENDBRANCH  19  20
ENDBRANCH  18  19
ENDBRANCH  17  18
ENDBRANCH   3  17
BRANCH   1  22
HETATM   22  O1  UNL     1      20.819   2.657  47.417  1.00  0.00    -0.351 OA
BRANCH  22  23
HETATM   23  C2  UNL     1      19.841   3.666  47.407  1.00  0.00     0.171 C 
HETATM   24  C1  UNL     1      18.613   3.265  46.614  1.00  0.00     0.034 C 
ENDBRANCH  22  23
ENDBRANCH   1  22
TORSDOF 7
ENDMDL
MODEL 9
REMARK VINA RESULT:      -6.1      3.486      5.359
REMARK  7 active torsions:
REMARK  status: ('A' for Active; 'I' for Inactive)
REMARK    1  A    between atoms: C2_2  and  O1_3 
REMARK    2  A    between atoms: O1_3  and  C3_4 
REMARK    3  A    between atoms: C5_6  and  O2_7 
REMARK    4  A    between atoms: O2_7  and  C6_8 
REMARK    5  A    between atoms: C6_8  and  C7_9 
REMARK    6  A    between atoms: C7_9  and  O3_10 
REMARK    7  A    between atoms: C9_12  and  C10_13 
ROOT
HETATM    1  C3  UNL     1      27.461   4.968  48.722  1.00  0.00     0.073 A 
HETATM    2  C4  UNL     1      27.117   3.869  49.476  1.00  0.00     0.074 A 
HETATM    3  C5  UNL     1      25.870   3.651  49.994  1.00  0.00     0.086 A 
HETATM    4  C8  UNL     1      24.909   4.628  49.720  1.00  0.00     0.056 A 
HETATM    5  C9  UNL     1      23.611   4.601  50.141  1.00  0.00     0.084 A 
HETATM    6  N1  UNL     1      22.724   5.567  49.849  1.00  0.00    -0.240 NA
HETATM    7  C16 UNL     1      23.064   6.621  49.124  1.00  0.00     0.234 A 
HETATM    8  N2  UNL     1      24.339   6.715  48.669  1.00  0.00    -0.241 NA
HETATM    9  C17 UNL     1      25.247   5.744  48.957  1.00  0.00     0.076 A 
HETATM   10  C18 UNL     1      26.513   5.929  48.453  1.00  0.00     0.069 A 
ENDROOT
BRANCH   5  11
HETATM   11  C10 UNL     1      23.168   3.469  50.945  1.00  0.00     0.005 C 
HETATM   12  C11 UNL     1      23.085   3.137  52.225  1.00  0.00    -0.012 C 
HETATM   13  C12 UNL     1      22.126   2.273  52.502  1.00  0.00     0.020 C 
HETATM   14  C13 UNL     1      21.995   1.522  51.259  1.00  0.00    -0.060 C 
HETATM   15  C14 UNL     1      21.290   0.212  51.108  1.00  0.00     0.048 C 
HETATM   16  C15 UNL     1      22.617   2.239  50.334  1.00  0.00     0.021 C 
ENDBRANCH   5  11
BRANCH   3  17
HETATM   17  O2  UNL     1      25.341   2.645  50.752  1.00  0.00    -0.348 OA
BRANCH  17  18
HETATM   18  C6  UNL     1      25.964   1.647  51.478  1.00  0.00     0.201 C 
BRANCH  18  19
HETATM   19  C7  UNL     1      26.528   2.045  52.804  1.00  0.00     0.190 C 
BRANCH  19  20
HETATM   20  O3  UNL     1      27.851   2.496  52.573  1.00  0.00    -0.399 OA
HETATM   21  H11 UNL     1      27.933   2.896  51.689  1.00  0.00     0.209 HD
ENDBRANCH  19  20
ENDBRANCH  18  19
ENDBRANCH  17  18
ENDBRANCH   3  17
BRANCH   1  22
HETATM   22  O1  UNL     1      28.795   5.016  48.277  1.00  0.00    -0.351 OA
BRANCH  22  23
HETATM   23  C2  UNL     1      29.451   6.255  48.183  1.00  0.00     0.171 C 
HETATM   24  C1  UNL     1      30.859   6.200  48.742  1.00  0.00     0.034 C 
ENDBRANCH  22  23
ENDBRANCH   1  22
TORSDOF 7
ENDMDL
