MODEL 1
REMARK VINA RESULT:      -7.5      0.000      0.000
REMARK  8 active torsions:
REMARK  status: ('A' for Active; 'I' for Inactive)
REMARK    1  A    between atoms: C7_7  and  C8_8 
REMARK    2  A    between atoms: C8_8  and  C9_9 
REMARK    3  A    between atoms: C8_8  and  N1_11 
REMARK    4  A    between atoms: C9_9  and  O1_10 
REMARK    5  A    between atoms: N1_11  and  C10_12 
REMARK    6  A    between atoms: C16_21  and  C17_22 
REMARK    7  A    between atoms: C17_22  and  N4_23 
REMARK    8  A    between atoms: N4_23  and  C18_24 
ROOT
HETATM    1  C10 UNL     1      25.718   1.736  51.666  1.00  0.00     0.133 C 
HETATM    2  C11 UNL     1      24.466   2.252  51.692  1.00  0.00     0.008 C 
HETATM    3  C12 UNL     1      24.168   3.776  51.644  1.00  0.00     0.109 C 
HETATM    4  C13 UNL     1      24.116   3.622  50.097  1.00  0.00     0.071 C 
HETATM    5  N2  UNL     1      25.122   3.966  49.361  1.00  0.00    -0.240 NA
HETATM    6  C14 UNL     1      26.403   3.189  49.777  1.00  0.00     0.236 C 
HETATM    7  N3  UNL     1      26.738   2.544  50.944  1.00  0.00    -0.224 NA
HETATM    8  S1  UNL     1      22.290   2.695  50.308  1.00  0.00    -0.143 SA
HETATM    9  C15 UNL     1      21.513   2.061  48.850  1.00  0.00     0.090 C 
HETATM   10  C16 UNL     1      23.083   1.522  51.565  1.00  0.00     0.002 C 
ENDROOT
BRANCH   1  11
HETATM   11  N1  UNL     1      25.583   0.498  52.346  1.00  0.00    -0.364 N 
HETATM   12  H12 UNL     1      25.047   0.045  51.586  1.00  0.00     0.162 HD
BRANCH  11  13
HETATM   13  C8  UNL     1      26.209   0.458  53.652  1.00  0.00     0.140 C 
BRANCH  13  14
HETATM   14  C7  UNL     1      27.629  -0.034  53.533  1.00  0.00    -0.028 A 
HETATM   15  C2  UNL     1      28.804   0.637  53.690  1.00  0.00    -0.054 A 
HETATM   16  C1  UNL     1      28.627   2.072  53.991  1.00  0.00     0.049 C 
HETATM   17  C3  UNL     1      29.989  -0.052  53.545  1.00  0.00     0.007 A 
HETATM   18  C4  UNL     1      30.023  -1.397  53.247  1.00  0.00     0.001 A 
HETATM   19  C5  UNL     1      28.840  -2.091  53.086  1.00  0.00     0.001 A 
HETATM   20  C6  UNL     1      27.657  -1.400  53.231  1.00  0.00     0.010 A 
ENDBRANCH  13  14
BRANCH  13  21
HETATM   21  C9  UNL     1      25.436  -0.518  54.508  1.00  0.00     0.194 C 
BRANCH  21  22
HETATM   22  O1  UNL     1      25.887  -0.613  55.810  1.00  0.00    -0.399 OA
HETATM   23  H11 UNL     1      25.104  -0.899  56.374  1.00  0.00     0.209 HD
ENDBRANCH  21  22
ENDBRANCH  13  21
ENDBRANCH  11  13
ENDBRANCH   1  11
BRANCH  10  24
HETATM   24  C17 UNL     1      22.782   0.334  52.218  1.00  0.00     0.168 C 
BRANCH  24  25
HETATM   25  N4  UNL     1      22.212   0.698  53.537  1.00  0.00    -0.363 N 
HETATM   26  H21 UNL     1      22.346   1.602  53.995  1.00  0.00     0.162 HD
BRANCH  25  27
HETATM   27  C18 UNL     1      21.445  -0.350  54.120  1.00  0.00     0.348 C 
HETATM   28  O2  UNL     1      21.853  -0.917  55.175  1.00  0.00    -0.284 OA
ENDBRANCH  25  27
ENDBRANCH  24  25
ENDBRANCH  10  24
TORSDOF 8
ENDMDL
MODEL 2
REMARK VINA RESULT:      -7.4      2.196      3.989
REMARK  8 active torsions:
REMARK  status: ('A' for Active; 'I' for Inactive)
REMARK    1  A    between atoms: C7_7  and  C8_8 
REMARK    2  A    between atoms: C8_8  and  C9_9 
REMARK    3  A    between atoms: C8_8  and  N1_11 
REMARK    4  A    between atoms: C9_9  and  O1_10 
REMARK    5  A    between atoms: N1_11  and  C10_12 
REMARK    6  A    between atoms: C16_21  and  C17_22 
REMARK    7  A    between atoms: C17_22  and  N4_23 
REMARK    8  A    between atoms: N4_23  and  C18_24 
ROOT
HETATM    1  C10 UNL     1      24.105   0.801  52.151  1.00  0.00     0.133 C 
HETATM    2  C11 UNL     1      23.971   1.734  51.178  1.00  0.00     0.008 C 
HETATM    3  C12 UNL     1      22.688   1.891  50.315  1.00  0.00     0.109 C 
HETATM    4  C13 UNL     1      22.196   2.893  51.399  1.00  0.00     0.071 C 
HETATM    5  N2  UNL     1      21.343   2.531  52.300  1.00  0.00    -0.240 NA
HETATM    6  C14 UNL     1      21.881   1.322  53.116  1.00  0.00     0.236 C 
HETATM    7  N3  UNL     1      22.847   0.386  52.829  1.00  0.00    -0.224 NA
HETATM    8  S1  UNL     1      23.545   4.264  50.663  1.00  0.00    -0.143 SA
HETATM    9  C15 UNL     1      23.688   5.814  51.505  1.00  0.00     0.090 C 
HETATM   10  C16 UNL     1      24.898   2.950  50.827  1.00  0.00     0.002 C 
ENDROOT
BRANCH   1  11
HETATM   11  N1  UNL     1      25.504   0.575  52.207  1.00  0.00    -0.364 N 
HETATM   12  H12 UNL     1      25.637   0.625  51.182  1.00  0.00     0.162 HD
BRANCH  11  13
HETATM   13  C8  UNL     1      26.033   0.408  53.545  1.00  0.00     0.140 C 
BRANCH  13  14
HETATM   14  C7  UNL     1      27.507   0.099  53.487  1.00  0.00    -0.028 A 
HETATM   15  C2  UNL     1      28.582   0.926  53.620  1.00  0.00    -0.054 A 
HETATM   16  C1  UNL     1      28.213   2.341  53.821  1.00  0.00     0.049 C 
HETATM   17  C3  UNL     1      29.849   0.389  53.544  1.00  0.00     0.007 A 
HETATM   18  C4  UNL     1      30.064  -0.957  53.337  1.00  0.00     0.001 A 
HETATM   19  C5  UNL     1      28.985  -1.808  53.200  1.00  0.00     0.001 A 
HETATM   20  C6  UNL     1      27.719  -1.268  53.276  1.00  0.00     0.010 A 
ENDBRANCH  13  14
BRANCH  13  21
HETATM   21  C9  UNL     1      25.325  -0.765  54.182  1.00  0.00     0.194 C 
BRANCH  21  22
HETATM   22  O1  UNL     1      25.408  -0.799  55.560  1.00  0.00    -0.399 OA
HETATM   23  H11 UNL     1      24.686  -1.420  55.885  1.00  0.00     0.209 HD
ENDBRANCH  21  22
ENDBRANCH  13  21
ENDBRANCH  11  13
ENDBRANCH   1  11
BRANCH  10  24
HETATM   24  C17 UNL     1      26.284   2.867  50.783  1.00  0.00     0.168 C 
BRANCH  24  25
HETATM   25  N4  UNL     1      26.783   4.202  50.375  1.00  0.00    -0.363 N 
HETATM   26  H21 UNL     1      26.904   4.994  51.010  1.00  0.00     0.162 HD
BRANCH  25  27
HETATM   27  C18 UNL     1      27.084   4.282  48.986  1.00  0.00     0.348 C 
HETATM   28  O2  UNL     1      28.195   4.756  48.608  1.00  0.00    -0.284 OA
ENDBRANCH  25  27
ENDBRANCH  24  25
ENDBRANCH  10  24
TORSDOF 8
ENDMDL
MODEL 3
REMARK VINA RESULT:      -7.1      2.680      5.852
REMARK  8 active torsions:
REMARK  status: ('A' for Active; 'I' for Inactive)
REMARK    1  A    between atoms: C7_7  and  C8_8 
REMARK    2  A    between atoms: C8_8  and  C9_9 
REMARK    3  A    between atoms: C8_8  and  N1_11 
REMARK    4  A    between atoms: C9_9  and  O1_10 
REMARK    5  A    between atoms: N1_11  and  C10_12 
REMARK    6  A    between atoms: C16_21  and  C17_22 
REMARK    7  A    between atoms: C17_22  and  N4_23 
REMARK    8  A    between atoms: N4_23  and  C18_24 
ROOT
HETATM    1  C10 UNL     1      26.115   2.094  52.019  1.00  0.00     0.133 C 
HETATM    2  C11 UNL     1      25.778   0.821  52.334  1.00  0.00     0.008 C 
HETATM    3  C12 UNL     1      26.742  -0.386  52.165  1.00  0.00     0.109 C 
HETATM    4  C13 UNL     1      27.200  -0.104  53.625  1.00  0.00     0.071 C 
HETATM    5  N2  UNL     1      28.302   0.528  53.865  1.00  0.00    -0.240 NA
HETATM    6  C14 UNL     1      28.294   1.929  53.191  1.00  0.00     0.236 C 
HETATM    7  N3  UNL     1      27.559   2.432  52.144  1.00  0.00    -0.224 NA
HETATM    8  S1  UNL     1      25.413  -0.893  54.277  1.00  0.00    -0.143 SA
HETATM    9  C15 UNL     1      25.079  -0.852  56.014  1.00  0.00     0.090 C 
HETATM   10  C16 UNL     1      24.516   0.283  53.095  1.00  0.00     0.002 C 
ENDROOT
BRANCH   1  11
HETATM   11  N1  UNL     1      24.872   2.702  51.707  1.00  0.00    -0.364 N 
HETATM   12  H12 UNL     1      24.482   2.585  52.658  1.00  0.00     0.162 HD
BRANCH  11  13
HETATM   13  C8  UNL     1      24.755   3.163  50.339  1.00  0.00     0.140 C 
BRANCH  13  14
HETATM   14  C7  UNL     1      25.023   4.644  50.264  1.00  0.00    -0.028 A 
HETATM   15  C2  UNL     1      26.025   5.323  49.637  1.00  0.00    -0.054 A 
HETATM   16  C1  UNL     1      26.998   4.442  48.961  1.00  0.00     0.049 C 
HETATM   17  C3  UNL     1      26.040   6.699  49.703  1.00  0.00     0.007 A 
HETATM   18  C4  UNL     1      25.074   7.411  50.382  1.00  0.00     0.001 A 
HETATM   19  C5  UNL     1      24.053   6.738  51.023  1.00  0.00     0.001 A 
HETATM   20  C6  UNL     1      24.041   5.362  50.956  1.00  0.00     0.010 A 
ENDBRANCH  13  14
BRANCH  13  21
HETATM   21  C9  UNL     1      23.336   2.912  49.883  1.00  0.00     0.194 C 
BRANCH  21  22
HETATM   22  O1  UNL     1      23.179   2.868  48.512  1.00  0.00    -0.399 OA
HETATM   23  H11 UNL     1      23.865   2.223  48.156  1.00  0.00     0.209 HD
ENDBRANCH  21  22
ENDBRANCH  13  21
ENDBRANCH  11  13
ENDBRANCH   1  11
BRANCH  10  24
HETATM   24  C17 UNL     1      23.226   0.738  52.856  1.00  0.00     0.168 C 
BRANCH  24  25
HETATM   25  N4  UNL     1      22.314  -0.409  53.080  1.00  0.00    -0.363 N 
HETATM   26  H21 UNL     1      22.164  -1.168  52.412  1.00  0.00     0.162 HD
BRANCH  25  27
HETATM   27  C18 UNL     1      21.652  -0.355  54.339  1.00  0.00     0.348 C 
HETATM   28  O2  UNL     1      21.675  -1.361  55.107  1.00  0.00    -0.284 OA
ENDBRANCH  25  27
ENDBRANCH  24  25
ENDBRANCH  10  24
TORSDOF 8
ENDMDL
MODEL 4
REMARK VINA RESULT:      -7.0      2.796      4.643
REMARK  8 active torsions:
REMARK  status: ('A' for Active; 'I' for Inactive)
REMARK    1  A    between atoms: C7_7  and  C8_8 
REMARK    2  A    between atoms: C8_8  and  C9_9 
REMARK    3  A    between atoms: C8_8  and  N1_11 
REMARK    4  A    between atoms: C9_9  and  O1_10 
REMARK    5  A    between atoms: N1_11  and  C10_12 
REMARK    6  A    between atoms: C16_21  and  C17_22 
REMARK    7  A    between atoms: C17_22  and  N4_23 
REMARK    8  A    between atoms: N4_23  and  C18_24 
ROOT
HETATM    1  C10 UNL     1      23.910   1.214  52.495  1.00  0.00     0.133 C 
HETATM    2  C11 UNL     1      22.986   1.486  51.542  1.00  0.00     0.008 C 
HETATM    3  C12 UNL     1      22.046   0.411  50.930  1.00  0.00     0.109 C 
HETATM    4  C13 UNL     1      21.045   0.777  52.064  1.00  0.00     0.071 C 
HETATM    5  N2  UNL     1      20.932   0.035  53.116  1.00  0.00    -0.240 NA
HETATM    6  C14 UNL     1      22.299  -0.101  53.845  1.00  0.00     0.236 C 
HETATM    7  N3  UNL     1      23.589   0.081  53.405  1.00  0.00    -0.224 NA
HETATM    8  S1  UNL     1      20.635   2.527  51.058  1.00  0.00    -0.143 SA
HETATM    9  C15 UNL     1      19.529   3.677  51.822  1.00  0.00     0.090 C 
HETATM   10  C16 UNL     1      22.495   2.873  50.997  1.00  0.00     0.002 C 
ENDROOT
BRANCH   1  11
HETATM   11  N1  UNL     1      24.901   2.209  52.295  1.00  0.00    -0.364 N 
HETATM   12  H12 UNL     1      24.377   2.948  52.796  1.00  0.00     0.162 HD
BRANCH  11  13
HETATM   13  C8  UNL     1      26.066   1.760  51.562  1.00  0.00     0.140 C 
BRANCH  13  14
HETATM   14  C7  UNL     1      27.115   1.249  52.517  1.00  0.00    -0.028 A 
HETATM   15  C2  UNL     1      27.456  -0.029  52.844  1.00  0.00    -0.054 A 
HETATM   16  C1  UNL     1      26.632  -1.048  52.163  1.00  0.00     0.049 C 
HETATM   17  C3  UNL     1      28.478  -0.237  53.744  1.00  0.00     0.007 A 
HETATM   18  C4  UNL     1      29.166   0.806  54.326  1.00  0.00     0.001 A 
HETATM   19  C5  UNL     1      28.833   2.108  54.005  1.00  0.00     0.001 A 
HETATM   20  C6  UNL     1      27.810   2.312  53.105  1.00  0.00     0.010 A 
ENDBRANCH  13  14
BRANCH  13  21
HETATM   21  C9  UNL     1      26.636   2.946  50.819  1.00  0.00     0.194 C 
BRANCH  21  22
HETATM   22  O1  UNL     1      26.490   2.880  49.448  1.00  0.00    -0.399 OA
HETATM   23  H11 UNL     1      25.670   2.327  49.264  1.00  0.00     0.209 HD
ENDBRANCH  21  22
ENDBRANCH  13  21
ENDBRANCH  11  13
ENDBRANCH   1  11
BRANCH  10  24
HETATM   24  C17 UNL     1      23.352   3.925  50.698  1.00  0.00     0.168 C 
BRANCH  24  25
HETATM   25  N4  UNL     1      23.563   3.906  49.231  1.00  0.00    -0.363 N 
HETATM   26  H21 UNL     1      23.442   3.081  48.640  1.00  0.00     0.162 HD
BRANCH  25  27
HETATM   27  C18 UNL     1      23.960   5.170  48.710  1.00  0.00     0.348 C 
HETATM   28  O2  UNL     1      25.171   5.530  48.785  1.00  0.00    -0.284 OA
ENDBRANCH  25  27
ENDBRANCH  24  25
ENDBRANCH  10  24
TORSDOF 8
ENDMDL
MODEL 5
REMARK VINA RESULT:      -6.9      2.378      4.351
REMARK  8 active torsions:
REMARK  status: ('A' for Active; 'I' for Inactive)
REMARK    1  A    between atoms: C7_7  and  C8_8 
REMARK    2  A    between atoms: C8_8  and  C9_9 
REMARK    3  A    between atoms: C8_8  and  N1_11 
REMARK    4  A    between atoms: C9_9  and  O1_10 
REMARK    5  A    between atoms: N1_11  and  C10_12 
REMARK    6  A    between atoms: C16_21  and  C17_22 
REMARK    7  A    between atoms: C17_22  and  N4_23 
REMARK    8  A    between atoms: N4_23  and  C18_24 
ROOT
HETATM    1  C10 UNL     1      24.626   0.054  53.790  1.00  0.00     0.133 C 
HETATM    2  C11 UNL     1      23.589  -0.136  52.939  1.00  0.00     0.008 C 
HETATM    3  C12 UNL     1      22.917  -1.517  52.705  1.00  0.00     0.109 C 
HETATM    4  C13 UNL     1      21.950  -1.137  53.863  1.00  0.00     0.071 C 
HETATM    5  N2  UNL     1      22.121  -1.610  55.054  1.00  0.00    -0.240 NA
HETATM    6  C14 UNL     1      23.530  -1.240  55.599  1.00  0.00     0.236 C 
HETATM    7  N3  UNL     1      24.687  -0.870  54.955  1.00  0.00    -0.224 NA
HETATM    8  S1  UNL     1      21.016   0.173  52.578  1.00  0.00    -0.143 SA
HETATM    9  C15 UNL     1      19.713   1.179  53.228  1.00  0.00     0.090 C 
HETATM   10  C16 UNL     1      22.710   0.923  52.187  1.00  0.00     0.002 C 
ENDROOT
BRANCH   1  11
HETATM   11  N1  UNL     1      25.302   1.178  53.248  1.00  0.00    -0.364 N 
HETATM   12  H12 UNL     1      24.825   1.863  53.859  1.00  0.00     0.162 HD
BRANCH  11  13
HETATM   13  C8  UNL     1      26.254   0.860  52.204  1.00  0.00     0.140 C 
BRANCH  13  14
HETATM   14  C7  UNL     1      27.441   0.136  52.786  1.00  0.00    -0.028 A 
HETATM   15  C2  UNL     1      27.751  -1.191  52.774  1.00  0.00    -0.054 A 
HETATM   16  C1  UNL     1      26.732  -2.026  52.107  1.00  0.00     0.049 C 
HETATM   17  C3  UNL     1      28.922  -1.607  53.369  1.00  0.00     0.007 A 
HETATM   18  C4  UNL     1      29.790  -0.725  53.975  1.00  0.00     0.001 A 
HETATM   19  C5  UNL     1      29.491   0.623  53.996  1.00  0.00     0.001 A 
HETATM   20  C6  UNL     1      28.319   1.037  53.401  1.00  0.00     0.010 A 
ENDBRANCH  13  14
BRANCH  13  21
HETATM   21  C9  UNL     1      26.737   2.161  51.603  1.00  0.00     0.194 C 
BRANCH  21  22
HETATM   22  O1  UNL     1      26.561   2.255  50.237  1.00  0.00    -0.399 OA
HETATM   23  H11 UNL     1      26.398   3.226  50.026  1.00  0.00     0.209 HD
ENDBRANCH  21  22
ENDBRANCH  13  21
ENDBRANCH  11  13
ENDBRANCH   1  11
BRANCH  10  24
HETATM   24  C17 UNL     1      23.234   2.044  51.556  1.00  0.00     0.168 C 
BRANCH  24  25
HETATM   25  N4  UNL     1      22.531   3.223  52.115  1.00  0.00    -0.363 N 
HETATM   26  H21 UNL     1      21.515   3.330  52.145  1.00  0.00     0.162 HD
BRANCH  25  27
HETATM   27  C18 UNL     1      23.420   4.214  52.618  1.00  0.00     0.348 C 
HETATM   28  O2  UNL     1      24.249   3.915  53.527  1.00  0.00    -0.284 OA
ENDBRANCH  25  27
ENDBRANCH  24  25
ENDBRANCH  10  24
TORSDOF 8
ENDMDL
MODEL 6
REMARK VINA RESULT:      -6.8      2.250      3.117
REMARK  8 active torsions:
REMARK  status: ('A' for Active; 'I' for Inactive)
REMARK    1  A    between atoms: C7_7  and  C8_8 
REMARK    2  A    between atoms: C8_8  and  C9_9 
REMARK    3  A    between atoms: C8_8  and  N1_11 
REMARK    4  A    between atoms: C9_9  and  O1_10 
REMARK    5  A    between atoms: N1_11  and  C10_12 
REMARK    6  A    between atoms: C16_21  and  C17_22 
REMARK    7  A    between atoms: C17_22  and  N4_23 
REMARK    8  A    between atoms: N4_23  and  C18_24 
ROOT
HETATM    1  C10 UNL     1      23.959   2.758  51.476  1.00  0.00     0.133 C 
HETATM    2  C11 UNL     1      22.793   2.633  52.154  1.00  0.00     0.008 C 
HETATM    3  C12 UNL     1      21.720   3.755  52.224  1.00  0.00     0.109 C 
HETATM    4  C13 UNL     1      21.097   3.109  50.953  1.00  0.00     0.071 C 
HETATM    5  N2  UNL     1      21.306   3.613  49.781  1.00  0.00    -0.240 NA
HETATM    6  C14 UNL     1      22.828   3.675  49.469  1.00  0.00     0.236 C 
HETATM    7  N3  UNL     1      23.928   3.660  50.293  1.00  0.00    -0.224 NA
HETATM    8  S1  UNL     1      20.397   1.581  52.142  1.00  0.00    -0.143 SA
HETATM    9  C15 UNL     1      19.559   0.238  51.351  1.00  0.00     0.090 C 
HETATM   10  C16 UNL     1      22.153   1.361  52.813  1.00  0.00     0.002 C 
ENDROOT
BRANCH   1  11
HETATM   11  N1  UNL     1      24.839   1.881  52.161  1.00  0.00    -0.364 N 
HETATM   12  H12 UNL     1      24.197   1.726  52.958  1.00  0.00     0.162 HD
BRANCH  11  13
HETATM   13  C8  UNL     1      26.094   1.637  51.481  1.00  0.00     0.140 C 
BRANCH  13  14
HETATM   14  C7  UNL     1      27.129   1.145  52.460  1.00  0.00    -0.028 A 
HETATM   15  C2  UNL     1      27.434  -0.125  52.850  1.00  0.00    -0.054 A 
HETATM   16  C1  UNL     1      26.582  -1.153  52.220  1.00  0.00     0.049 C 
HETATM   17  C3  UNL     1      28.451  -0.316  53.760  1.00  0.00     0.007 A 
HETATM   18  C4  UNL     1      29.169   0.735  54.289  1.00  0.00     0.001 A 
HETATM   19  C5  UNL     1      28.872   2.027  53.905  1.00  0.00     0.001 A 
HETATM   20  C6  UNL     1      27.854   2.216  52.995  1.00  0.00     0.010 A 
ENDBRANCH  13  14
BRANCH  13  21
HETATM   21  C9  UNL     1      26.572   2.947  50.900  1.00  0.00     0.194 C 
BRANCH  21  22
HETATM   22  O1  UNL     1      26.858   2.900  49.551  1.00  0.00    -0.399 OA
HETATM   23  H11 UNL     1      27.647   3.506  49.394  1.00  0.00     0.209 HD
ENDBRANCH  21  22
ENDBRANCH  13  21
ENDBRANCH  11  13
ENDBRANCH   1  11
BRANCH  10  24
HETATM   24  C17 UNL     1      22.876   0.443  53.564  1.00  0.00     0.168 C 
BRANCH  24  25
HETATM   25  N4  UNL     1      22.355  -0.902  53.220  1.00  0.00    -0.363 N 
HETATM   26  H21 UNL     1      22.482  -1.357  52.314  1.00  0.00     0.162 HD
BRANCH  25  27
HETATM   27  C18 UNL     1      21.646  -1.514  54.292  1.00  0.00     0.348 C 
HETATM   28  O2  UNL     1      22.241  -1.761  55.381  1.00  0.00    -0.284 OA
ENDBRANCH  25  27
ENDBRANCH  24  25
ENDBRANCH  10  24
TORSDOF 8
ENDMDL
MODEL 7
REMARK VINA RESULT:      -6.7      3.791      5.613
REMARK  8 active torsions:
REMARK  status: ('A' for Active; 'I' for Inactive)
REMARK    1  A    between atoms: C7_7  and  C8_8 
REMARK    2  A    between atoms: C8_8  and  C9_9 
REMARK    3  A    between atoms: C8_8  and  N1_11 
REMARK    4  A    between atoms: C9_9  and  O1_10 
REMARK    5  A    between atoms: N1_11  and  C10_12 
REMARK    6  A    between atoms: C16_21  and  C17_22 
REMARK    7  A    between atoms: C17_22  and  N4_23 
REMARK    8  A    between atoms: N4_23  and  C18_24 
ROOT
HETATM    1  C10 UNL     1      24.870   5.634  50.466  1.00  0.00     0.133 C 
HETATM    2  C11 UNL     1      23.899   6.540  50.730  1.00  0.00     0.008 C 
HETATM    3  C12 UNL     1      24.128   8.076  50.691  1.00  0.00     0.109 C 
HETATM    4  C13 UNL     1      23.711   8.006  49.194  1.00  0.00     0.071 C 
HETATM    5  N2  UNL     1      24.599   8.018  48.255  1.00  0.00    -0.240 NA
HETATM    6  C14 UNL     1      25.601   6.841  48.426  1.00  0.00     0.236 C 
HETATM    7  N3  UNL     1      25.931   6.078  49.522  1.00  0.00    -0.224 NA
HETATM    8  S1  UNL     1      21.764   7.740  49.809  1.00  0.00    -0.143 SA
HETATM    9  C15 UNL     1      20.537   7.459  48.564  1.00  0.00     0.090 C 
HETATM   10  C16 UNL     1      22.356   6.324  50.916  1.00  0.00     0.002 C 
ENDROOT
BRANCH   1  11
HETATM   11  N1  UNL     1      24.469   4.490  51.202  1.00  0.00    -0.364 N 
HETATM   12  H12 UNL     1      24.066   5.033  51.985  1.00  0.00     0.162 HD
BRANCH  11  13
HETATM   13  C8  UNL     1      24.776   3.226  50.564  1.00  0.00     0.140 C 
BRANCH  13  14
HETATM   14  C7  UNL     1      23.620   2.272  50.717  1.00  0.00    -0.028 A 
HETATM   15  C2  UNL     1      22.647   1.924  49.828  1.00  0.00    -0.054 A 
HETATM   16  C1  UNL     1      22.751   2.631  48.536  1.00  0.00     0.049 C 
HETATM   17  C3  UNL     1      21.697   1.001  50.208  1.00  0.00     0.007 A 
HETATM   18  C4  UNL     1      21.699   0.419  51.458  1.00  0.00     0.001 A 
HETATM   19  C5  UNL     1      22.678   0.760  52.369  1.00  0.00     0.001 A 
HETATM   20  C6  UNL     1      23.626   1.684  51.987  1.00  0.00     0.010 A 
ENDBRANCH  13  14
BRANCH  13  21
HETATM   21  C9  UNL     1      25.979   2.633  51.261  1.00  0.00     0.194 C 
BRANCH  21  22
HETATM   22  O1  UNL     1      27.157   3.320  51.045  1.00  0.00    -0.399 OA
HETATM   23  H11 UNL     1      26.919   4.172  50.566  1.00  0.00     0.209 HD
ENDBRANCH  21  22
ENDBRANCH  13  21
ENDBRANCH  11  13
ENDBRANCH   1  11
BRANCH  10  24
HETATM   24  C17 UNL     1      21.813   5.282  51.659  1.00  0.00     0.168 C 
BRANCH  24  25
HETATM   25  N4  UNL     1      20.719   4.698  50.847  1.00  0.00    -0.363 N 
HETATM   26  H21 UNL     1      20.569   4.890  49.855  1.00  0.00     0.162 HD
BRANCH  25  27
HETATM   27  C18 UNL     1      19.878   3.827  51.595  1.00  0.00     0.348 C 
HETATM   28  O2  UNL     1      20.256   3.401  52.725  1.00  0.00    -0.284 OA
ENDBRANCH  25  27
ENDBRANCH  24  25
ENDBRANCH  10  24
TORSDOF 8
ENDMDL
MODEL 8
REMARK VINA RESULT:      -6.6      7.881      9.690
REMARK  8 active torsions:
REMARK  status: ('A' for Active; 'I' for Inactive)
REMARK    1  A    between atoms: C7_7  and  C8_8 
REMARK    2  A    between atoms: C8_8  and  C9_9 
REMARK    3  A    between atoms: C8_8  and  N1_11 
REMARK    4  A    between atoms: C9_9  and  O1_10 
REMARK    5  A    between atoms: N1_11  and  C10_12 
REMARK    6  A    between atoms: C16_21  and  C17_22 
REMARK    7  A    between atoms: C17_22  and  N4_23 
REMARK    8  A    between atoms: N4_23  and  C18_24 
ROOT
HETATM    1  C10 UNL     1      31.927   8.342  47.937  1.00  0.00     0.133 C 
HETATM    2  C11 UNL     1      30.726   8.850  48.303  1.00  0.00     0.008 C 
HETATM    3  C12 UNL     1      30.567  10.155  49.131  1.00  0.00     0.109 C 
HETATM    4  C13 UNL     1      30.511  10.901  47.766  1.00  0.00     0.071 C 
HETATM    5  N2  UNL     1      31.548  11.519  47.305  1.00  0.00    -0.240 NA
HETATM    6  C14 UNL     1      32.752  10.546  47.157  1.00  0.00     0.236 C 
HETATM    7  N3  UNL     1      33.020   9.333  47.747  1.00  0.00    -0.224 NA
HETATM    8  S1  UNL     1      28.608  10.161  47.504  1.00  0.00    -0.143 SA
HETATM    9  C15 UNL     1      27.787  10.519  45.977  1.00  0.00     0.090 C 
HETATM   10  C16 UNL     1      29.284   8.428  47.851  1.00  0.00     0.002 C 
ENDROOT
BRANCH   1  11
HETATM   11  N1  UNL     1      31.677   6.951  47.812  1.00  0.00    -0.364 N 
HETATM   12  H12 UNL     1      31.052   7.052  46.994  1.00  0.00     0.162 HD
BRANCH  11  13
HETATM   13  C8  UNL     1      32.359   6.128  48.790  1.00  0.00     0.140 C 
BRANCH  13  14
HETATM   14  C7  UNL     1      33.079   4.995  48.104  1.00  0.00    -0.028 A 
HETATM   15  C2  UNL     1      34.392   4.634  48.154  1.00  0.00    -0.054 A 
HETATM   16  C1  UNL     1      35.216   5.527  48.993  1.00  0.00     0.049 C 
HETATM   17  C3  UNL     1      34.807   3.531  47.440  1.00  0.00     0.007 A 
HETATM   18  C4  UNL     1      33.938   2.782  46.677  1.00  0.00     0.001 A 
HETATM   19  C5  UNL     1      32.604   3.134  46.616  1.00  0.00     0.001 A 
HETATM   20  C6  UNL     1      32.192   4.238  47.331  1.00  0.00     0.010 A 
ENDBRANCH  13  14
BRANCH  13  21
HETATM   21  C9  UNL     1      31.315   5.539  49.712  1.00  0.00     0.194 C 
BRANCH  21  22
HETATM   22  O1  UNL     1      31.698   5.477  51.037  1.00  0.00    -0.399 OA
HETATM   23  H11 UNL     1      30.945   5.864  51.581  1.00  0.00     0.209 HD
ENDBRANCH  21  22
ENDBRANCH  13  21
ENDBRANCH  11  13
ENDBRANCH   1  11
BRANCH  10  24
HETATM   24  C17 UNL     1      28.874   7.105  47.740  1.00  0.00     0.168 C 
BRANCH  24  25
HETATM   25  N4  UNL     1      27.899   6.863  48.830  1.00  0.00    -0.363 N 
HETATM   26  H21 UNL     1      27.674   7.536  49.565  1.00  0.00     0.162 HD
BRANCH  25  27
HETATM   27  C18 UNL     1      27.293   5.577  48.758  1.00  0.00     0.348 C 
HETATM   28  O2  UNL     1      28.014   4.548  48.606  1.00  0.00    -0.284 OA
ENDBRANCH  25  27
ENDBRANCH  24  25
ENDBRANCH  10  24
TORSDOF 8
ENDMDL
MODEL 9
REMARK VINA RESULT:      -6.5      3.316      5.548
REMARK  8 active torsions:
REMARK  status: ('A' for Active; 'I' for Inactive)
REMARK    1  A    between atoms: C7_7  and  C8_8 
REMARK    2  A    between atoms: C8_8  and  C9_9 
REMARK    3  A    between atoms: C8_8  and  N1_11 
REMARK    4  A    between atoms: C9_9  and  O1_10 
REMARK    5  A    between atoms: N1_11  and  C10_12 
REMARK    6  A    between atoms: C16_21  and  C17_22 
REMARK    7  A    between atoms: C17_22  and  N4_23 
REMARK    8  A    between atoms: N4_23  and  C18_24 
ROOT
HETATM    1  C10 UNL     1      22.406   2.390  50.405  1.00  0.00     0.133 C 
HETATM    2  C11 UNL     1      22.580   3.634  49.897  1.00  0.00     0.008 C 
HETATM    3  C12 UNL     1      23.016   3.905  48.431  1.00  0.00     0.109 C 
HETATM    4  C13 UNL     1      21.499   3.933  48.085  1.00  0.00     0.071 C 
HETATM    5  N2  UNL     1      20.922   2.909  47.547  1.00  0.00    -0.240 NA
HETATM    6  C14 UNL     1      21.085   1.648  48.442  1.00  0.00     0.236 C 
HETATM    7  N3  UNL     1      21.990   1.344  49.432  1.00  0.00    -0.224 NA
HETATM    8  S1  UNL     1      21.385   5.777  48.991  1.00  0.00    -0.143 SA
HETATM    9  C15 UNL     1      19.792   6.539  49.112  1.00  0.00     0.090 C 
HETATM   10  C16 UNL     1      22.212   5.026  50.519  1.00  0.00     0.002 C 
ENDROOT
BRANCH   1  11
HETATM   11  N1  UNL     1      22.655   2.557  51.792  1.00  0.00    -0.364 N 
HETATM   12  H12 UNL     1      21.947   3.301  51.914  1.00  0.00     0.162 HD
BRANCH  11  13
HETATM   13  C8  UNL     1      23.679   1.684  52.328  1.00  0.00     0.140 C 
BRANCH  13  14
HETATM   14  C7  UNL     1      23.058   0.648  53.229  1.00  0.00    -0.028 A 
HETATM   15  C2  UNL     1      23.604  -0.469  53.787  1.00  0.00    -0.054 A 
HETATM   16  C1  UNL     1      25.014  -0.686  53.407  1.00  0.00     0.049 C 
HETATM   17  C3  UNL     1      22.821  -1.258  54.601  1.00  0.00     0.007 A 
HETATM   18  C4  UNL     1      21.504  -0.954  54.870  1.00  0.00     0.001 A 
HETATM   19  C5  UNL     1      20.935   0.174  54.313  1.00  0.00     0.001 A 
HETATM   20  C6  UNL     1      21.721   0.961  53.498  1.00  0.00     0.010 A 
ENDBRANCH  13  14
BRANCH  13  21
HETATM   21  C9  UNL     1      24.624   2.527  53.153  1.00  0.00     0.194 C 
BRANCH  21  22
HETATM   22  O1  UNL     1      25.502   3.290  52.409  1.00  0.00    -0.399 OA
HETATM   23  H11 UNL     1      25.224   3.204  51.445  1.00  0.00     0.209 HD
ENDBRANCH  21  22
ENDBRANCH  13  21
ENDBRANCH  11  13
ENDBRANCH   1  11
BRANCH  10  24
HETATM   24  C17 UNL     1      22.450   5.358  51.847  1.00  0.00     0.168 C 
BRANCH  24  25
HETATM   25  N4  UNL     1      23.871   5.770  51.941  1.00  0.00    -0.363 N 
HETATM   26  H21 UNL     1      24.541   5.389  52.612  1.00  0.00     0.162 HD
BRANCH  25  27
HETATM   27  C18 UNL     1      24.224   6.768  50.989  1.00  0.00     0.348 C 
HETATM   28  O2  UNL     1      23.809   7.955  51.137  1.00  0.00    -0.284 OA
ENDBRANCH  25  27
ENDBRANCH  24  25
ENDBRANCH  10  24
TORSDOF 8
ENDMDL
