MODEL 1
REMARK VINA RESULT:      -7.9      0.000      0.000
REMARK  5 active torsions:
REMARK  status: ('A' for Active; 'I' for Inactive)
REMARK    1  A    between atoms: C3_5  and  C4_6 
REMARK    2  A    between atoms: C11_14  and  C12_15 
REMARK    3  A    between atoms: C12_15  and  N3_16 
REMARK    4  A    between atoms: C14_19  and  C15_20 
REMARK    5  A    between atoms: C15_20  and  N5_21 
ROOT
HETATM    1  N1  UNL     1      26.752   2.957  50.608  1.00  0.00    -0.195 NA
HETATM    2  C1  UNL     1      26.351   2.589  51.633  1.00  0.00     0.091 C 
HETATM    3  C2  UNL     1      25.850   2.140  52.952  1.00  0.00     0.248 A 
HETATM    4  N2  UNL     1      24.476   1.781  52.750  1.00  0.00    -0.265 NA
HETATM    5  C3  UNL     1      24.067   0.575  52.874  1.00  0.00     0.064 A 
HETATM    6  C10 UNL     1      24.843  -0.607  53.224  1.00  0.00     0.041 A 
HETATM    7  C11 UNL     1      26.140  -0.454  53.452  1.00  0.00    -0.025 A 
HETATM    8  C13 UNL     1      26.607   0.921  53.316  1.00  0.00    -0.014 A 
HETATM    9  C14 UNL     1      27.918   1.106  53.559  1.00  0.00     0.013 C 
ENDROOT
BRANCH   5  10
HETATM   10  C4  UNL     1      22.638   0.421  52.627  1.00  0.00    -0.006 A 
HETATM   11  C5  UNL     1      21.770  -0.205  53.498  1.00  0.00     0.014 A 
HETATM   12  C6  UNL     1      20.416  -0.367  53.293  1.00  0.00     0.002 A 
HETATM   13  C7  UNL     1      19.859   0.124  52.139  1.00  0.00     0.019 A 
HETATM   14  C8  UNL     1      20.650   0.764  51.210  1.00  0.00     0.011 A 
HETATM   15 BR1  UNL     1      19.905   1.456  49.599  1.00  0.00    -0.051 Br
HETATM   16  C9  UNL     1      21.986   0.879  51.497  1.00  0.00     0.032 A 
ENDBRANCH   5  10
BRANCH   7  17
HETATM   17  C12 UNL     1      26.997  -1.583  53.810  1.00  0.00     0.212 C 
BRANCH  17  18
HETATM   18  N3  UNL     1      27.351  -2.446  52.731  1.00  0.00    -0.196 NA
HETATM   19  N4  UNL     1      28.301  -3.232  52.883  1.00  0.00    -0.208 NA
HETATM   20  H9  UNL     1      28.607  -3.875  52.155  1.00  0.00     0.211 HD
ENDBRANCH  17  18
ENDBRANCH   7  17
BRANCH   9  21
HETATM   21  C15 UNL     1      28.725   2.351  53.518  1.00  0.00     0.294 C 
BRANCH  21  22
HETATM   22  N5  UNL     1      29.749   2.332  54.576  1.00  0.00     0.081 N 
HETATM   23  H13 UNL     1      30.334   1.486  54.370  1.00  0.00     0.313 HD
HETATM   24  H14 UNL     1      29.292   2.219  55.512  1.00  0.00     0.313 HD
ENDBRANCH  21  22
ENDBRANCH   9  21
TORSDOF 5
ENDMDL
MODEL 2
REMARK VINA RESULT:      -7.6      2.121      4.027
REMARK  5 active torsions:
REMARK  status: ('A' for Active; 'I' for Inactive)
REMARK    1  A    between atoms: C3_5  and  C4_6 
REMARK    2  A    between atoms: C11_14  and  C12_15 
REMARK    3  A    between atoms: C12_15  and  N3_16 
REMARK    4  A    between atoms: C14_19  and  C15_20 
REMARK    5  A    between atoms: C15_20  and  N5_21 
ROOT
HETATM    1  N1  UNL     1      25.114  -1.098  55.992  1.00  0.00    -0.195 NA
HETATM    2  C1  UNL     1      24.886  -0.868  54.877  1.00  0.00     0.091 C 
HETATM    3  C2  UNL     1      24.615  -0.591  53.448  1.00  0.00     0.248 A 
HETATM    4  N2  UNL     1      23.199  -0.745  53.278  1.00  0.00    -0.265 NA
HETATM    5  C3  UNL     1      22.443   0.241  52.977  1.00  0.00     0.064 A 
HETATM    6  C10 UNL     1      22.822   1.630  52.752  1.00  0.00     0.041 A 
HETATM    7  C11 UNL     1      24.103   1.950  52.864  1.00  0.00    -0.025 A 
HETATM    8  C13 UNL     1      24.967   0.826  53.203  1.00  0.00    -0.014 A 
HETATM    9  C14 UNL     1      26.277   1.122  53.306  1.00  0.00     0.013 C 
ENDROOT
BRANCH   5  10
HETATM   10  C4  UNL     1      21.037  -0.126  52.850  1.00  0.00    -0.006 A 
HETATM   11  C5  UNL     1      20.375  -0.952  53.735  1.00  0.00     0.014 A 
HETATM   12  C6  UNL     1      19.049  -1.318  53.642  1.00  0.00     0.002 A 
HETATM   13  C7  UNL     1      18.302  -0.836  52.597  1.00  0.00     0.019 A 
HETATM   14  C8  UNL     1      18.880  -0.003  51.663  1.00  0.00     0.011 A 
HETATM   15 BR1  UNL     1      17.868   0.681  50.201  1.00  0.00    -0.051 Br
HETATM   16  C9  UNL     1      20.204   0.307  51.834  1.00  0.00     0.032 A 
ENDBRANCH   5  10
BRANCH   7  17
HETATM   17  C12 UNL     1      24.575   3.318  52.655  1.00  0.00     0.212 C 
BRANCH  17  18
HETATM   18  N3  UNL     1      23.577   4.331  52.767  1.00  0.00    -0.196 NA
HETATM   19  N4  UNL     1      23.828   5.343  53.443  1.00  0.00    -0.208 NA
HETATM   20  H9  UNL     1      23.162   6.104  53.565  1.00  0.00     0.211 HD
ENDBRANCH  17  18
ENDBRANCH   7  17
BRANCH   9  21
HETATM   21  C15 UNL     1      27.427   0.242  53.629  1.00  0.00     0.294 C 
BRANCH  21  22
HETATM   22  N5  UNL     1      27.963   0.569  54.961  1.00  0.00     0.081 N 
HETATM   23  H13 UNL     1      27.260   0.186  55.637  1.00  0.00     0.313 HD
HETATM   24  H14 UNL     1      28.024   1.609  55.074  1.00  0.00     0.313 HD
ENDBRANCH  21  22
ENDBRANCH   9  21
TORSDOF 5
ENDMDL
MODEL 3
REMARK VINA RESULT:      -7.6      3.430      6.496
REMARK  5 active torsions:
REMARK  status: ('A' for Active; 'I' for Inactive)
REMARK    1  A    between atoms: C3_5  and  C4_6 
REMARK    2  A    between atoms: C11_14  and  C12_15 
REMARK    3  A    between atoms: C12_15  and  N3_16 
REMARK    4  A    between atoms: C14_19  and  C15_20 
REMARK    5  A    between atoms: C15_20  and  N5_21 
ROOT
HETATM    1  N1  UNL     1      22.419   4.043  51.953  1.00  0.00    -0.195 NA
HETATM    2  C1  UNL     1      22.827   2.997  51.657  1.00  0.00     0.091 C 
HETATM    3  C2  UNL     1      23.338   1.666  51.258  1.00  0.00     0.248 A 
HETATM    4  N2  UNL     1      24.687   1.601  51.741  1.00  0.00    -0.265 NA
HETATM    5  C3  UNL     1      25.039   0.778  52.655  1.00  0.00     0.064 A 
HETATM    6  C10 UNL     1      24.213  -0.201  53.350  1.00  0.00     0.041 A 
HETATM    7  C11 UNL     1      22.932  -0.281  53.020  1.00  0.00    -0.025 A 
HETATM    8  C13 UNL     1      22.531   0.654  51.975  1.00  0.00    -0.014 A 
HETATM    9  C14 UNL     1      21.237   0.582  51.610  1.00  0.00     0.013 C 
ENDROOT
BRANCH   5  10
HETATM   10  C4  UNL     1      26.452   0.870  53.004  1.00  0.00    -0.006 A 
HETATM   11  C5  UNL     1      27.092   2.053  53.314  1.00  0.00     0.014 A 
HETATM   12  C6  UNL     1      28.424   2.173  53.647  1.00  0.00     0.002 A 
HETATM   13  C7  UNL     1      29.201   1.042  53.680  1.00  0.00     0.019 A 
HETATM   14  C8  UNL     1      28.647  -0.185  53.384  1.00  0.00     0.011 A 
HETATM   15 BR1  UNL     1      29.701  -1.771  53.422  1.00  0.00    -0.051 Br
HETATM   16  C9  UNL     1      27.314  -0.209  53.064  1.00  0.00     0.032 A 
ENDBRANCH   5  10
BRANCH   7  17
HETATM   17  C12 UNL     1      22.029  -1.234  53.664  1.00  0.00     0.212 C 
BRANCH  17  18
HETATM   18  N3  UNL     1      21.605  -0.880  54.979  1.00  0.00    -0.196 NA
HETATM   19  N4  UNL     1      20.793   0.050  55.113  1.00  0.00    -0.208 NA
HETATM   20  H9  UNL     1      20.448   0.355  56.022  1.00  0.00     0.211 HD
ENDBRANCH  17  18
ENDBRANCH   7  17
BRANCH   9  21
HETATM   21  C15 UNL     1      20.492   1.366  50.594  1.00  0.00     0.294 C 
BRANCH  21  22
HETATM   22  N5  UNL     1      19.543   2.282  51.249  1.00  0.00     0.081 N 
HETATM   23  H13 UNL     1      19.959   2.474  52.192  1.00  0.00     0.313 HD
HETATM   24  H14 UNL     1      18.616   1.809  51.368  1.00  0.00     0.313 HD
ENDBRANCH  21  22
ENDBRANCH   9  21
TORSDOF 5
ENDMDL
MODEL 4
REMARK VINA RESULT:      -7.6      2.464      3.686
REMARK  5 active torsions:
REMARK  status: ('A' for Active; 'I' for Inactive)
REMARK    1  A    between atoms: C3_5  and  C4_6 
REMARK    2  A    between atoms: C11_14  and  C12_15 
REMARK    3  A    between atoms: C12_15  and  N3_16 
REMARK    4  A    between atoms: C14_19  and  C15_20 
REMARK    5  A    between atoms: C15_20  and  N5_21 
ROOT
HETATM    1  N1  UNL     1      23.082   2.783  48.330  1.00  0.00    -0.195 NA
HETATM    2  C1  UNL     1      23.327   2.949  49.453  1.00  0.00     0.091 C 
HETATM    3  C2  UNL     1      23.637   3.184  50.881  1.00  0.00     0.248 A 
HETATM    4  N2  UNL     1      22.894   2.198  51.613  1.00  0.00    -0.265 NA
HETATM    5  C3  UNL     1      23.474   1.271  52.277  1.00  0.00     0.064 A 
HETATM    6  C10 UNL     1      24.903   1.032  52.430  1.00  0.00     0.041 A 
HETATM    7  C11 UNL     1      25.740   1.859  51.820  1.00  0.00    -0.025 A 
HETATM    8  C13 UNL     1      25.081   2.919  51.066  1.00  0.00    -0.014 A 
HETATM    9  C14 UNL     1      25.910   3.783  50.450  1.00  0.00     0.013 C 
ENDROOT
BRANCH   5  10
HETATM   10  C4  UNL     1      22.542   0.372  52.949  1.00  0.00    -0.006 A 
HETATM   11  C5  UNL     1      22.900  -0.485  53.968  1.00  0.00     0.014 A 
HETATM   12  C6  UNL     1      22.045  -1.346  54.622  1.00  0.00     0.002 A 
HETATM   13  C7  UNL     1      20.724  -1.373  54.250  1.00  0.00     0.019 A 
HETATM   14  C8  UNL     1      20.275  -0.550  53.240  1.00  0.00     0.011 A 
HETATM   15 BR1  UNL     1      18.447  -0.566  52.702  1.00  0.00    -0.051 Br
HETATM   16  C9  UNL     1      21.196   0.272  52.646  1.00  0.00     0.032 A 
ENDBRANCH   5  10
BRANCH   7  17
HETATM   17  C12 UNL     1      27.190   1.697  51.918  1.00  0.00     0.212 C 
BRANCH  17  18
HETATM   18  N3  UNL     1      27.779   2.191  53.119  1.00  0.00    -0.196 NA
HETATM   19  N4  UNL     1      28.803   2.889  53.037  1.00  0.00    -0.208 NA
HETATM   20  H9  UNL     1      29.275   3.275  53.854  1.00  0.00     0.211 HD
ENDBRANCH  17  18
ENDBRANCH   7  17
BRANCH   9  21
HETATM   21  C15 UNL     1      25.597   4.966  49.611  1.00  0.00     0.294 C 
BRANCH  21  22
HETATM   22  N5  UNL     1      25.660   6.197  50.417  1.00  0.00     0.081 N 
HETATM   23  H13 UNL     1      26.662   6.274  50.716  1.00  0.00     0.313 HD
HETATM   24  H14 UNL     1      25.051   6.098  51.264  1.00  0.00     0.313 HD
ENDBRANCH  21  22
ENDBRANCH   9  21
TORSDOF 5
ENDMDL
MODEL 5
REMARK VINA RESULT:      -7.5      1.859      3.721
REMARK  5 active torsions:
REMARK  status: ('A' for Active; 'I' for Inactive)
REMARK    1  A    between atoms: C3_5  and  C4_6 
REMARK    2  A    between atoms: C11_14  and  C12_15 
REMARK    3  A    between atoms: C12_15  and  N3_16 
REMARK    4  A    between atoms: C14_19  and  C15_20 
REMARK    5  A    between atoms: C15_20  and  N5_21 
ROOT
HETATM    1  N1  UNL     1      25.572  -0.786  55.707  1.00  0.00    -0.195 NA
HETATM    2  C1  UNL     1      25.380  -0.705  54.565  1.00  0.00     0.091 C 
HETATM    3  C2  UNL     1      25.144  -0.624  53.105  1.00  0.00     0.248 A 
HETATM    4  N2  UNL     1      23.818  -0.099  52.949  1.00  0.00    -0.265 NA
HETATM    5  C3  UNL     1      23.602   1.047  52.424  1.00  0.00     0.064 A 
HETATM    6  C10 UNL     1      24.578   1.997  51.905  1.00  0.00     0.041 A 
HETATM    7  C11 UNL     1      25.860   1.667  51.965  1.00  0.00    -0.025 A 
HETATM    8  C13 UNL     1      26.107   0.359  52.560  1.00  0.00    -0.014 A 
HETATM    9  C14 UNL     1      27.402  -0.008  52.617  1.00  0.00     0.013 C 
ENDROOT
BRANCH   5  10
HETATM   10  C4  UNL     1      22.188   1.396  52.357  1.00  0.00    -0.006 A 
HETATM   11  C5  UNL     1      21.720   2.678  52.153  1.00  0.00     0.014 A 
HETATM   12  C6  UNL     1      20.392   3.038  52.085  1.00  0.00     0.002 A 
HETATM   13  C7  UNL     1      19.435   2.066  52.229  1.00  0.00     0.019 A 
HETATM   14  C8  UNL     1      19.809   0.756  52.437  1.00  0.00     0.011 A 
HETATM   15 BR1  UNL     1      18.502  -0.617  52.640  1.00  0.00    -0.051 Br
HETATM   16  C9  UNL     1      21.152   0.489  52.490  1.00  0.00     0.032 A 
ENDBRANCH   5  10
BRANCH   7  17
HETATM   17  C12 UNL     1      26.908   2.557  51.468  1.00  0.00     0.212 C 
BRANCH  17  18
HETATM   18  N3  UNL     1      26.747   2.995  50.120  1.00  0.00    -0.196 NA
HETATM   19  N4  UNL     1      27.143   4.131  49.811  1.00  0.00    -0.208 NA
HETATM   20  H9  UNL     1      27.060   4.506  48.867  1.00  0.00     0.211 HD
ENDBRANCH  17  18
ENDBRANCH   7  17
BRANCH   9  21
HETATM   21  C15 UNL     1      28.014  -1.251  53.147  1.00  0.00     0.294 C 
BRANCH  21  22
HETATM   22  N5  UNL     1      29.046  -0.928  54.147  1.00  0.00     0.081 N 
HETATM   23  H13 UNL     1      28.837  -1.553  54.963  1.00  0.00     0.313 HD
HETATM   24  H14 UNL     1      28.953   0.072  54.443  1.00  0.00     0.313 HD
ENDBRANCH  21  22
ENDBRANCH   9  21
TORSDOF 5
ENDMDL
MODEL 6
REMARK VINA RESULT:      -7.5      2.890      5.655
REMARK  5 active torsions:
REMARK  status: ('A' for Active; 'I' for Inactive)
REMARK    1  A    between atoms: C3_5  and  C4_6 
REMARK    2  A    between atoms: C11_14  and  C12_15 
REMARK    3  A    between atoms: C12_15  and  N3_16 
REMARK    4  A    between atoms: C14_19  and  C15_20 
REMARK    5  A    between atoms: C15_20  and  N5_21 
ROOT
HETATM    1  N1  UNL     1      20.857   2.180  53.020  1.00  0.00    -0.195 NA
HETATM    2  C1  UNL     1      21.752   1.654  52.500  1.00  0.00     0.091 C 
HETATM    3  C2  UNL     1      22.877   0.965  51.827  1.00  0.00     0.248 A 
HETATM    4  N2  UNL     1      23.601   1.986  51.126  1.00  0.00    -0.265 NA
HETATM    5  C3  UNL     1      24.797   2.307  51.445  1.00  0.00     0.064 A 
HETATM    6  C10 UNL     1      25.626   1.749  52.505  1.00  0.00     0.041 A 
HETATM    7  C11 UNL     1      25.111   0.783  53.254  1.00  0.00    -0.025 A 
HETATM    8  C13 UNL     1      23.749   0.414  52.888  1.00  0.00    -0.014 A 
HETATM    9  C14 UNL     1      23.209  -0.577  53.623  1.00  0.00     0.013 C 
ENDROOT
BRANCH   5  10
HETATM   10  C4  UNL     1      25.354   3.365  50.610  1.00  0.00    -0.006 A 
HETATM   11  C5  UNL     1      26.495   3.222  49.847  1.00  0.00     0.014 A 
HETATM   12  C6  UNL     1      27.046   4.202  49.049  1.00  0.00     0.002 A 
HETATM   13  C7  UNL     1      26.433   5.428  48.989  1.00  0.00     0.019 A 
HETATM   14  C8  UNL     1      25.287   5.662  49.719  1.00  0.00     0.011 A 
HETATM   15 BR1  UNL     1      24.413   7.354  49.655  1.00  0.00    -0.051 Br
HETATM   16  C9  UNL     1      24.810   4.631  50.485  1.00  0.00     0.032 A 
ENDBRANCH   5  10
BRANCH   7  17
HETATM   17  C12 UNL     1      25.870   0.164  54.339  1.00  0.00     0.212 C 
BRANCH  17  18
HETATM   18  N3  UNL     1      26.835   1.006  54.966  1.00  0.00    -0.196 NA
HETATM   19  N4  UNL     1      28.013   0.618  55.030  1.00  0.00    -0.208 NA
HETATM   20  H9  UNL     1      28.753   1.169  55.463  1.00  0.00     0.211 HD
ENDBRANCH  17  18
ENDBRANCH   7  17
BRANCH   9  21
HETATM   21  C15 UNL     1      21.867  -1.203  53.532  1.00  0.00     0.294 C 
BRANCH  21  22
HETATM   22  N5  UNL     1      21.049  -0.833  54.700  1.00  0.00     0.081 N 
HETATM   23  H13 UNL     1      20.547  -1.713  54.968  1.00  0.00     0.313 HD
HETATM   24  H14 UNL     1      20.350  -0.103  54.427  1.00  0.00     0.313 HD
ENDBRANCH  21  22
ENDBRANCH   9  21
TORSDOF 5
ENDMDL
MODEL 7
REMARK VINA RESULT:      -7.3      4.103      6.632
REMARK  5 active torsions:
REMARK  status: ('A' for Active; 'I' for Inactive)
REMARK    1  A    between atoms: C3_5  and  C4_6 
REMARK    2  A    between atoms: C11_14  and  C12_15 
REMARK    3  A    between atoms: C12_15  and  N3_16 
REMARK    4  A    between atoms: C14_19  and  C15_20 
REMARK    5  A    between atoms: C15_20  and  N5_21 
ROOT
HETATM    1  N1  UNL     1      22.249   1.961  48.146  1.00  0.00    -0.195 NA
HETATM    2  C1  UNL     1      22.751   2.576  48.993  1.00  0.00     0.091 C 
HETATM    3  C2  UNL     1      23.369   3.373  50.077  1.00  0.00     0.248 A 
HETATM    4  N2  UNL     1      24.041   2.430  50.926  1.00  0.00    -0.265 NA
HETATM    5  C3  UNL     1      25.314   2.418  51.048  1.00  0.00     0.064 A 
HETATM    6  C10 UNL     1      26.288   3.292  50.407  1.00  0.00     0.041 A 
HETATM    7  C11 UNL     1      25.836   4.231  49.588  1.00  0.00    -0.025 A 
HETATM    8  C13 UNL     1      24.385   4.250  49.452  1.00  0.00    -0.014 A 
HETATM    9  C14 UNL     1      23.900   5.207  48.638  1.00  0.00     0.013 C 
ENDROOT
BRANCH   5  10
HETATM   10  C4  UNL     1      25.797   1.384  51.956  1.00  0.00    -0.006 A 
HETATM   11  C5  UNL     1      24.982   0.449  52.561  1.00  0.00     0.014 A 
HETATM   12  C6  UNL     1      25.408  -0.538  53.423  1.00  0.00     0.002 A 
HETATM   13  C7  UNL     1      26.745  -0.623  53.722  1.00  0.00     0.019 A 
HETATM   14  C8  UNL     1      27.634   0.269  53.163  1.00  0.00     0.011 A 
HETATM   15 BR1  UNL     1      29.496   0.176  53.559  1.00  0.00    -0.051 Br
HETATM   16  C9  UNL     1      27.122   1.218  52.318  1.00  0.00     0.032 A 
ENDBRANCH   5  10
BRANCH   7  17
HETATM   17  C12 UNL     1      26.740   5.154  48.903  1.00  0.00     0.212 C 
BRANCH  17  18
HETATM   18  N3  UNL     1      28.053   4.652  48.658  1.00  0.00    -0.196 NA
HETATM   19  N4  UNL     1      29.028   5.361  48.956  1.00  0.00    -0.208 NA
HETATM   20  H9  UNL     1      29.991   5.065  48.809  1.00  0.00     0.211 HD
ENDBRANCH  17  18
ENDBRANCH   7  17
BRANCH   9  21
HETATM   21  C15 UNL     1      22.496   5.519  48.271  1.00  0.00     0.294 C 
BRANCH  21  22
HETATM   22  N5  UNL     1      21.916   6.474  49.230  1.00  0.00     0.081 N 
HETATM   23  H13 UNL     1      22.422   6.293  50.131  1.00  0.00     0.313 HD
HETATM   24  H14 UNL     1      20.896   6.274  49.358  1.00  0.00     0.313 HD
ENDBRANCH  21  22
ENDBRANCH   9  21
TORSDOF 5
ENDMDL
MODEL 8
REMARK VINA RESULT:      -7.3      1.847      2.283
REMARK  5 active torsions:
REMARK  status: ('A' for Active; 'I' for Inactive)
REMARK    1  A    between atoms: C3_5  and  C4_6 
REMARK    2  A    between atoms: C11_14  and  C12_15 
REMARK    3  A    between atoms: C12_15  and  N3_16 
REMARK    4  A    between atoms: C14_19  and  C15_20 
REMARK    5  A    between atoms: C15_20  and  N5_21 
ROOT
HETATM    1  N1  UNL     1      26.862   2.568  50.210  1.00  0.00    -0.195 NA
HETATM    2  C1  UNL     1      26.160   2.523  51.134  1.00  0.00     0.091 C 
HETATM    3  C2  UNL     1      25.276   2.487  52.321  1.00  0.00     0.248 A 
HETATM    4  N2  UNL     1      23.961   2.197  51.824  1.00  0.00    -0.265 NA
HETATM    5  C3  UNL     1      23.357   1.106  52.107  1.00  0.00     0.064 A 
HETATM    6  C10 UNL     1      23.830   0.005  52.935  1.00  0.00     0.041 A 
HETATM    7  C11 UNL     1      25.033   0.110  53.483  1.00  0.00    -0.025 A 
HETATM    8  C13 UNL     1      25.721   1.355  53.165  1.00  0.00    -0.014 A 
HETATM    9  C14 UNL     1      26.938   1.494  53.723  1.00  0.00     0.013 C 
ENDROOT
BRANCH   5  10
HETATM   10  C4  UNL     1      22.033   1.005  51.504  1.00  0.00    -0.006 A 
HETATM   11  C5  UNL     1      21.715   1.503  50.257  1.00  0.00     0.014 A 
HETATM   12  C6  UNL     1      20.475   1.424  49.661  1.00  0.00     0.002 A 
HETATM   13  C7  UNL     1      19.455   0.806  50.339  1.00  0.00     0.019 A 
HETATM   14  C8  UNL     1      19.679   0.279  51.592  1.00  0.00     0.011 A 
HETATM   15 BR1  UNL     1      18.282  -0.586  52.557  1.00  0.00    -0.051 Br
HETATM   16  C9  UNL     1      20.943   0.403  52.107  1.00  0.00     0.032 A 
ENDBRANCH   5  10
BRANCH   7  17
HETATM   17  C12 UNL     1      25.588  -0.946  54.329  1.00  0.00     0.212 C 
BRANCH  17  18
HETATM   18  N3  UNL     1      24.770  -1.339  55.429  1.00  0.00    -0.196 NA
HETATM   19  N4  UNL     1      25.236  -1.259  56.577  1.00  0.00    -0.208 NA
HETATM   20  H9  UNL     1      24.708  -1.523  57.407  1.00  0.00     0.211 HD
ENDBRANCH  17  18
ENDBRANCH   7  17
BRANCH   9  21
HETATM   21  C15 UNL     1      27.907   2.614  53.622  1.00  0.00     0.294 C 
BRANCH  21  22
HETATM   22  N5  UNL     1      29.190   2.238  54.239  1.00  0.00     0.081 N 
HETATM   23  H13 UNL     1      28.929   1.666  55.078  1.00  0.00     0.313 HD
HETATM   24  H14 UNL     1      29.700   3.098  54.550  1.00  0.00     0.313 HD
ENDBRANCH  21  22
ENDBRANCH   9  21
TORSDOF 5
ENDMDL
MODEL 9
REMARK VINA RESULT:      -7.0      4.283      7.621
REMARK  5 active torsions:
REMARK  status: ('A' for Active; 'I' for Inactive)
REMARK    1  A    between atoms: C3_5  and  C4_6 
REMARK    2  A    between atoms: C11_14  and  C12_15 
REMARK    3  A    between atoms: C12_15  and  N3_16 
REMARK    4  A    between atoms: C14_19  and  C15_20 
REMARK    5  A    between atoms: C15_20  and  N5_21 
ROOT
HETATM    1  N1  UNL     1      19.814   3.260  51.391  1.00  0.00    -0.195 NA
HETATM    2  C1  UNL     1      19.970   2.113  51.307  1.00  0.00     0.091 C 
HETATM    3  C2  UNL     1      20.167   0.652  51.174  1.00  0.00     0.248 A 
HETATM    4  N2  UNL     1      21.296   0.330  51.999  1.00  0.00    -0.265 NA
HETATM    5  C3  UNL     1      21.184  -0.402  53.042  1.00  0.00     0.064 A 
HETATM    6  C10 UNL     1      19.982  -1.026  53.578  1.00  0.00     0.041 A 
HETATM    7  C11 UNL     1      18.841  -0.836  52.932  1.00  0.00    -0.025 A 
HETATM    8  C13 UNL     1      18.967  -0.005  51.741  1.00  0.00    -0.014 A 
HETATM    9  C14 UNL     1      17.824   0.190  51.056  1.00  0.00     0.013 C 
ENDROOT
BRANCH   5  10
HETATM   10  C4  UNL     1      22.448  -0.610  53.740  1.00  0.00    -0.006 A 
HETATM   11  C5  UNL     1      22.543  -1.080  55.034  1.00  0.00     0.014 A 
HETATM   12  C6  UNL     1      23.721  -1.286  55.720  1.00  0.00     0.002 A 
HETATM   13  C7  UNL     1      24.909  -1.010  55.092  1.00  0.00     0.019 A 
HETATM   14  C8  UNL     1      24.911  -0.536  53.798  1.00  0.00     0.011 A 
HETATM   15 BR1  UNL     1      26.545  -0.146  52.900  1.00  0.00    -0.051 Br
HETATM   16  C9  UNL     1      23.694  -0.361  53.193  1.00  0.00     0.032 A 
ENDBRANCH   5  10
BRANCH   7  17
HETATM   17  C12 UNL     1      17.586  -1.424  53.397  1.00  0.00     0.212 C 
BRANCH  17  18
HETATM   18  N3  UNL     1      17.625  -2.828  53.645  1.00  0.00    -0.196 NA
HETATM   19  N4  UNL     1      16.558  -3.463  53.648  1.00  0.00    -0.208 NA
HETATM   20  H9  UNL     1      16.513  -4.466  53.818  1.00  0.00     0.211 HD
ENDBRANCH  17  18
ENDBRANCH   7  17
BRANCH   9  21
HETATM   21  C15 UNL     1      17.582   0.966  49.815  1.00  0.00     0.294 C 
BRANCH  21  22
HETATM   22  N5  UNL     1      16.619   0.262  48.951  1.00  0.00     0.081 N 
HETATM   23  H13 UNL     1      17.124   0.118  48.044  1.00  0.00     0.313 HD
HETATM   24  H14 UNL     1      15.779   0.866  48.789  1.00  0.00     0.313 HD
ENDBRANCH  21  22
ENDBRANCH   9  21
TORSDOF 5
ENDMDL
