MODEL 1
REMARK VINA RESULT:      -6.7      0.000      0.000
REMARK  9 active torsions:
REMARK  status: ('A' for Active; 'I' for Inactive)
REMARK    1  A    between atoms: C5_5  and  C6_6 
REMARK    2  A    between atoms: C6_6  and  C7_7 
REMARK    3  A    between atoms: C7_7  and  N1_8 
REMARK    4  A    between atoms: C7_7  and  C8_9 
REMARK    5  A    between atoms: C11_12  and  N2_13 
REMARK    6  A    between atoms: N2_13  and  C12_14 
REMARK    7  A    between atoms: N2_13  and  C14_17 
REMARK    8  A    between atoms: C12_14  and  C13_15 
REMARK    9  A    between atoms: C14_17  and  C15_18 
ROOT
HETATM    1  C8  UNL     1      23.504   3.880  51.847  1.00  0.00    -0.025 A 
HETATM    2  C9  UNL     1      24.413   3.554  52.819  1.00  0.00     0.011 A 
HETATM    3  C10 UNL     1      24.462   2.264  53.288  1.00  0.00     0.030 A 
HETATM    4  C11 UNL     1      23.661   1.228  52.866  1.00  0.00     0.030 A 
HETATM    5  C16 UNL     1      22.774   1.615  51.897  1.00  0.00     0.030 A 
HETATM    6  C17 UNL     1      22.666   2.886  51.379  1.00  0.00     0.011 A 
ENDROOT
BRANCH   1   7
HETATM    7  C7  UNL     1      23.354   5.241  51.267  1.00  0.00     0.254 C 
BRANCH   7   8
HETATM    8  C6  UNL     1      23.507   5.176  49.786  1.00  0.00     0.075 C 
BRANCH   8   9
HETATM    9  C5  UNL     1      24.851   5.593  49.317  1.00  0.00    -0.068 A 
HETATM   10  C4  UNL     1      25.726   4.364  49.365  1.00  0.00     0.063 A 
HETATM   11  C3  UNL     1      27.115   4.644  48.918  1.00  0.00    -0.009 A 
HETATM   12  C2  UNL     1      27.820   5.681  48.481  1.00  0.00    -0.025 A 
HETATM   13  C1  UNL     1      29.260   5.511  48.128  1.00  0.00     0.056 C 
HETATM   14  S1  UNL     1      26.878   7.216  48.379  1.00  0.00    -0.107 SA
HETATM   15  C18 UNL     1      25.226   6.805  48.929  1.00  0.00     0.053 A 
ENDBRANCH   8   9
ENDBRANCH   7   8
BRANCH   7  16
HETATM   16  N1  UNL     1      22.059   5.760  51.646  1.00  0.00     0.087 N 
HETATM   17  H10 UNL     1      21.775   5.545  52.620  1.00  0.00     0.313 HD
HETATM   18  H11 UNL     1      22.000   6.775  51.493  1.00  0.00     0.313 HD
ENDBRANCH   7  16
ENDBRANCH   1   7
BRANCH   4  19
HETATM   19  N2  UNL     1      23.761  -0.112  53.376  1.00  0.00    -0.379 N 
BRANCH  19  20
HETATM   20  C12 UNL     1      24.970  -0.556  53.985  1.00  0.00     0.138 C 
BRANCH  20  21
HETATM   21  C13 UNL     1      25.997  -1.186  53.121  1.00  0.00     0.134 C 
HETATM   22 CL1  UNL     1      26.801  -0.173  51.951  1.00  0.00    -0.129 Cl
ENDBRANCH  20  21
ENDBRANCH  19  20
BRANCH  19  23
HETATM   23  C14 UNL     1      22.650  -1.001  53.289  1.00  0.00     0.138 C 
BRANCH  23  24
HETATM   24  C15 UNL     1      21.971  -1.170  54.637  1.00  0.00     0.134 C 
HETATM   25 CL2  UNL     1      20.848   0.224  54.810  1.00  0.00    -0.129 Cl
ENDBRANCH  23  24
ENDBRANCH  19  23
ENDBRANCH   4  19
TORSDOF 9
ENDMDL
MODEL 2
REMARK VINA RESULT:      -6.5      0.151      2.442
REMARK  9 active torsions:
REMARK  status: ('A' for Active; 'I' for Inactive)
REMARK    1  A    between atoms: C5_5  and  C6_6 
REMARK    2  A    between atoms: C6_6  and  C7_7 
REMARK    3  A    between atoms: C7_7  and  N1_8 
REMARK    4  A    between atoms: C7_7  and  C8_9 
REMARK    5  A    between atoms: C11_12  and  N2_13 
REMARK    6  A    between atoms: N2_13  and  C12_14 
REMARK    7  A    between atoms: N2_13  and  C14_17 
REMARK    8  A    between atoms: C12_14  and  C13_15 
REMARK    9  A    between atoms: C14_17  and  C15_18 
ROOT
HETATM    1  C8  UNL     1      23.518   3.823  51.801  1.00  0.00    -0.025 A 
HETATM    2  C9  UNL     1      24.407   3.590  52.818  1.00  0.00     0.011 A 
HETATM    3  C10 UNL     1      24.525   2.321  53.329  1.00  0.00     0.030 A 
HETATM    4  C11 UNL     1      23.815   1.220  52.910  1.00  0.00     0.030 A 
HETATM    5  C16 UNL     1      22.944   1.515  51.895  1.00  0.00     0.030 A 
HETATM    6  C17 UNL     1      22.770   2.760  51.332  1.00  0.00     0.011 A 
ENDROOT
BRANCH   1   7
HETATM    7  C7  UNL     1      23.299   5.152  51.172  1.00  0.00     0.254 C 
BRANCH   7   8
HETATM    8  C6  UNL     1      23.491   5.048  49.698  1.00  0.00     0.075 C 
BRANCH   8   9
HETATM    9  C5  UNL     1      24.832   5.497  49.249  1.00  0.00    -0.068 A 
HETATM   10  C4  UNL     1      25.744   4.298  49.344  1.00  0.00     0.063 A 
HETATM   11  C3  UNL     1      27.133   4.612  48.922  1.00  0.00    -0.009 A 
HETATM   12  C2  UNL     1      27.816   5.660  48.478  1.00  0.00    -0.025 A 
HETATM   13  C1  UNL     1      29.268   5.527  48.160  1.00  0.00     0.056 C 
HETATM   14  S1  UNL     1      26.830   7.162  48.320  1.00  0.00    -0.107 SA
HETATM   15  C18 UNL     1      25.179   6.712  48.843  1.00  0.00     0.053 A 
ENDBRANCH   8   9
ENDBRANCH   7   8
BRANCH   7  16
HETATM   16  N1  UNL     1      21.965   5.602  51.504  1.00  0.00     0.087 N 
HETATM   17  H10 UNL     1      21.694   5.457  52.494  1.00  0.00     0.313 HD
HETATM   18  H11 UNL     1      21.828   6.591  51.256  1.00  0.00     0.313 HD
ENDBRANCH   7  16
ENDBRANCH   1   7
BRANCH   4  19
HETATM   19  N2  UNL     1      23.986  -0.094  53.467  1.00  0.00    -0.379 N 
BRANCH  19  20
HETATM   20  C12 UNL     1      22.916  -1.033  53.425  1.00  0.00     0.138 C 
BRANCH  20  21
HETATM   21  C13 UNL     1      22.005  -1.106  54.593  1.00  0.00     0.134 C 
HETATM   22 CL1  UNL     1      20.901   0.222  54.840  1.00  0.00    -0.129 Cl
ENDBRANCH  20  21
ENDBRANCH  19  20
BRANCH  19  23
HETATM   23  C14 UNL     1      25.231  -0.473  54.049  1.00  0.00     0.138 C 
BRANCH  23  24
HETATM   24  C15 UNL     1      26.084  -1.261  53.069  1.00  0.00     0.134 C 
HETATM   25 CL2  UNL     1      26.812  -0.052  51.955  1.00  0.00    -0.129 Cl
ENDBRANCH  23  24
ENDBRANCH  19  23
ENDBRANCH   4  19
TORSDOF 9
ENDMDL
MODEL 3
REMARK VINA RESULT:      -6.5      2.558      3.174
REMARK  9 active torsions:
REMARK  status: ('A' for Active; 'I' for Inactive)
REMARK    1  A    between atoms: C5_5  and  C6_6 
REMARK    2  A    between atoms: C6_6  and  C7_7 
REMARK    3  A    between atoms: C7_7  and  N1_8 
REMARK    4  A    between atoms: C7_7  and  C8_9 
REMARK    5  A    between atoms: C11_12  and  N2_13 
REMARK    6  A    between atoms: N2_13  and  C12_14 
REMARK    7  A    between atoms: N2_13  and  C14_17 
REMARK    8  A    between atoms: C12_14  and  C13_15 
REMARK    9  A    between atoms: C14_17  and  C15_18 
ROOT
HETATM    1  C8  UNL     1      23.223   2.904  52.495  1.00  0.00    -0.025 A 
HETATM    2  C9  UNL     1      24.287   3.334  53.245  1.00  0.00     0.011 A 
HETATM    3  C10 UNL     1      25.326   2.472  53.494  1.00  0.00     0.030 A 
HETATM    4  C11 UNL     1      25.412   1.172  53.052  1.00  0.00     0.030 A 
HETATM    5  C16 UNL     1      24.322   0.799  52.311  1.00  0.00     0.030 A 
HETATM    6  C17 UNL     1      23.244   1.606  52.019  1.00  0.00     0.011 A 
ENDROOT
BRANCH   1   7
HETATM    7  C7  UNL     1      22.041   3.742  52.164  1.00  0.00     0.254 C 
BRANCH   7   8
HETATM    8  C6  UNL     1      22.099   4.149  50.731  1.00  0.00     0.075 C 
BRANCH   8   9
HETATM    9  C5  UNL     1      23.291   4.968  50.403  1.00  0.00    -0.068 A 
HETATM   10  C4  UNL     1      24.127   4.151  49.447  1.00  0.00     0.063 A 
HETATM   11  C3  UNL     1      25.366   4.859  49.035  1.00  0.00    -0.009 A 
HETATM   12  C2  UNL     1      25.960   6.024  49.268  1.00  0.00    -0.025 A 
HETATM   13  C1  UNL     1      27.263   6.343  48.614  1.00  0.00     0.056 C 
HETATM   14  S1  UNL     1      25.053   7.095  50.401  1.00  0.00    -0.107 SA
HETATM   15  C18 UNL     1      23.582   6.182  50.853  1.00  0.00     0.053 A 
ENDBRANCH   8   9
ENDBRANCH   7   8
BRANCH   7  16
HETATM   16  N1  UNL     1      20.846   2.982  52.453  1.00  0.00     0.087 N 
HETATM   17  H10 UNL     1      20.163   3.467  53.064  1.00  0.00     0.313 HD
HETATM   18  H11 UNL     1      20.374   2.679  51.591  1.00  0.00     0.313 HD
ENDBRANCH   7  16
ENDBRANCH   1   7
BRANCH   4  19
HETATM   19  N2  UNL     1      26.530   0.312  53.325  1.00  0.00    -0.379 N 
BRANCH  19  20
HETATM   20  C12 UNL     1      26.996  -0.594  52.330  1.00  0.00     0.138 C 
BRANCH  20  21
HETATM   21  C13 UNL     1      26.999  -2.042  52.650  1.00  0.00     0.134 C 
HETATM   22 CL1  UNL     1      28.537  -2.790  52.989  1.00  0.00    -0.129 Cl
ENDBRANCH  20  21
ENDBRANCH  19  20
BRANCH  19  23
HETATM   23  C14 UNL     1      27.191   0.369  54.587  1.00  0.00     0.138 C 
BRANCH  23  24
HETATM   24  C15 UNL     1      28.676   0.644  54.422  1.00  0.00     0.134 C 
HETATM   25 CL2  UNL     1      28.809   2.342  53.844  1.00  0.00    -0.129 Cl
ENDBRANCH  23  24
ENDBRANCH  19  23
ENDBRANCH   4  19
TORSDOF 9
ENDMDL
MODEL 4
REMARK VINA RESULT:      -6.5      1.957      2.452
REMARK  9 active torsions:
REMARK  status: ('A' for Active; 'I' for Inactive)
REMARK    1  A    between atoms: C5_5  and  C6_6 
REMARK    2  A    between atoms: C6_6  and  C7_7 
REMARK    3  A    between atoms: C7_7  and  N1_8 
REMARK    4  A    between atoms: C7_7  and  C8_9 
REMARK    5  A    between atoms: C11_12  and  N2_13 
REMARK    6  A    between atoms: N2_13  and  C12_14 
REMARK    7  A    between atoms: N2_13  and  C14_17 
REMARK    8  A    between atoms: C12_14  and  C13_15 
REMARK    9  A    between atoms: C14_17  and  C15_18 
ROOT
HETATM    1  C8  UNL     1      25.280   3.457  51.267  1.00  0.00    -0.025 A 
HETATM    2  C9  UNL     1      26.331   2.645  50.927  1.00  0.00     0.011 A 
HETATM    3  C10 UNL     1      26.679   1.613  51.761  1.00  0.00     0.030 A 
HETATM    4  C11 UNL     1      26.058   1.297  52.948  1.00  0.00     0.030 A 
HETATM    5  C16 UNL     1      25.019   2.141  53.234  1.00  0.00     0.030 A 
HETATM    6  C17 UNL     1      24.611   3.197  52.448  1.00  0.00     0.011 A 
ENDROOT
BRANCH   1   7
HETATM    7  C7  UNL     1      24.814   4.607  50.448  1.00  0.00     0.254 C 
BRANCH   7   8
HETATM    8  C6  UNL     1      25.474   4.572  49.112  1.00  0.00     0.075 C 
BRANCH   8   9
HETATM    9  C5  UNL     1      26.471   5.654  48.922  1.00  0.00    -0.068 A 
HETATM   10  C4  UNL     1      27.760   4.987  48.510  1.00  0.00     0.063 A 
HETATM   11  C3  UNL     1      28.855   5.965  48.288  1.00  0.00    -0.009 A 
HETATM   12  C2  UNL     1      29.030   7.280  48.348  1.00  0.00    -0.025 A 
HETATM   13  C1  UNL     1      30.362   7.873  48.029  1.00  0.00     0.056 C 
HETATM   14  S1  UNL     1      27.552   8.193  48.832  1.00  0.00    -0.107 SA
HETATM   15  C18 UNL     1      26.282   6.958  49.082  1.00  0.00     0.053 A 
ENDBRANCH   8   9
ENDBRANCH   7   8
BRANCH   7  16
HETATM   16  N1  UNL     1      23.375   4.535  50.333  1.00  0.00     0.087 N 
HETATM   17  H10 UNL     1      22.925   5.398  49.978  1.00  0.00     0.313 HD
HETATM   18  H11 UNL     1      23.083   3.737  49.753  1.00  0.00     0.313 HD
ENDBRANCH   7  16
ENDBRANCH   1   7
BRANCH   4  19
HETATM   19  N2  UNL     1      26.449   0.193  53.780  1.00  0.00    -0.379 N 
BRANCH  19  20
HETATM   20  C12 UNL     1      27.590   0.304  54.626  1.00  0.00     0.138 C 
BRANCH  20  21
HETATM   21  C13 UNL     1      28.931   0.141  54.014  1.00  0.00     0.134 C 
HETATM   22 CL1  UNL     1      29.415  -1.466  53.542  1.00  0.00    -0.129 Cl
ENDBRANCH  20  21
ENDBRANCH  19  20
BRANCH  19  23
HETATM   23  C14 UNL     1      25.692  -1.015  53.778  1.00  0.00     0.138 C 
BRANCH  23  24
HETATM   24  C15 UNL     1      24.720  -1.061  54.945  1.00  0.00     0.134 C 
HETATM   25 CL2  UNL     1      23.081  -0.837  54.240  1.00  0.00    -0.129 Cl
ENDBRANCH  23  24
ENDBRANCH  19  23
ENDBRANCH   4  19
TORSDOF 9
ENDMDL
MODEL 5
REMARK VINA RESULT:      -6.3      4.194      8.000
REMARK  9 active torsions:
REMARK  status: ('A' for Active; 'I' for Inactive)
REMARK    1  A    between atoms: C5_5  and  C6_6 
REMARK    2  A    between atoms: C6_6  and  C7_7 
REMARK    3  A    between atoms: C7_7  and  N1_8 
REMARK    4  A    between atoms: C7_7  and  C8_9 
REMARK    5  A    between atoms: C11_12  and  N2_13 
REMARK    6  A    between atoms: N2_13  and  C12_14 
REMARK    7  A    between atoms: N2_13  and  C14_17 
REMARK    8  A    between atoms: C12_14  and  C13_15 
REMARK    9  A    between atoms: C14_17  and  C15_18 
ROOT
HETATM    1  C8  UNL     1      25.389   3.491  50.348  1.00  0.00    -0.025 A 
HETATM    2  C9  UNL     1      24.890   4.765  50.437  1.00  0.00     0.011 A 
HETATM    3  C10 UNL     1      25.528   5.783  49.773  1.00  0.00     0.030 A 
HETATM    4  C11 UNL     1      26.658   5.652  49.000  1.00  0.00     0.030 A 
HETATM    5  C16 UNL     1      27.110   4.360  48.951  1.00  0.00     0.030 A 
HETATM    6  C17 UNL     1      26.525   3.287  49.588  1.00  0.00     0.011 A 
ENDROOT
BRANCH   1   7
HETATM    7  C7  UNL     1      24.790   2.311  51.025  1.00  0.00     0.254 C 
BRANCH   7   8
HETATM    8  C6  UNL     1      25.079   2.369  52.487  1.00  0.00     0.075 C 
BRANCH   8   9
HETATM    9  C5  UNL     1      26.310   1.636  52.870  1.00  0.00    -0.068 A 
HETATM   10  C4  UNL     1      26.145   0.222  52.368  1.00  0.00     0.063 A 
HETATM   11  C3  UNL     1      27.318  -0.630  52.691  1.00  0.00    -0.009 A 
HETATM   12  C2  UNL     1      28.490  -0.505  53.304  1.00  0.00    -0.025 A 
HETATM   13  C1  UNL     1      29.408  -1.677  53.408  1.00  0.00     0.056 C 
HETATM   14  S1  UNL     1      28.805   1.149  53.949  1.00  0.00    -0.107 SA
HETATM   15  C18 UNL     1      27.358   2.115  53.527  1.00  0.00     0.053 A 
ENDBRANCH   8   9
ENDBRANCH   7   8
BRANCH   7  16
HETATM   16  N1  UNL     1      23.368   2.307  50.764  1.00  0.00     0.087 N 
HETATM   17  H10 UNL     1      23.067   1.649  50.021  1.00  0.00     0.313 HD
HETATM   18  H11 UNL     1      22.828   2.122  51.620  1.00  0.00     0.313 HD
ENDBRANCH   7  16
ENDBRANCH   1   7
BRANCH   4  19
HETATM   19  N2  UNL     1      27.281   6.748  48.309  1.00  0.00    -0.379 N 
BRANCH  19  20
HETATM   20  C12 UNL     1      26.491   7.833  47.832  1.00  0.00     0.138 C 
BRANCH  20  21
HETATM   21  C13 UNL     1      26.415   9.059  48.663  1.00  0.00     0.134 C 
HETATM   22 CL1  UNL     1      27.135   9.006  50.251  1.00  0.00    -0.129 Cl
ENDBRANCH  20  21
ENDBRANCH  19  20
BRANCH  19  23
HETATM   23  C14 UNL     1      28.692   6.765  48.110  1.00  0.00     0.138 C 
BRANCH  23  24
HETATM   24  C15 UNL     1      29.060   7.480  46.820  1.00  0.00     0.134 C 
HETATM   25 CL2  UNL     1      29.994   8.938  47.306  1.00  0.00    -0.129 Cl
ENDBRANCH  23  24
ENDBRANCH  19  23
ENDBRANCH   4  19
TORSDOF 9
ENDMDL
MODEL 6
REMARK VINA RESULT:      -6.3      1.575      3.029
REMARK  9 active torsions:
REMARK  status: ('A' for Active; 'I' for Inactive)
REMARK    1  A    between atoms: C5_5  and  C6_6 
REMARK    2  A    between atoms: C6_6  and  C7_7 
REMARK    3  A    between atoms: C7_7  and  N1_8 
REMARK    4  A    between atoms: C7_7  and  C8_9 
REMARK    5  A    between atoms: C11_12  and  N2_13 
REMARK    6  A    between atoms: N2_13  and  C12_14 
REMARK    7  A    between atoms: N2_13  and  C14_17 
REMARK    8  A    between atoms: C12_14  and  C13_15 
REMARK    9  A    between atoms: C14_17  and  C15_18 
ROOT
HETATM    1  C8  UNL     1      24.779   3.676  51.299  1.00  0.00    -0.025 A 
HETATM    2  C9  UNL     1      24.090   3.516  52.473  1.00  0.00     0.011 A 
HETATM    3  C10 UNL     1      24.220   2.342  53.173  1.00  0.00     0.030 A 
HETATM    4  C11 UNL     1      25.000   1.271  52.803  1.00  0.00     0.030 A 
HETATM    5  C16 UNL     1      25.662   1.489  51.624  1.00  0.00     0.030 A 
HETATM    6  C17 UNL     1      25.582   2.637  50.867  1.00  0.00     0.011 A 
ENDROOT
BRANCH   1   7
HETATM    7  C7  UNL     1      24.714   4.897  50.453  1.00  0.00     0.254 C 
BRANCH   7   8
HETATM    8  C6  UNL     1      25.433   4.658  49.169  1.00  0.00     0.075 C 
BRANCH   8   9
HETATM    9  C5  UNL     1      26.523   5.633  48.918  1.00  0.00    -0.068 A 
HETATM   10  C4  UNL     1      27.752   4.828  48.571  1.00  0.00     0.063 A 
HETATM   11  C3  UNL     1      28.930   5.689  48.295  1.00  0.00    -0.009 A 
HETATM   12  C2  UNL     1      29.219   6.985  48.265  1.00  0.00    -0.025 A 
HETATM   13  C1  UNL     1      30.600   7.436  47.923  1.00  0.00     0.056 C 
HETATM   14  S1  UNL     1      27.823   8.055  48.663  1.00  0.00    -0.107 SA
HETATM   15  C18 UNL     1      26.448   6.956  48.982  1.00  0.00     0.053 A 
ENDBRANCH   8   9
ENDBRANCH   7   8
BRANCH   7  16
HETATM   16  N1  UNL     1      23.324   5.227  50.231  1.00  0.00     0.087 N 
HETATM   17  H10 UNL     1      23.146   6.223  50.009  1.00  0.00     0.313 HD
HETATM   18  H11 UNL     1      22.909   4.636  49.498  1.00  0.00     0.313 HD
ENDBRANCH   7  16
ENDBRANCH   1   7
BRANCH   4  19
HETATM   19  N2  UNL     1      25.117   0.067  53.580  1.00  0.00    -0.379 N 
BRANCH  19  20
HETATM   20  C12 UNL     1      23.954  -0.543  54.132  1.00  0.00     0.138 C 
BRANCH  20  21
HETATM   21  C13 UNL     1      22.866  -0.938  53.206  1.00  0.00     0.134 C 
HETATM   22 CL1  UNL     1      21.393  -0.004  53.244  1.00  0.00    -0.129 Cl
ENDBRANCH  20  21
ENDBRANCH  19  20
BRANCH  19  23
HETATM   23  C14 UNL     1      26.392  -0.533  53.790  1.00  0.00     0.138 C 
BRANCH  23  24
HETATM   24  C15 UNL     1      27.228   0.273  54.770  1.00  0.00     0.134 C 
HETATM   25 CL2  UNL     1      28.933  -0.237  54.512  1.00  0.00    -0.129 Cl
ENDBRANCH  23  24
ENDBRANCH  19  23
ENDBRANCH   4  19
TORSDOF 9
ENDMDL
MODEL 7
REMARK VINA RESULT:      -6.3      4.130      7.625
REMARK  9 active torsions:
REMARK  status: ('A' for Active; 'I' for Inactive)
REMARK    1  A    between atoms: C5_5  and  C6_6 
REMARK    2  A    between atoms: C6_6  and  C7_7 
REMARK    3  A    between atoms: C7_7  and  N1_8 
REMARK    4  A    between atoms: C7_7  and  C8_9 
REMARK    5  A    between atoms: C11_12  and  N2_13 
REMARK    6  A    between atoms: N2_13  and  C12_14 
REMARK    7  A    between atoms: N2_13  and  C14_17 
REMARK    8  A    between atoms: C12_14  and  C13_15 
REMARK    9  A    between atoms: C14_17  and  C15_18 
ROOT
HETATM    1  C8  UNL     1      25.438   3.430  50.287  1.00  0.00    -0.025 A 
HETATM    2  C9  UNL     1      26.605   3.279  49.584  1.00  0.00     0.011 A 
HETATM    3  C10 UNL     1      27.168   4.373  48.975  1.00  0.00     0.030 A 
HETATM    4  C11 UNL     1      26.661   5.652  48.997  1.00  0.00     0.030 A 
HETATM    5  C16 UNL     1      25.496   5.739  49.711  1.00  0.00     0.030 A 
HETATM    6  C17 UNL     1      24.872   4.689  50.349  1.00  0.00     0.011 A 
ENDROOT
BRANCH   1   7
HETATM    7  C7  UNL     1      24.733   2.321  50.982  1.00  0.00     0.254 C 
BRANCH   7   8
HETATM    8  C6  UNL     1      25.022   2.381  52.444  1.00  0.00     0.075 C 
BRANCH   8   9
HETATM    9  C5  UNL     1      26.263   1.662  52.825  1.00  0.00    -0.068 A 
HETATM   10  C4  UNL     1      26.092   0.233  52.369  1.00  0.00     0.063 A 
HETATM   11  C3  UNL     1      27.273  -0.607  52.695  1.00  0.00    -0.009 A 
HETATM   12  C2  UNL     1      28.456  -0.461  53.281  1.00  0.00    -0.025 A 
HETATM   13  C1  UNL     1      29.380  -1.626  53.402  1.00  0.00     0.056 C 
HETATM   14  S1  UNL     1      28.779   1.213  53.870  1.00  0.00    -0.107 SA
HETATM   15  C18 UNL     1      27.322   2.162  53.447  1.00  0.00     0.053 A 
ENDBRANCH   8   9
ENDBRANCH   7   8
BRANCH   7  16
HETATM   16  N1  UNL     1      23.317   2.439  50.715  1.00  0.00     0.087 N 
HETATM   17  H10 UNL     1      22.731   2.600  51.554  1.00  0.00     0.313 HD
HETATM   18  H11 UNL     1      23.125   3.174  50.021  1.00  0.00     0.313 HD
ENDBRANCH   7  16
ENDBRANCH   1   7
BRANCH   4  19
HETATM   19  N2  UNL     1      27.298   6.770  48.356  1.00  0.00    -0.379 N 
BRANCH  19  20
HETATM   20  C12 UNL     1      28.637   6.657  47.886  1.00  0.00     0.138 C 
BRANCH  20  21
HETATM   21  C13 UNL     1      29.559   7.794  48.125  1.00  0.00     0.134 C 
HETATM   22 CL1  UNL     1      30.972   7.498  49.103  1.00  0.00    -0.129 Cl
ENDBRANCH  20  21
ENDBRANCH  19  20
BRANCH  19  23
HETATM   23  C14 UNL     1      26.590   7.993  48.173  1.00  0.00     0.138 C 
BRANCH  23  24
HETATM   24  C15 UNL     1      25.993   8.084  46.778  1.00  0.00     0.134 C 
HETATM   25 CL2  UNL     1      24.217   7.889  46.979  1.00  0.00    -0.129 Cl
ENDBRANCH  23  24
ENDBRANCH  19  23
ENDBRANCH   4  19
TORSDOF 9
ENDMDL
MODEL 8
REMARK VINA RESULT:      -6.3      4.421      5.426
REMARK  9 active torsions:
REMARK  status: ('A' for Active; 'I' for Inactive)
REMARK    1  A    between atoms: C5_5  and  C6_6 
REMARK    2  A    between atoms: C6_6  and  C7_7 
REMARK    3  A    between atoms: C7_7  and  N1_8 
REMARK    4  A    between atoms: C7_7  and  C8_9 
REMARK    5  A    between atoms: C11_12  and  N2_13 
REMARK    6  A    between atoms: N2_13  and  C12_14 
REMARK    7  A    between atoms: N2_13  and  C14_17 
REMARK    8  A    between atoms: C12_14  and  C13_15 
REMARK    9  A    between atoms: C14_17  and  C15_18 
ROOT
HETATM    1  C8  UNL     1      22.178   0.505  53.227  1.00  0.00    -0.025 A 
HETATM    2  C9  UNL     1      22.756  -0.693  53.557  1.00  0.00     0.011 A 
HETATM    3  C10 UNL     1      24.125  -0.791  53.597  1.00  0.00     0.030 A 
HETATM    4  C11 UNL     1      25.009   0.229  53.328  1.00  0.00     0.030 A 
HETATM    5  C16 UNL     1      24.374   1.398  53.004  1.00  0.00     0.030 A 
HETATM    6  C17 UNL     1      23.009   1.573  52.944  1.00  0.00     0.011 A 
ENDROOT
BRANCH   1   7
HETATM    7  C7  UNL     1      20.711   0.730  53.146  1.00  0.00     0.254 C 
BRANCH   7   8
HETATM    8  C6  UNL     1      20.207   0.286  51.815  1.00  0.00     0.075 C 
BRANCH   8   9
HETATM    9  C5  UNL     1      20.450   1.276  50.737  1.00  0.00    -0.068 A 
HETATM   10  C4  UNL     1      21.348   0.602  49.727  1.00  0.00     0.063 A 
HETATM   11  C3  UNL     1      21.676   1.492  48.584  1.00  0.00    -0.009 A 
HETATM   12  C2  UNL     1      21.403   2.729  48.187  1.00  0.00    -0.025 A 
HETATM   13  C1  UNL     1      21.971   3.247  46.907  1.00  0.00     0.056 C 
HETATM   14  S1  UNL     1      20.332   3.640  49.316  1.00  0.00    -0.107 SA
HETATM   15  C18 UNL     1      19.980   2.514  50.661  1.00  0.00     0.053 A 
ENDBRANCH   8   9
ENDBRANCH   7   8
BRANCH   7  16
HETATM   16  N1  UNL     1      20.077   0.005  54.224  1.00  0.00     0.087 N 
HETATM   17  H10 UNL     1      19.106   0.303  54.433  1.00  0.00     0.313 HD
HETATM   18  H11 UNL     1      20.091  -1.010  54.055  1.00  0.00     0.313 HD
ENDBRANCH   7  16
ENDBRANCH   1   7
BRANCH   4  19
HETATM   19  N2  UNL     1      26.436   0.082  53.400  1.00  0.00    -0.379 N 
BRANCH  19  20
HETATM   20  C12 UNL     1      27.128  -0.674  52.410  1.00  0.00     0.138 C 
BRANCH  20  21
HETATM   21  C13 UNL     1      27.167  -2.149  52.559  1.00  0.00     0.134 C 
HETATM   22 CL1  UNL     1      28.685  -2.875  53.014  1.00  0.00    -0.129 Cl
ENDBRANCH  20  21
ENDBRANCH  19  20
BRANCH  19  23
HETATM   23  C14 UNL     1      27.172   0.703  54.451  1.00  0.00     0.138 C 
BRANCH  23  24
HETATM   24  C15 UNL     1      28.669   0.531  54.255  1.00  0.00     0.134 C 
HETATM   25 CL2  UNL     1      29.389   2.170  54.428  1.00  0.00    -0.129 Cl
ENDBRANCH  23  24
ENDBRANCH  19  23
ENDBRANCH   4  19
TORSDOF 9
ENDMDL
MODEL 9
REMARK VINA RESULT:      -6.2      3.935      5.381
REMARK  9 active torsions:
REMARK  status: ('A' for Active; 'I' for Inactive)
REMARK    1  A    between atoms: C5_5  and  C6_6 
REMARK    2  A    between atoms: C6_6  and  C7_7 
REMARK    3  A    between atoms: C7_7  and  N1_8 
REMARK    4  A    between atoms: C7_7  and  C8_9 
REMARK    5  A    between atoms: C11_12  and  N2_13 
REMARK    6  A    between atoms: N2_13  and  C12_14 
REMARK    7  A    between atoms: N2_13  and  C14_17 
REMARK    8  A    between atoms: C12_14  and  C13_15 
REMARK    9  A    between atoms: C14_17  and  C15_18 
ROOT
HETATM    1  C8  UNL     1      21.890   0.744  53.031  1.00  0.00    -0.025 A 
HETATM    2  C9  UNL     1      22.572   1.927  52.909  1.00  0.00     0.011 A 
HETATM    3  C10 UNL     1      23.939   1.929  53.028  1.00  0.00     0.030 A 
HETATM    4  C11 UNL     1      24.724   0.825  53.266  1.00  0.00     0.030 A 
HETATM    5  C16 UNL     1      23.988  -0.325  53.379  1.00  0.00     0.030 A 
HETATM    6  C17 UNL     1      22.617  -0.406  53.272  1.00  0.00     0.011 A 
ENDROOT
BRANCH   1   7
HETATM    7  C7  UNL     1      20.412   0.618  52.927  1.00  0.00     0.254 C 
BRANCH   7   8
HETATM    8  C6  UNL     1      20.043   0.137  51.565  1.00  0.00     0.075 C 
BRANCH   8   9
HETATM    9  C5  UNL     1      20.260   1.153  50.506  1.00  0.00    -0.068 A 
HETATM   10  C4  UNL     1      21.323   0.601  49.588  1.00  0.00     0.063 A 
HETATM   11  C3  UNL     1      21.642   1.530  48.473  1.00  0.00    -0.009 A 
HETATM   12  C2  UNL     1      21.254   2.725  48.043  1.00  0.00    -0.025 A 
HETATM   13  C1  UNL     1      21.869   3.314  46.818  1.00  0.00     0.056 C 
HETATM   14  S1  UNL     1      19.979   3.490  49.063  1.00  0.00    -0.107 SA
HETATM   15  C18 UNL     1      19.648   2.323  50.378  1.00  0.00     0.053 A 
ENDBRANCH   8   9
ENDBRANCH   7   8
BRANCH   7  16
HETATM   16  N1  UNL     1      19.957  -0.292  53.954  1.00  0.00     0.087 N 
HETATM   17  H10 UNL     1      19.892   0.124  54.902  1.00  0.00     0.313 HD
HETATM   18  H11 UNL     1      19.054  -0.717  53.707  1.00  0.00     0.313 HD
ENDBRANCH   7  16
ENDBRANCH   1   7
BRANCH   4  19
HETATM   19  N2  UNL     1      26.157   0.875  53.366  1.00  0.00    -0.379 N 
BRANCH  19  20
HETATM   20  C12 UNL     1      26.859  -0.127  54.096  1.00  0.00     0.138 C 
BRANCH  20  21
HETATM   21  C13 UNL     1      28.241   0.173  54.542  1.00  0.00     0.134 C 
HETATM   22 CL1  UNL     1      29.541  -0.725  53.803  1.00  0.00    -0.129 Cl
ENDBRANCH  20  21
ENDBRANCH  19  20
BRANCH  19  23
HETATM   23  C14 UNL     1      26.888   1.917  52.724  1.00  0.00     0.138 C 
BRANCH  23  24
HETATM   24  C15 UNL     1      26.838   1.777  51.212  1.00  0.00     0.134 C 
HETATM   25 CL2  UNL     1      26.257   3.359  50.582  1.00  0.00    -0.129 Cl
ENDBRANCH  23  24
ENDBRANCH  19  23
ENDBRANCH   4  19
TORSDOF 9
ENDMDL
