MODEL 1
REMARK VINA RESULT:      -7.8      0.000      0.000
REMARK  6 active torsions:
REMARK  status: ('A' for Active; 'I' for Inactive)
REMARK    1  A    between atoms: O1_2  and  C2_3 
REMARK    2  A    between atoms: C2_3  and  C3_4 
REMARK    3  A    between atoms: C8_12  and  N3_13 
REMARK    4  A    between atoms: N3_13  and  C9_14 
REMARK    5  A    between atoms: C17_25  and  C18_26 
REMARK    6  A    between atoms: C18_26  and  O4_27 
ROOT
HETATM    1  C3  UNL     1      26.086   0.171  53.806  1.00  0.00     0.184 C 
HETATM    2  O2  UNL     1      24.815   0.079  53.203  1.00  0.00    -0.338 OA
HETATM    3  C4  UNL     1      24.038   1.152  52.815  1.00  0.00     0.105 A 
HETATM    4  C5  UNL     1      22.841   0.984  52.152  1.00  0.00     0.072 A 
HETATM    5  C6  UNL     1      22.099   2.083  51.785  1.00  0.00     0.075 A 
HETATM    6  N1  UNL     1      20.931   1.845  51.135  1.00  0.00    -0.241 NA
HETATM    7  C7  UNL     1      20.153   2.896  50.745  1.00  0.00     0.236 A 
HETATM    8  N2  UNL     1      20.561   4.137  51.015  1.00  0.00    -0.223 NA
HETATM    9  C8  UNL     1      21.691   4.461  51.647  1.00  0.00     0.143 A 
HETATM   10  C14 UNL     1      22.461   3.389  52.030  1.00  0.00     0.042 A 
HETATM   11  C15 UNL     1      23.662   3.491  52.692  1.00  0.00     0.057 A 
HETATM   12  C16 UNL     1      24.453   2.434  53.089  1.00  0.00     0.103 A 
HETATM   13  O3  UNL     1      25.651   2.554  53.750  1.00  0.00    -0.338 OA
HETATM   14  C17 UNL     1      26.661   1.574  53.765  1.00  0.00     0.184 C 
ENDROOT
BRANCH   9  15
HETATM   15  N3  UNL     1      22.128   5.773  51.932  1.00  0.00    -0.325 N 
HETATM   16  H9  UNL     1      22.042   6.158  52.887  1.00  0.00     0.169 HD
BRANCH  15  17
HETATM   17  C9  UNL     1      22.707   6.732  51.079  1.00  0.00     0.130 A 
HETATM   18  C10 UNL     1      24.059   6.928  51.050  1.00  0.00     0.074 A 
HETATM   19  C11 UNL     1      24.702   7.853  50.240  1.00  0.00     0.039 A 
HETATM   20 CL1  UNL     1      26.443   8.096  50.210  1.00  0.00    -0.084 Cl
HETATM   21  C12 UNL     1      23.942   8.652  49.385  1.00  0.00     0.043 A 
HETATM   22  C13 UNL     1      22.607   8.411  49.458  1.00  0.00     0.120 A 
HETATM   23  N4  UNL     1      22.040   7.518  50.247  1.00  0.00    -0.243 NA
ENDBRANCH  15  17
ENDBRANCH   9  15
BRANCH  14  24
HETATM   24  C18 UNL     1      27.500   1.796  52.541  1.00  0.00     0.202 C 
BRANCH  24  25
HETATM   25  O4  UNL     1      28.607   2.557  52.820  1.00  0.00    -0.393 OA
HETATM   26  C19 UNL     1      29.187   2.287  54.034  1.00  0.00     0.201 C 
ENDBRANCH  24  25
ENDBRANCH  14  24
BRANCH   1  27
HETATM   27  C2  UNL     1      27.036  -0.857  53.313  1.00  0.00     0.202 C 
BRANCH  27  28
HETATM   28  O1  UNL     1      28.135  -1.110  54.101  1.00  0.00    -0.393 OA
HETATM   29  C1  UNL     1      29.280  -1.422  53.394  1.00  0.00     0.201 C 
ENDBRANCH  27  28
ENDBRANCH   1  27
TORSDOF 6
ENDMDL
MODEL 2
REMARK VINA RESULT:      -7.6      4.626      7.586
REMARK  6 active torsions:
REMARK  status: ('A' for Active; 'I' for Inactive)
REMARK    1  A    between atoms: O1_2  and  C2_3 
REMARK    2  A    between atoms: C2_3  and  C3_4 
REMARK    3  A    between atoms: C8_12  and  N3_13 
REMARK    4  A    between atoms: N3_13  and  C9_14 
REMARK    5  A    between atoms: C17_25  and  C18_26 
REMARK    6  A    between atoms: C18_26  and  O4_27 
ROOT
HETATM    1  C3  UNL     1      29.018   7.043  47.343  1.00  0.00     0.184 C 
HETATM    2  O2  UNL     1      27.748   7.226  47.928  1.00  0.00    -0.338 OA
HETATM    3  C4  UNL     1      27.065   6.277  48.662  1.00  0.00     0.105 A 
HETATM    4  C5  UNL     1      25.863   6.556  49.278  1.00  0.00     0.072 A 
HETATM    5  C6  UNL     1      25.217   5.579  49.998  1.00  0.00     0.075 A 
HETATM    6  N1  UNL     1      24.039   5.923  50.579  1.00  0.00    -0.241 NA
HETATM    7  C7  UNL     1      23.352   4.995  51.306  1.00  0.00     0.236 A 
HETATM    8  N2  UNL     1      23.858   3.766  51.428  1.00  0.00    -0.223 NA
HETATM    9  C8  UNL     1      25.005   3.344  50.893  1.00  0.00     0.143 A 
HETATM   10  C14 UNL     1      25.681   4.293  50.165  1.00  0.00     0.042 A 
HETATM   11  C15 UNL     1      26.882   4.076  49.528  1.00  0.00     0.057 A 
HETATM   12  C16 UNL     1      27.580   5.009  48.792  1.00  0.00     0.103 A 
HETATM   13  O3  UNL     1      28.779   4.775  48.162  1.00  0.00    -0.338 OA
HETATM   14  C17 UNL     1      29.705   5.772  47.805  1.00  0.00     0.184 C 
ENDROOT
BRANCH   9  15
HETATM   15  N3  UNL     1      25.545   2.046  51.021  1.00  0.00    -0.325 N 
HETATM   16  H9  UNL     1      25.506   1.381  50.231  1.00  0.00     0.169 HD
BRANCH  15  17
HETATM   17  C9  UNL     1      26.179   1.442  52.124  1.00  0.00     0.130 A 
HETATM   18  C10 UNL     1      27.307   1.982  52.675  1.00  0.00     0.074 A 
HETATM   19  C11 UNL     1      27.987   1.445  53.758  1.00  0.00     0.039 A 
HETATM   20 CL1  UNL     1      29.438   2.149  54.459  1.00  0.00    -0.084 Cl
HETATM   21  C12 UNL     1      27.510   0.274  54.348  1.00  0.00     0.043 A 
HETATM   22  C13 UNL     1      26.387  -0.214  53.759  1.00  0.00     0.120 A 
HETATM   23  N4  UNL     1      25.775   0.333  52.727  1.00  0.00    -0.243 NA
ENDBRANCH  15  17
ENDBRANCH   9  15
BRANCH  14  24
HETATM   24  C18 UNL     1      30.570   6.013  49.007  1.00  0.00     0.202 C 
BRANCH  24  25
HETATM   25  O4  UNL     1      31.620   5.131  49.057  1.00  0.00    -0.393 OA
HETATM   26  C19 UNL     1      32.551   5.305  48.063  1.00  0.00     0.201 C 
ENDBRANCH  24  25
ENDBRANCH  14  24
BRANCH   1  27
HETATM   27  C2  UNL     1      29.884   8.242  47.454  1.00  0.00     0.202 C 
BRANCH  27  28
HETATM   28  O1  UNL     1      29.357   9.324  48.121  1.00  0.00    -0.393 OA
HETATM   29  C1  UNL     1      30.045   9.673  49.267  1.00  0.00     0.201 C 
ENDBRANCH  27  28
ENDBRANCH   1  27
TORSDOF 6
ENDMDL
MODEL 3
REMARK VINA RESULT:      -7.5      1.691      2.227
REMARK  6 active torsions:
REMARK  status: ('A' for Active; 'I' for Inactive)
REMARK    1  A    between atoms: O1_2  and  C2_3 
REMARK    2  A    between atoms: C2_3  and  C3_4 
REMARK    3  A    between atoms: C8_12  and  N3_13 
REMARK    4  A    between atoms: N3_13  and  C9_14 
REMARK    5  A    between atoms: C17_25  and  C18_26 
REMARK    6  A    between atoms: C18_26  and  O4_27 
ROOT
HETATM    1  C3  UNL     1      26.375   0.008  53.583  1.00  0.00     0.184 C 
HETATM    2  O2  UNL     1      25.074  -0.517  53.452  1.00  0.00    -0.338 OA
HETATM    3  C4  UNL     1      23.943   0.218  53.158  1.00  0.00     0.105 A 
HETATM    4  C5  UNL     1      22.715  -0.377  52.960  1.00  0.00     0.072 A 
HETATM    5  C6  UNL     1      21.615   0.396  52.671  1.00  0.00     0.075 A 
HETATM    6  N1  UNL     1      20.439  -0.257  52.488  1.00  0.00    -0.241 NA
HETATM    7  C7  UNL     1      19.313   0.458  52.197  1.00  0.00     0.236 A 
HETATM    8  N2  UNL     1      19.397   1.787  52.101  1.00  0.00    -0.223 NA
HETATM    9  C8  UNL     1      20.509   2.506  52.265  1.00  0.00     0.143 A 
HETATM   10  C14 UNL     1      21.631   1.768  52.556  1.00  0.00     0.042 A 
HETATM   11  C15 UNL     1      22.882   2.303  52.763  1.00  0.00     0.057 A 
HETATM   12  C16 UNL     1      24.023   1.588  53.057  1.00  0.00     0.103 A 
HETATM   13  O3  UNL     1      25.265   2.138  53.261  1.00  0.00    -0.338 OA
HETATM   14  C17 UNL     1      26.482   1.448  53.116  1.00  0.00     0.184 C 
ENDROOT
BRANCH   9  15
HETATM   15  N3  UNL     1      20.603   3.910  52.162  1.00  0.00    -0.325 N 
HETATM   16  H9  UNL     1      20.279   4.516  52.933  1.00  0.00     0.169 HD
BRANCH  15  17
HETATM   17  C9  UNL     1      21.100   4.703  51.108  1.00  0.00     0.130 A 
HETATM   18  C10 UNL     1      21.953   5.743  51.347  1.00  0.00     0.074 A 
HETATM   19  C11 UNL     1      22.482   6.568  50.364  1.00  0.00     0.039 A 
HETATM   20 CL1  UNL     1      23.579   7.903  50.684  1.00  0.00    -0.084 Cl
HETATM   21  C12 UNL     1      22.137   6.343  49.031  1.00  0.00     0.043 A 
HETATM   22  C13 UNL     1      21.288   5.297  48.857  1.00  0.00     0.120 A 
HETATM   23  N4  UNL     1      20.810   4.540  49.826  1.00  0.00    -0.243 NA
ENDBRANCH  15  17
ENDBRANCH   9  15
BRANCH  14  24
HETATM   24  C18 UNL     1      26.861   1.536  51.666  1.00  0.00     0.202 C 
BRANCH  24  25
HETATM   25  O4  UNL     1      27.186   2.820  51.308  1.00  0.00    -0.393 OA
HETATM   26  C19 UNL     1      26.541   3.274  50.185  1.00  0.00     0.201 C 
ENDBRANCH  24  25
ENDBRANCH  14  24
BRANCH   1  27
HETATM   27  C2  UNL     1      27.415  -0.869  52.993  1.00  0.00     0.202 C 
BRANCH  27  28
HETATM   28  O1  UNL     1      28.411  -1.299  53.839  1.00  0.00    -0.393 OA
HETATM   29  C1  UNL     1      29.596  -0.598  53.723  1.00  0.00     0.201 C 
ENDBRANCH  27  28
ENDBRANCH   1  27
TORSDOF 6
ENDMDL
MODEL 4
REMARK VINA RESULT:      -7.4      4.966      7.798
REMARK  6 active torsions:
REMARK  status: ('A' for Active; 'I' for Inactive)
REMARK    1  A    between atoms: O1_2  and  C2_3 
REMARK    2  A    between atoms: C2_3  and  C3_4 
REMARK    3  A    between atoms: C8_12  and  N3_13 
REMARK    4  A    between atoms: N3_13  and  C9_14 
REMARK    5  A    between atoms: C17_25  and  C18_26 
REMARK    6  A    between atoms: C18_26  and  O4_27 
ROOT
HETATM    1  C3  UNL     1      29.574   7.129  47.259  1.00  0.00     0.184 C 
HETATM    2  O2  UNL     1      28.300   7.416  47.790  1.00  0.00    -0.338 OA
HETATM    3  C4  UNL     1      27.503   6.522  48.476  1.00  0.00     0.105 A 
HETATM    4  C5  UNL     1      26.303   6.898  49.042  1.00  0.00     0.072 A 
HETATM    5  C6  UNL     1      25.541   5.972  49.715  1.00  0.00     0.075 A 
HETATM    6  N1  UNL     1      24.372   6.412  50.249  1.00  0.00    -0.241 NA
HETATM    7  C7  UNL     1      23.574   5.539  50.928  1.00  0.00     0.236 A 
HETATM    8  N2  UNL     1      23.963   4.268  51.052  1.00  0.00    -0.223 NA
HETATM    9  C8  UNL     1      25.093   3.753  50.561  1.00  0.00     0.143 A 
HETATM   10  C14 UNL     1      25.882   4.648  49.881  1.00  0.00     0.042 A 
HETATM   11  C15 UNL     1      27.087   4.334  49.295  1.00  0.00     0.057 A 
HETATM   12  C16 UNL     1      27.898   5.211  48.606  1.00  0.00     0.103 A 
HETATM   13  O3  UNL     1      29.099   4.881  48.027  1.00  0.00    -0.338 OA
HETATM   14  C17 UNL     1      30.125   5.796  47.729  1.00  0.00     0.184 C 
ENDROOT
BRANCH   9  15
HETATM   15  N3  UNL     1      25.509   2.411  50.691  1.00  0.00    -0.325 N 
HETATM   16  H9  UNL     1      25.806   1.871  49.861  1.00  0.00     0.169 HD
BRANCH  15  17
HETATM   17  C9  UNL     1      25.600   1.606  51.843  1.00  0.00     0.130 A 
HETATM   18  C10 UNL     1      24.507   0.948  52.334  1.00  0.00     0.074 A 
HETATM   19  C11 UNL     1      24.518   0.140  53.462  1.00  0.00     0.039 A 
HETATM   20 CL1  UNL     1      23.106  -0.701  54.085  1.00  0.00    -0.084 Cl
HETATM   21  C12 UNL     1      25.712  -0.033  54.163  1.00  0.00     0.043 A 
HETATM   22  C13 UNL     1      26.761   0.644  53.627  1.00  0.00     0.120 A 
HETATM   23  N4  UNL     1      26.702   1.403  52.550  1.00  0.00    -0.243 NA
ENDBRANCH  15  17
ENDBRANCH   9  15
BRANCH  14  24
HETATM   24  C18 UNL     1      30.951   5.943  48.973  1.00  0.00     0.202 C 
BRANCH  24  25
HETATM   25  O4  UNL     1      31.900   4.956  49.067  1.00  0.00    -0.393 OA
HETATM   26  C19 UNL     1      32.933   5.079  48.172  1.00  0.00     0.201 C 
ENDBRANCH  24  25
ENDBRANCH  14  24
BRANCH   1  27
HETATM   27  C2  UNL     1      30.537   8.245  47.430  1.00  0.00     0.202 C 
BRANCH  27  28
HETATM   28  O1  UNL     1      30.062   9.380  48.045  1.00  0.00    -0.393 OA
HETATM   29  C1  UNL     1      30.628   9.635  49.279  1.00  0.00     0.201 C 
ENDBRANCH  27  28
ENDBRANCH   1  27
TORSDOF 6
ENDMDL
MODEL 5
REMARK VINA RESULT:      -7.4      4.350      8.037
REMARK  6 active torsions:
REMARK  status: ('A' for Active; 'I' for Inactive)
REMARK    1  A    between atoms: O1_2  and  C2_3 
REMARK    2  A    between atoms: C2_3  and  C3_4 
REMARK    3  A    between atoms: C8_12  and  N3_13 
REMARK    4  A    between atoms: N3_13  and  C9_14 
REMARK    5  A    between atoms: C17_25  and  C18_26 
REMARK    6  A    between atoms: C18_26  and  O4_27 
ROOT
HETATM    1  C3  UNL     1      18.890   1.584  51.222  1.00  0.00     0.184 C 
HETATM    2  O2  UNL     1      19.234   0.776  52.325  1.00  0.00    -0.338 OA
HETATM    3  C4  UNL     1      20.521   0.467  52.717  1.00  0.00     0.105 A 
HETATM    4  C5  UNL     1      20.782  -0.259  53.859  1.00  0.00     0.072 A 
HETATM    5  C6  UNL     1      22.081  -0.544  54.210  1.00  0.00     0.075 A 
HETATM    6  N1  UNL     1      22.265  -1.263  55.347  1.00  0.00    -0.241 NA
HETATM    7  C7  UNL     1      23.532  -1.576  55.745  1.00  0.00     0.236 A 
HETATM    8  N2  UNL     1      24.563  -1.166  55.004  1.00  0.00    -0.223 NA
HETATM    9  C8  UNL     1      24.473  -0.457  53.877  1.00  0.00     0.143 A 
HETATM   10  C14 UNL     1      23.190  -0.152  53.493  1.00  0.00     0.042 A 
HETATM   11  C15 UNL     1      22.865   0.568  52.366  1.00  0.00     0.057 A 
HETATM   12  C16 UNL     1      21.588   0.887  51.957  1.00  0.00     0.103 A 
HETATM   13  O3  UNL     1      21.281   1.608  50.828  1.00  0.00    -0.338 OA
HETATM   14  C17 UNL     1      20.080   2.314  50.629  1.00  0.00     0.184 C 
ENDROOT
BRANCH   9  15
HETATM   15  N3  UNL     1      25.560  -0.020  53.090  1.00  0.00    -0.325 N 
HETATM   16  H9  UNL     1      25.398   0.463  52.192  1.00  0.00     0.169 HD
BRANCH  15  17
HETATM   17  C9  UNL     1      26.944  -0.134  53.328  1.00  0.00     0.130 A 
HETATM   18  C10 UNL     1      27.665   0.916  53.825  1.00  0.00     0.074 A 
HETATM   19  C11 UNL     1      29.028   0.881  54.083  1.00  0.00     0.039 A 
HETATM   20 CL1  UNL     1      29.945   2.237  54.723  1.00  0.00    -0.084 Cl
HETATM   21  C12 UNL     1      29.738  -0.293  53.829  1.00  0.00     0.043 A 
HETATM   22  C13 UNL     1      28.968  -1.299  53.338  1.00  0.00     0.120 A 
HETATM   23  N4  UNL     1      27.672  -1.218  53.107  1.00  0.00    -0.243 NA
ENDBRANCH  15  17
ENDBRANCH   9  15
BRANCH  14  24
HETATM   24  C18 UNL     1      20.266   3.669  51.247  1.00  0.00     0.202 C 
BRANCH  24  25
HETATM   25  O4  UNL     1      21.489   4.204  50.929  1.00  0.00    -0.393 OA
HETATM   26  C19 UNL     1      21.438   5.495  50.466  1.00  0.00     0.201 C 
ENDBRANCH  24  25
ENDBRANCH  14  24
BRANCH   1  27
HETATM   27  C2  UNL     1      17.741   2.481  51.497  1.00  0.00     0.202 C 
BRANCH  27  28
HETATM   28  O1  UNL     1      16.951   2.819  50.422  1.00  0.00    -0.393 OA
HETATM   29  C1  UNL     1      16.324   4.044  50.541  1.00  0.00     0.201 C 
ENDBRANCH  27  28
ENDBRANCH   1  27
TORSDOF 6
ENDMDL
MODEL 6
REMARK VINA RESULT:      -7.2      3.012      5.140
REMARK  6 active torsions:
REMARK  status: ('A' for Active; 'I' for Inactive)
REMARK    1  A    between atoms: O1_2  and  C2_3 
REMARK    2  A    between atoms: C2_3  and  C3_4 
REMARK    3  A    between atoms: C8_12  and  N3_13 
REMARK    4  A    between atoms: N3_13  and  C9_14 
REMARK    5  A    between atoms: C17_25  and  C18_26 
REMARK    6  A    between atoms: C18_26  and  O4_27 
ROOT
HETATM    1  C3  UNL     1      26.825  -0.431  52.512  1.00  0.00     0.184 C 
HETATM    2  O2  UNL     1      26.718   0.838  51.907  1.00  0.00    -0.338 OA
HETATM    3  C4  UNL     1      25.569   1.600  51.848  1.00  0.00     0.105 A 
HETATM    4  C5  UNL     1      25.561   2.871  51.315  1.00  0.00     0.072 A 
HETATM    5  C6  UNL     1      24.391   3.593  51.276  1.00  0.00     0.075 A 
HETATM    6  N1  UNL     1      24.457   4.838  50.739  1.00  0.00    -0.241 NA
HETATM    7  C7  UNL     1      23.328   5.601  50.673  1.00  0.00     0.236 A 
HETATM    8  N2  UNL     1      22.182   5.102  51.141  1.00  0.00    -0.223 NA
HETATM    9  C8  UNL     1      22.028   3.893  51.684  1.00  0.00     0.143 A 
HETATM   10  C14 UNL     1      23.176   3.141  51.741  1.00  0.00     0.042 A 
HETATM   11  C15 UNL     1      23.248   1.868  52.260  1.00  0.00     0.057 A 
HETATM   12  C16 UNL     1      24.384   1.091  52.328  1.00  0.00     0.103 A 
HETATM   13  O3  UNL     1      24.438  -0.178  52.850  1.00  0.00    -0.338 OA
HETATM   14  C17 UNL     1      25.605  -0.798  53.336  1.00  0.00     0.184 C 
ENDROOT
BRANCH   9  15
HETATM   15  N3  UNL     1      20.819   3.362  52.182  1.00  0.00    -0.325 N 
HETATM   16  H9  UNL     1      20.442   3.677  53.091  1.00  0.00     0.169 HD
BRANCH  15  17
HETATM   17  C9  UNL     1      19.961   2.398  51.618  1.00  0.00     0.130 A 
HETATM   18  C10 UNL     1      19.557   1.305  52.333  1.00  0.00     0.074 A 
HETATM   19  C11 UNL     1      18.717   0.315  51.846  1.00  0.00     0.039 A 
HETATM   20 CL1  UNL     1      18.203  -1.086  52.776  1.00  0.00    -0.084 Cl
HETATM   21  C12 UNL     1      18.234   0.413  50.541  1.00  0.00     0.043 A 
HETATM   22  C13 UNL     1      18.669   1.519  49.882  1.00  0.00     0.120 A 
HETATM   23  N4  UNL     1      19.471   2.436  50.388  1.00  0.00    -0.243 NA
ENDBRANCH  15  17
ENDBRANCH   9  15
BRANCH  14  24
HETATM   24  C18 UNL     1      25.755  -0.377  54.769  1.00  0.00     0.202 C 
BRANCH  24  25
HETATM   25  O4  UNL     1      25.248  -1.321  55.626  1.00  0.00    -0.393 OA
HETATM   26  C19 UNL     1      23.878  -1.366  55.671  1.00  0.00     0.201 C 
ENDBRANCH  24  25
ENDBRANCH  14  24
BRANCH   1  27
HETATM   27  C2  UNL     1      28.098  -0.616  53.250  1.00  0.00     0.202 C 
BRANCH  27  28
HETATM   28  O1  UNL     1      28.965   0.453  53.260  1.00  0.00    -0.393 OA
HETATM   29  C1  UNL     1      29.137   1.031  54.503  1.00  0.00     0.201 C 
ENDBRANCH  27  28
ENDBRANCH   1  27
TORSDOF 6
ENDMDL
MODEL 7
REMARK VINA RESULT:      -7.1      2.583      4.430
REMARK  6 active torsions:
REMARK  status: ('A' for Active; 'I' for Inactive)
REMARK    1  A    between atoms: O1_2  and  C2_3 
REMARK    2  A    between atoms: C2_3  and  C3_4 
REMARK    3  A    between atoms: C8_12  and  N3_13 
REMARK    4  A    between atoms: N3_13  and  C9_14 
REMARK    5  A    between atoms: C17_25  and  C18_26 
REMARK    6  A    between atoms: C18_26  and  O4_27 
ROOT
HETATM    1  C3  UNL     1      26.542  -0.725  52.376  1.00  0.00     0.184 C 
HETATM    2  O2  UNL     1      26.711   0.502  51.701  1.00  0.00    -0.338 OA
HETATM    3  C4  UNL     1      25.772   1.512  51.637  1.00  0.00     0.105 A 
HETATM    4  C5  UNL     1      26.041   2.721  51.031  1.00  0.00     0.072 A 
HETATM    5  C6  UNL     1      25.074   3.698  50.990  1.00  0.00     0.075 A 
HETATM    6  N1  UNL     1      25.407   4.864  50.378  1.00  0.00    -0.241 NA
HETATM    7  C7  UNL     1      24.489   5.871  50.307  1.00  0.00     0.236 A 
HETATM    8  N2  UNL     1      23.281   5.683  50.843  1.00  0.00    -0.223 NA
HETATM    9  C8  UNL     1      22.871   4.574  51.461  1.00  0.00     0.143 A 
HETATM   10  C14 UNL     1      23.810   3.573  51.523  1.00  0.00     0.042 A 
HETATM   11  C15 UNL     1      23.603   2.347  52.113  1.00  0.00     0.057 A 
HETATM   12  C16 UNL     1      24.526   1.326  52.187  1.00  0.00     0.103 A 
HETATM   13  O3  UNL     1      24.302   0.107  52.781  1.00  0.00    -0.338 OA
HETATM   14  C17 UNL     1      25.311  -0.748  53.263  1.00  0.00     0.184 C 
ENDROOT
BRANCH   9  15
HETATM   15  N3  UNL     1      21.596   4.372  52.031  1.00  0.00    -0.325 N 
HETATM   16  H9  UNL     1      21.430   4.576  53.030  1.00  0.00     0.169 HD
BRANCH  15  17
HETATM   17  C9  UNL     1      20.410   3.903  51.435  1.00  0.00     0.130 A 
HETATM   18  C10 UNL     1      20.318   3.730  50.082  1.00  0.00     0.074 A 
HETATM   19  C11 UNL     1      19.186   3.273  49.423  1.00  0.00     0.039 A 
HETATM   20 CL1  UNL     1      19.080   3.054  47.682  1.00  0.00    -0.084 Cl
HETATM   21  C12 UNL     1      18.047   2.961  50.165  1.00  0.00     0.043 A 
HETATM   22  C13 UNL     1      18.199   3.152  51.502  1.00  0.00     0.120 A 
HETATM   23  N4  UNL     1      19.298   3.590  52.084  1.00  0.00    -0.243 NA
ENDBRANCH  15  17
ENDBRANCH   9  15
BRANCH  14  24
HETATM   24  C18 UNL     1      25.625  -0.306  54.662  1.00  0.00     0.202 C 
BRANCH  24  25
HETATM   25  O4  UNL     1      25.234  -1.244  55.585  1.00  0.00    -0.393 OA
HETATM   26  C19 UNL     1      23.875  -1.374  55.718  1.00  0.00     0.201 C 
ENDBRANCH  24  25
ENDBRANCH  14  24
BRANCH   1  27
HETATM   27  C2  UNL     1      27.769  -1.172  53.079  1.00  0.00     0.202 C 
BRANCH  27  28
HETATM   28  O1  UNL     1      28.795  -0.259  53.170  1.00  0.00    -0.393 OA
HETATM   29  C1  UNL     1      29.964  -0.771  53.699  1.00  0.00     0.201 C 
ENDBRANCH  27  28
ENDBRANCH   1  27
TORSDOF 6
ENDMDL
MODEL 8
REMARK VINA RESULT:      -7.1      2.794      3.211
REMARK  6 active torsions:
REMARK  status: ('A' for Active; 'I' for Inactive)
REMARK    1  A    between atoms: O1_2  and  C2_3 
REMARK    2  A    between atoms: C2_3  and  C3_4 
REMARK    3  A    between atoms: C8_12  and  N3_13 
REMARK    4  A    between atoms: N3_13  and  C9_14 
REMARK    5  A    between atoms: C17_25  and  C18_26 
REMARK    6  A    between atoms: C18_26  and  O4_27 
ROOT
HETATM    1  C3  UNL     1      24.702   0.618  53.469  1.00  0.00     0.184 C 
HETATM    2  O2  UNL     1      23.852   0.735  52.350  1.00  0.00    -0.338 OA
HETATM    3  C4  UNL     1      23.819   1.808  51.482  1.00  0.00     0.105 A 
HETATM    4  C5  UNL     1      23.021   1.814  50.358  1.00  0.00     0.072 A 
HETATM    5  C6  UNL     1      23.021   2.906  49.522  1.00  0.00     0.075 A 
HETATM    6  N1  UNL     1      22.211   2.844  48.433  1.00  0.00    -0.241 NA
HETATM    7  C7  UNL     1      22.169   3.898  47.567  1.00  0.00     0.236 A 
HETATM    8  N2  UNL     1      22.928   4.968  47.813  1.00  0.00    -0.223 NA
HETATM    9  C8  UNL     1      23.749   5.111  48.855  1.00  0.00     0.143 A 
HETATM   10  C14 UNL     1      23.778   4.040  49.714  1.00  0.00     0.042 A 
HETATM   11  C15 UNL     1      24.552   3.974  50.850  1.00  0.00     0.057 A 
HETATM   12  C16 UNL     1      24.599   2.913  51.729  1.00  0.00     0.103 A 
HETATM   13  O3  UNL     1      25.379   2.863  52.859  1.00  0.00    -0.338 OA
HETATM   14  C17 UNL     1      25.785   1.680  53.503  1.00  0.00     0.184 C 
ENDROOT
BRANCH   9  15
HETATM   15  N3  UNL     1      24.555   6.240  49.118  1.00  0.00    -0.325 N 
HETATM   16  H9  UNL     1      24.308   6.895  49.877  1.00  0.00     0.169 HD
BRANCH  15  17
HETATM   17  C9  UNL     1      25.733   6.672  48.477  1.00  0.00     0.130 A 
HETATM   18  C10 UNL     1      26.912   5.999  48.636  1.00  0.00     0.074 A 
HETATM   19  C11 UNL     1      28.111   6.363  48.041  1.00  0.00     0.039 A 
HETATM   20 CL1  UNL     1      29.622   5.489  48.252  1.00  0.00    -0.084 Cl
HETATM   21  C12 UNL     1      28.147   7.489  47.217  1.00  0.00     0.043 A 
HETATM   22  C13 UNL     1      26.946   8.114  47.098  1.00  0.00     0.120 A 
HETATM   23  N4  UNL     1      25.830   7.730  47.685  1.00  0.00    -0.243 NA
ENDBRANCH  15  17
ENDBRANCH   9  15
BRANCH  14  24
HETATM   24  C18 UNL     1      27.037   1.219  52.815  1.00  0.00     0.202 C 
BRANCH  24  25
HETATM   25  O4  UNL     1      28.121   1.273  53.655  1.00  0.00    -0.393 OA
HETATM   26  C19 UNL     1      28.755   2.490  53.683  1.00  0.00     0.201 C 
ENDBRANCH  24  25
ENDBRANCH  14  24
BRANCH   1  27
HETATM   27  C2  UNL     1      25.233  -0.755  53.651  1.00  0.00     0.202 C 
BRANCH  27  28
HETATM   28  O1  UNL     1      25.259  -1.240  54.938  1.00  0.00    -0.393 OA
HETATM   29  C1  UNL     1      24.020  -1.300  55.548  1.00  0.00     0.201 C 
ENDBRANCH  27  28
ENDBRANCH   1  27
TORSDOF 6
ENDMDL
MODEL 9
REMARK VINA RESULT:      -6.8      6.410      8.942
REMARK  6 active torsions:
REMARK  status: ('A' for Active; 'I' for Inactive)
REMARK    1  A    between atoms: O1_2  and  C2_3 
REMARK    2  A    between atoms: C2_3  and  C3_4 
REMARK    3  A    between atoms: C8_12  and  N3_13 
REMARK    4  A    between atoms: N3_13  and  C9_14 
REMARK    5  A    between atoms: C17_25  and  C18_26 
REMARK    6  A    between atoms: C18_26  and  O4_27 
ROOT
HETATM    1  C3  UNL     1      32.669   7.179  46.739  1.00  0.00     0.184 C 
HETATM    2  O2  UNL     1      31.393   7.765  46.865  1.00  0.00    -0.338 OA
HETATM    3  C4  UNL     1      30.270   7.131  47.358  1.00  0.00     0.105 A 
HETATM    4  C5  UNL     1      29.074   7.795  47.533  1.00  0.00     0.072 A 
HETATM    5  C6  UNL     1      27.981   7.122  48.026  1.00  0.00     0.075 A 
HETATM    6  N1  UNL     1      26.836   7.837  48.173  1.00  0.00    -0.241 NA
HETATM    7  C7  UNL     1      25.719   7.223  48.659  1.00  0.00     0.236 A 
HETATM    8  N2  UNL     1      25.779   5.929  48.978  1.00  0.00    -0.223 NA
HETATM    9  C8  UNL     1      26.859   5.153  48.866  1.00  0.00     0.143 A 
HETATM   10  C14 UNL     1      27.973   5.790  48.376  1.00  0.00     0.042 A 
HETATM   11  C15 UNL     1      29.193   5.183  48.179  1.00  0.00     0.057 A 
HETATM   12  C16 UNL     1      30.325   5.797  47.689  1.00  0.00     0.103 A 
HETATM   13  O3  UNL     1      31.536   5.176  47.499  1.00  0.00    -0.338 OA
HETATM   14  C17 UNL     1      32.777   5.838  47.440  1.00  0.00     0.184 C 
ENDROOT
BRANCH   9  15
HETATM   15  N3  UNL     1      26.928   3.784  49.204  1.00  0.00    -0.325 N 
HETATM   16  H9  UNL     1      27.381   3.109  48.568  1.00  0.00     0.169 HD
BRANCH  15  17
HETATM   17  C9  UNL     1      26.449   3.116  50.348  1.00  0.00     0.130 A 
HETATM   18  C10 UNL     1      25.125   2.807  50.484  1.00  0.00     0.074 A 
HETATM   19  C11 UNL     1      24.579   2.153  51.579  1.00  0.00     0.039 A 
HETATM   20 CL1  UNL     1      22.874   1.759  51.742  1.00  0.00    -0.084 Cl
HETATM   21  C12 UNL     1      25.415   1.772  52.629  1.00  0.00     0.043 A 
HETATM   22  C13 UNL     1      26.718   2.106  52.437  1.00  0.00     0.120 A 
HETATM   23  N4  UNL     1      27.191   2.730  51.376  1.00  0.00    -0.243 NA
ENDBRANCH  15  17
ENDBRANCH   9  15
BRANCH  14  24
HETATM   24  C18 UNL     1      33.258   5.986  48.853  1.00  0.00     0.202 C 
BRANCH  24  25
HETATM   25  O4  UNL     1      34.513   5.455  49.016  1.00  0.00    -0.393 OA
HETATM   26  C19 UNL     1      34.824   4.456  48.127  1.00  0.00     0.201 C 
ENDBRANCH  24  25
ENDBRANCH  14  24
BRANCH   1  27
HETATM   27  C2  UNL     1      33.770   8.107  47.095  1.00  0.00     0.202 C 
BRANCH  27  28
HETATM   28  O1  UNL     1      34.552   8.563  46.059  1.00  0.00    -0.393 OA
HETATM   29  C1  UNL     1      33.967   9.559  45.302  1.00  0.00     0.201 C 
ENDBRANCH  27  28
ENDBRANCH   1  27
TORSDOF 6
ENDMDL
