MODEL 1
REMARK VINA RESULT:      -8.2      0.000      0.000
REMARK  6 active torsions:
REMARK  status: ('A' for Active; 'I' for Inactive)
REMARK       I    between atoms: C1_2  and  N1_3 
REMARK    1  A    between atoms: C1_2  and  C8_12 
REMARK    2  A    between atoms: N1_3  and  C2_4 
REMARK    3  A    between atoms: C2_4  and  C3_5 
REMARK    4  A    between atoms: C4_6  and  C5_7 
REMARK    5  A    between atoms: C4_6  and  C6_9 
REMARK    6  A    between atoms: C6_9  and  C7_10 
ROOT
HETATM    1  C8  UNL     1      26.791   2.137  52.051  1.00  0.00     0.028 C 
HETATM    2  C9  UNL     1      26.048   1.038  52.070  1.00  0.00    -0.005 C 
HETATM    3  C10 UNL     1      25.934  -0.110  53.042  1.00  0.00     0.068 C 
HETATM    4  C11 UNL     1      27.246  -0.791  53.195  1.00  0.00    -0.031 A 
HETATM    5  C12 UNL     1      27.013  -2.066  52.719  1.00  0.00     0.124 A 
HETATM    6  N2  UNL     1      28.027  -2.942  52.724  1.00  0.00    -0.273 NA
HETATM    7  C13 UNL     1      29.235  -2.594  53.179  1.00  0.00     0.116 A 
HETATM    8  C14 UNL     1      29.459  -1.321  53.653  1.00  0.00     0.027 A 
HETATM    9  C15 UNL     1      28.456  -0.342  53.684  1.00  0.00    -0.045 A 
HETATM   10  C16 UNL     1      29.137   0.823  54.253  1.00  0.00     0.066 C 
HETATM   11  C17 UNL     1      28.660   2.131  53.758  1.00  0.00    -0.021 C 
HETATM   12  C18 UNL     1      27.793   2.706  52.941  1.00  0.00     0.013 C 
ENDROOT
BRANCH   1  13
HETATM   13  C1  UNL     1      26.497   2.916  50.854  1.00  0.00     0.251 C 
HETATM   14  O1  UNL     1      26.865   2.422  49.742  1.00  0.00    -0.268 OA
HETATM   15  N1  UNL     1      25.850   4.172  50.725  1.00  0.00    -0.353 N 
HETATM   16  H1  UNL     1      25.540   4.601  51.613  1.00  0.00     0.163 HD
BRANCH  15  17
HETATM   17  C2  UNL     1      25.815   4.498  49.291  1.00  0.00     0.150 C 
BRANCH  17  18
HETATM   18  C3  UNL     1      26.294   5.862  49.084  1.00  0.00    -0.004 C 
HETATM   19  C4  UNL     1      27.416   6.464  48.671  1.00  0.00    -0.066 C 
BRANCH  19  20
HETATM   20  C5  UNL     1      28.592   5.659  48.277  1.00  0.00     0.148 C 
HETATM   21 CL1  UNL     1      29.825   6.648  47.445  1.00  0.00    -0.126 Cl
ENDBRANCH  19  20
BRANCH  19  22
HETATM   22  C6  UNL     1      27.456   7.943  48.622  1.00  0.00     0.066 C 
BRANCH  22  23
HETATM   23  C7  UNL     1      26.701   8.535  49.800  1.00  0.00     0.226 C 
HETATM   24  F1  UNL     1      27.557   9.146  50.686  1.00  0.00    -0.255 F 
ENDBRANCH  22  23
ENDBRANCH  19  22
ENDBRANCH  17  18
ENDBRANCH  15  17
ENDBRANCH   1  13
TORSDOF 6
ENDMDL
MODEL 2
REMARK VINA RESULT:      -7.8      3.706      8.591
REMARK  6 active torsions:
REMARK  status: ('A' for Active; 'I' for Inactive)
REMARK       I    between atoms: C1_2  and  N1_3 
REMARK    1  A    between atoms: C1_2  and  C8_12 
REMARK    2  A    between atoms: N1_3  and  C2_4 
REMARK    3  A    between atoms: C2_4  and  C3_5 
REMARK    4  A    between atoms: C4_6  and  C5_7 
REMARK    5  A    between atoms: C4_6  and  C6_9 
REMARK    6  A    between atoms: C6_9  and  C7_10 
ROOT
HETATM    1  C8  UNL     1      26.550   4.790  49.110  1.00  0.00     0.028 C 
HETATM    2  C9  UNL     1      25.596   5.702  48.981  1.00  0.00    -0.005 C 
HETATM    3  C10 UNL     1      25.505   6.993  48.204  1.00  0.00     0.068 C 
HETATM    4  C11 UNL     1      26.577   7.930  48.629  1.00  0.00    -0.031 A 
HETATM    5  C12 UNL     1      25.886   9.000  49.164  1.00  0.00     0.124 A 
HETATM    6  N2  UNL     1      26.589  10.033  49.646  1.00  0.00    -0.273 NA
HETATM    7  C13 UNL     1      27.926  10.033  49.611  1.00  0.00     0.116 A 
HETATM    8  C14 UNL     1      28.607   8.963  49.076  1.00  0.00     0.027 A 
HETATM    9  C15 UNL     1      27.952   7.840  48.550  1.00  0.00    -0.045 A 
HETATM   10  C16 UNL     1      29.053   6.983  48.106  1.00  0.00     0.066 C 
HETATM   11  C17 UNL     1      28.796   5.531  48.208  1.00  0.00    -0.021 C 
HETATM   12  C18 UNL     1      27.893   4.634  48.570  1.00  0.00     0.013 C 
ENDROOT
BRANCH   1  13
HETATM   13  C1  UNL     1      26.102   3.726  50.000  1.00  0.00     0.251 C 
HETATM   14  O1  UNL     1      24.988   3.178  49.727  1.00  0.00    -0.268 OA
HETATM   15  N1  UNL     1      26.726   3.186  51.155  1.00  0.00    -0.353 N 
HETATM   16  H1  UNL     1      27.633   3.613  51.405  1.00  0.00     0.163 HD
BRANCH  15  17
HETATM   17  C2  UNL     1      25.843   2.130  51.673  1.00  0.00     0.150 C 
BRANCH  17  18
HETATM   18  C3  UNL     1      26.632   0.945  52.000  1.00  0.00    -0.004 C 
HETATM   19  C4  UNL     1      26.672   0.020  52.967  1.00  0.00    -0.066 C 
BRANCH  19  20
HETATM   20  C5  UNL     1      25.712   0.075  54.091  1.00  0.00     0.148 C 
HETATM   21 CL1  UNL     1      24.081  -0.460  53.597  1.00  0.00    -0.126 Cl
ENDBRANCH  19  20
BRANCH  19  22
HETATM   22  C6  UNL     1      27.693  -1.048  52.890  1.00  0.00     0.066 C 
BRANCH  22  23
HETATM   23  C7  UNL     1      28.896  -0.699  53.750  1.00  0.00     0.226 C 
HETATM   24  F1  UNL     1      30.074  -1.008  53.111  1.00  0.00    -0.255 F 
ENDBRANCH  22  23
ENDBRANCH  19  22
ENDBRANCH  17  18
ENDBRANCH  15  17
ENDBRANCH   1  13
TORSDOF 6
ENDMDL
MODEL 3
REMARK VINA RESULT:      -7.5      3.530      8.577
REMARK  6 active torsions:
REMARK  status: ('A' for Active; 'I' for Inactive)
REMARK       I    between atoms: C1_2  and  N1_3 
REMARK    1  A    between atoms: C1_2  and  C8_12 
REMARK    2  A    between atoms: N1_3  and  C2_4 
REMARK    3  A    between atoms: C2_4  and  C3_5 
REMARK    4  A    between atoms: C4_6  and  C5_7 
REMARK    5  A    between atoms: C4_6  and  C6_9 
REMARK    6  A    between atoms: C6_9  and  C7_10 
ROOT
HETATM    1  C8  UNL     1      26.561   5.177  48.937  1.00  0.00     0.028 C 
HETATM    2  C9  UNL     1      25.658   6.123  48.712  1.00  0.00    -0.005 C 
HETATM    3  C10 UNL     1      25.685   7.402  47.911  1.00  0.00     0.068 C 
HETATM    4  C11 UNL     1      26.752   8.305  48.414  1.00  0.00    -0.031 A 
HETATM    5  C12 UNL     1      26.060   9.409  48.871  1.00  0.00     0.124 A 
HETATM    6  N2  UNL     1      26.759  10.424  49.397  1.00  0.00    -0.273 NA
HETATM    7  C13 UNL     1      28.093  10.373  49.478  1.00  0.00     0.116 A 
HETATM    8  C14 UNL     1      28.775   9.269  49.019  1.00  0.00     0.027 A 
HETATM    9  C15 UNL     1      28.124   8.162  48.456  1.00  0.00    -0.045 A 
HETATM   10  C16 UNL     1      29.225   7.256  48.121  1.00  0.00     0.066 C 
HETATM   11  C17 UNL     1      28.903   5.817  48.222  1.00  0.00    -0.021 C 
HETATM   12  C18 UNL     1      27.938   4.962  48.517  1.00  0.00     0.013 C 
ENDROOT
BRANCH   1  13
HETATM   13  C1  UNL     1      25.997   4.147  49.800  1.00  0.00     0.251 C 
HETATM   14  O1  UNL     1      24.769   3.865  49.635  1.00  0.00    -0.268 OA
HETATM   15  N1  UNL     1      26.615   3.385  50.826  1.00  0.00    -0.353 N 
HETATM   16  H1  UNL     1      27.615   3.592  50.988  1.00  0.00     0.163 HD
BRANCH  15  17
HETATM   17  C2  UNL     1      25.590   2.486  51.378  1.00  0.00     0.150 C 
BRANCH  17  18
HETATM   18  C3  UNL     1      26.216   1.253  51.848  1.00  0.00    -0.004 C 
HETATM   19  C4  UNL     1      26.925   0.846  52.908  1.00  0.00    -0.066 C 
BRANCH  19  20
HETATM   20  C5  UNL     1      27.246   1.792  53.997  1.00  0.00     0.148 C 
HETATM   21 CL1  UNL     1      28.782   2.654  53.696  1.00  0.00    -0.126 Cl
ENDBRANCH  19  20
BRANCH  19  22
HETATM   22  C6  UNL     1      27.380  -0.561  52.963  1.00  0.00     0.066 C 
BRANCH  22  23
HETATM   23  C7  UNL     1      26.329  -1.484  52.369  1.00  0.00     0.226 C 
HETATM   24  F1  UNL     1      26.883  -2.677  51.964  1.00  0.00    -0.255 F 
ENDBRANCH  22  23
ENDBRANCH  19  22
ENDBRANCH  17  18
ENDBRANCH  15  17
ENDBRANCH   1  13
TORSDOF 6
ENDMDL
MODEL 4
REMARK VINA RESULT:      -7.5      4.376      8.671
REMARK  6 active torsions:
REMARK  status: ('A' for Active; 'I' for Inactive)
REMARK       I    between atoms: C1_2  and  N1_3 
REMARK    1  A    between atoms: C1_2  and  C8_12 
REMARK    2  A    between atoms: N1_3  and  C2_4 
REMARK    3  A    between atoms: C2_4  and  C3_5 
REMARK    4  A    between atoms: C4_6  and  C5_7 
REMARK    5  A    between atoms: C4_6  and  C6_9 
REMARK    6  A    between atoms: C6_9  and  C7_10 
ROOT
HETATM    1  C8  UNL     1      26.268   4.539  49.689  1.00  0.00     0.028 C 
HETATM    2  C9  UNL     1      25.301   5.445  49.736  1.00  0.00    -0.005 C 
HETATM    3  C10 UNL     1      25.029   6.702  48.945  1.00  0.00     0.068 C 
HETATM    4  C11 UNL     1      26.160   7.656  49.085  1.00  0.00    -0.031 A 
HETATM    5  C12 UNL     1      25.594   8.747  49.715  1.00  0.00     0.124 A 
HETATM    6  N2  UNL     1      26.376   9.800  49.987  1.00  0.00    -0.273 NA
HETATM    7  C13 UNL     1      27.672   9.799  49.659  1.00  0.00     0.116 A 
HETATM    8  C14 UNL     1      28.229   8.707  49.031  1.00  0.00     0.027 A 
HETATM    9  C15 UNL     1      27.484   7.564  48.709  1.00  0.00    -0.045 A 
HETATM   10  C16 UNL     1      28.468   6.688  48.068  1.00  0.00     0.066 C 
HETATM   11  C17 UNL     1      28.253   5.242  48.284  1.00  0.00    -0.021 C 
HETATM   12  C18 UNL     1      27.461   4.361  48.872  1.00  0.00     0.013 C 
ENDROOT
BRANCH   1  13
HETATM   13  C1  UNL     1      26.038   3.513  50.698  1.00  0.00     0.251 C 
HETATM   14  O1  UNL     1      27.043   2.825  51.059  1.00  0.00    -0.268 OA
HETATM   15  N1  UNL     1      24.838   3.146  51.361  1.00  0.00    -0.353 N 
HETATM   16  H1  UNL     1      24.000   3.687  51.088  1.00  0.00     0.163 HD
BRANCH  15  17
HETATM   17  C2  UNL     1      25.169   2.050  52.285  1.00  0.00     0.150 C 
BRANCH  17  18
HETATM   18  C3  UNL     1      24.016   1.167  52.435  1.00  0.00    -0.004 C 
HETATM   19  C4  UNL     1      23.705   0.052  53.107  1.00  0.00    -0.066 C 
BRANCH  19  20
HETATM   20  C5  UNL     1      24.703  -0.589  53.989  1.00  0.00     0.148 C 
HETATM   21 CL1  UNL     1      26.083  -1.246  53.064  1.00  0.00    -0.126 Cl
ENDBRANCH  19  20
BRANCH  19  22
HETATM   22  C6  UNL     1      22.352  -0.525  52.945  1.00  0.00     0.066 C 
BRANCH  22  23
HETATM   23  C7  UNL     1      21.890  -1.173  54.239  1.00  0.00     0.226 C 
HETATM   24  F1  UNL     1      21.550  -0.227  55.179  1.00  0.00    -0.255 F 
ENDBRANCH  22  23
ENDBRANCH  19  22
ENDBRANCH  17  18
ENDBRANCH  15  17
ENDBRANCH   1  13
TORSDOF 6
ENDMDL
MODEL 5
REMARK VINA RESULT:      -7.4      2.861      4.056
REMARK  6 active torsions:
REMARK  status: ('A' for Active; 'I' for Inactive)
REMARK       I    between atoms: C1_2  and  N1_3 
REMARK    1  A    between atoms: C1_2  and  C8_12 
REMARK    2  A    between atoms: N1_3  and  C2_4 
REMARK    3  A    between atoms: C2_4  and  C3_5 
REMARK    4  A    between atoms: C4_6  and  C5_7 
REMARK    5  A    between atoms: C4_6  and  C6_9 
REMARK    6  A    between atoms: C6_9  and  C7_10 
ROOT
HETATM    1  C8  UNL     1      23.552   2.173  51.613  1.00  0.00     0.028 C 
HETATM    2  C9  UNL     1      24.777   1.804  51.962  1.00  0.00    -0.005 C 
HETATM    3  C10 UNL     1      25.400   0.463  52.266  1.00  0.00     0.068 C 
HETATM    4  C11 UNL     1      24.699  -0.187  53.404  1.00  0.00    -0.031 A 
HETATM    5  C12 UNL     1      25.672  -0.280  54.380  1.00  0.00     0.124 A 
HETATM    6  N2  UNL     1      25.342  -0.833  55.555  1.00  0.00    -0.273 NA
HETATM    7  C13 UNL     1      24.105  -1.287  55.780  1.00  0.00     0.116 A 
HETATM    8  C14 UNL     1      23.141  -1.191  54.801  1.00  0.00     0.027 A 
HETATM    9  C15 UNL     1      23.399  -0.626  53.544  1.00  0.00    -0.045 A 
HETATM   10  C16 UNL     1      22.112  -0.738  52.852  1.00  0.00     0.066 C 
HETATM   11  C17 UNL     1      21.821   0.348  51.893  1.00  0.00    -0.021 C 
HETATM   12  C18 UNL     1      22.302   1.465  51.374  1.00  0.00     0.013 C 
ENDROOT
BRANCH   1  13
HETATM   13  C1  UNL     1      23.498   3.619  51.441  1.00  0.00     0.251 C 
HETATM   14  O1  UNL     1      22.538   4.082  50.750  1.00  0.00    -0.268 OA
HETATM   15  N1  UNL     1      24.371   4.625  51.934  1.00  0.00    -0.353 N 
HETATM   16  H1  UNL     1      25.165   4.280  52.500  1.00  0.00     0.163 HD
BRANCH  15  17
HETATM   17  C2  UNL     1      23.853   5.919  51.465  1.00  0.00     0.150 C 
BRANCH  17  18
HETATM   18  C3  UNL     1      24.902   6.640  50.750  1.00  0.00    -0.004 C 
HETATM   19  C4  UNL     1      25.690   6.441  49.686  1.00  0.00    -0.066 C 
BRANCH  19  20
HETATM   20  C5  UNL     1      25.590   5.188  48.910  1.00  0.00     0.148 C 
HETATM   21 CL1  UNL     1      26.852   4.013  49.380  1.00  0.00    -0.126 Cl
ENDBRANCH  19  20
BRANCH  19  22
HETATM   22  C6  UNL     1      26.659   7.495  49.310  1.00  0.00     0.066 C 
BRANCH  22  23
HETATM   23  C7  UNL     1      26.346   8.791  50.038  1.00  0.00     0.226 C 
HETATM   24  F1  UNL     1      27.406   9.195  50.817  1.00  0.00    -0.255 F 
ENDBRANCH  22  23
ENDBRANCH  19  22
ENDBRANCH  17  18
ENDBRANCH  15  17
ENDBRANCH   1  13
TORSDOF 6
ENDMDL
MODEL 6
REMARK VINA RESULT:      -7.0      3.077      4.784
REMARK  6 active torsions:
REMARK  status: ('A' for Active; 'I' for Inactive)
REMARK       I    between atoms: C1_2  and  N1_3 
REMARK    1  A    between atoms: C1_2  and  C8_12 
REMARK    2  A    between atoms: N1_3  and  C2_4 
REMARK    3  A    between atoms: C2_4  and  C3_5 
REMARK    4  A    between atoms: C4_6  and  C5_7 
REMARK    5  A    between atoms: C4_6  and  C6_9 
REMARK    6  A    between atoms: C6_9  and  C7_10 
ROOT
HETATM    1  C8  UNL     1      25.047   5.910  50.175  1.00  0.00     0.028 C 
HETATM    2  C9  UNL     1      25.765   4.909  49.685  1.00  0.00    -0.005 C 
HETATM    3  C10 UNL     1      25.597   3.409  49.717  1.00  0.00     0.068 C 
HETATM    4  C11 UNL     1      25.565   2.922  51.121  1.00  0.00    -0.031 A 
HETATM    5  C12 UNL     1      26.680   2.113  51.214  1.00  0.00     0.124 A 
HETATM    6  N2  UNL     1      26.934   1.513  52.384  1.00  0.00    -0.273 NA
HETATM    7  C13 UNL     1      26.129   1.689  53.437  1.00  0.00     0.116 A 
HETATM    8  C14 UNL     1      25.018   2.496  53.336  1.00  0.00     0.027 A 
HETATM    9  C15 UNL     1      24.679   3.163  52.150  1.00  0.00    -0.045 A 
HETATM   10  C16 UNL     1      23.453   3.883  52.506  1.00  0.00     0.066 C 
HETATM   11  C17 UNL     1      23.265   5.176  51.816  1.00  0.00    -0.021 C 
HETATM   12  C18 UNL     1      23.809   6.001  50.936  1.00  0.00     0.013 C 
ENDROOT
BRANCH   1  13
HETATM   13  C1  UNL     1      25.679   7.182  49.848  1.00  0.00     0.251 C 
HETATM   14  O1  UNL     1      25.467   7.649  48.685  1.00  0.00    -0.268 OA
HETATM   15  N1  UNL     1      26.519   8.008  50.640  1.00  0.00    -0.353 N 
HETATM   16  H1  UNL     1      26.712   7.655  51.592  1.00  0.00     0.163 HD
BRANCH  15  17
HETATM   17  C2  UNL     1      26.877   9.177  49.822  1.00  0.00     0.150 C 
BRANCH  17  18
HETATM   18  C3  UNL     1      28.330   9.310  49.762  1.00  0.00    -0.004 C 
HETATM   19  C4  UNL     1      29.330   8.880  48.983  1.00  0.00    -0.066 C 
BRANCH  19  20
HETATM   20  C5  UNL     1      29.049   8.021  47.814  1.00  0.00     0.148 C 
HETATM   21 CL1  UNL     1      28.841   6.309  48.283  1.00  0.00    -0.126 Cl
ENDBRANCH  19  20
BRANCH  19  22
HETATM   22  C6  UNL     1      30.716   9.279  49.319  1.00  0.00     0.066 C 
BRANCH  22  23
HETATM   23  C7  UNL     1      31.703   8.627  48.366  1.00  0.00     0.226 C 
HETATM   24  F1  UNL     1      32.223   7.470  48.900  1.00  0.00    -0.255 F 
ENDBRANCH  22  23
ENDBRANCH  19  22
ENDBRANCH  17  18
ENDBRANCH  15  17
ENDBRANCH   1  13
TORSDOF 6
ENDMDL
MODEL 7
REMARK VINA RESULT:      -6.8      5.100      8.710
REMARK  6 active torsions:
REMARK  status: ('A' for Active; 'I' for Inactive)
REMARK       I    between atoms: C1_2  and  N1_3 
REMARK    1  A    between atoms: C1_2  and  C8_12 
REMARK    2  A    between atoms: N1_3  and  C2_4 
REMARK    3  A    between atoms: C2_4  and  C3_5 
REMARK    4  A    between atoms: C4_6  and  C5_7 
REMARK    5  A    between atoms: C4_6  and  C6_9 
REMARK    6  A    between atoms: C6_9  and  C7_10 
ROOT
HETATM    1  C8  UNL     1      26.356   4.988  49.124  1.00  0.00     0.028 C 
HETATM    2  C9  UNL     1      25.491   5.967  48.897  1.00  0.00    -0.005 C 
HETATM    3  C10 UNL     1      25.547   7.213  48.046  1.00  0.00     0.068 C 
HETATM    4  C11 UNL     1      26.676   8.080  48.471  1.00  0.00    -0.031 A 
HETATM    5  C12 UNL     1      26.057   9.234  48.910  1.00  0.00     0.124 A 
HETATM    6  N2  UNL     1      26.824  10.232  49.369  1.00  0.00    -0.273 NA
HETATM    7  C13 UNL     1      28.156  10.118  49.400  1.00  0.00     0.116 A 
HETATM    8  C14 UNL     1      28.766   8.965  48.959  1.00  0.00     0.027 A 
HETATM    9  C15 UNL     1      28.039   7.872  48.465  1.00  0.00    -0.045 A 
HETATM   10  C16 UNL     1      29.081   6.900  48.124  1.00  0.00     0.066 C 
HETATM   11  C17 UNL     1      28.695   5.484  48.293  1.00  0.00    -0.021 C 
HETATM   12  C18 UNL     1      27.704   4.689  48.660  1.00  0.00     0.013 C 
ENDROOT
BRANCH   1  13
HETATM   13  C1  UNL     1      25.780   4.019  50.048  1.00  0.00     0.251 C 
HETATM   14  O1  UNL     1      26.534   3.072  50.433  1.00  0.00    -0.268 OA
HETATM   15  N1  UNL     1      24.475   3.960  50.603  1.00  0.00    -0.353 N 
HETATM   16  H1  UNL     1      23.836   4.717  50.307  1.00  0.00     0.163 HD
BRANCH  15  17
HETATM   17  C2  UNL     1      24.426   2.778  51.476  1.00  0.00     0.150 C 
BRANCH  17  18
HETATM   18  C3  UNL     1      23.240   1.985  51.166  1.00  0.00    -0.004 C 
HETATM   19  C4  UNL     1      22.592   0.932  51.681  1.00  0.00    -0.066 C 
BRANCH  19  20
HETATM   20  C5  UNL     1      23.093   0.275  52.907  1.00  0.00     0.148 C 
HETATM   21 CL1  UNL     1      21.818   0.130  54.150  1.00  0.00    -0.126 Cl
ENDBRANCH  19  20
BRANCH  19  22
HETATM   22  C6  UNL     1      21.375   0.441  50.997  1.00  0.00     0.066 C 
BRANCH  22  23
HETATM   23  C7  UNL     1      21.378   0.861  49.537  1.00  0.00     0.226 C 
HETATM   24  F1  UNL     1      20.116   1.213  49.116  1.00  0.00    -0.255 F 
ENDBRANCH  22  23
ENDBRANCH  19  22
ENDBRANCH  17  18
ENDBRANCH  15  17
ENDBRANCH   1  13
TORSDOF 6
ENDMDL
MODEL 8
REMARK VINA RESULT:      -6.8      4.317      8.459
REMARK  6 active torsions:
REMARK  status: ('A' for Active; 'I' for Inactive)
REMARK       I    between atoms: C1_2  and  N1_3 
REMARK    1  A    between atoms: C1_2  and  C8_12 
REMARK    2  A    between atoms: N1_3  and  C2_4 
REMARK    3  A    between atoms: C2_4  and  C3_5 
REMARK    4  A    between atoms: C4_6  and  C5_7 
REMARK    5  A    between atoms: C4_6  and  C6_9 
REMARK    6  A    between atoms: C6_9  and  C7_10 
ROOT
HETATM    1  C8  UNL     1      26.214   5.859  49.164  1.00  0.00     0.028 C 
HETATM    2  C9  UNL     1      25.909   7.111  48.850  1.00  0.00    -0.005 C 
HETATM    3  C10 UNL     1      26.530   8.117  47.911  1.00  0.00     0.068 C 
HETATM    4  C11 UNL     1      27.942   8.378  48.292  1.00  0.00    -0.031 A 
HETATM    5  C12 UNL     1      27.948   9.716  48.634  1.00  0.00     0.124 A 
HETATM    6  N2  UNL     1      29.104  10.265  49.032  1.00  0.00    -0.273 NA
HETATM    7  C13 UNL     1      30.225   9.539  49.096  1.00  0.00     0.116 A 
HETATM    8  C14 UNL     1      30.211   8.206  48.753  1.00  0.00     0.027 A 
HETATM    9  C15 UNL     1      29.046   7.551  48.327  1.00  0.00    -0.045 A 
HETATM   10  C16 UNL     1      29.500   6.181  48.077  1.00  0.00     0.066 C 
HETATM   11  C17 UNL     1      28.495   5.131  48.343  1.00  0.00    -0.021 C 
HETATM   12  C18 UNL     1      27.252   4.927  48.748  1.00  0.00     0.013 C 
ENDROOT
BRANCH   1  13
HETATM   13  C1  UNL     1      25.266   5.348  50.146  1.00  0.00     0.251 C 
HETATM   14  O1  UNL     1      24.312   6.118  50.480  1.00  0.00    -0.268 OA
HETATM   15  N1  UNL     1      25.234   4.094  50.810  1.00  0.00    -0.353 N 
HETATM   16  H1  UNL     1      25.999   3.444  50.561  1.00  0.00     0.163 HD
BRANCH  15  17
HETATM   17  C2  UNL     1      24.061   4.100  51.697  1.00  0.00     0.150 C 
BRANCH  17  18
HETATM   18  C3  UNL     1      23.792   2.744  52.168  1.00  0.00    -0.004 C 
HETATM   19  C4  UNL     1      24.382   1.834  52.953  1.00  0.00    -0.066 C 
BRANCH  19  20
HETATM   20  C5  UNL     1      25.676   2.136  53.600  1.00  0.00     0.148 C 
HETATM   21 CL1  UNL     1      27.059   1.643  52.581  1.00  0.00    -0.126 Cl
ENDBRANCH  19  20
BRANCH  19  22
HETATM   22  C6  UNL     1      23.717   0.528  53.153  1.00  0.00     0.066 C 
BRANCH  22  23
HETATM   23  C7  UNL     1      22.263   0.598  52.718  1.00  0.00     0.226 C 
HETATM   24  F1  UNL     1      21.922  -0.482  51.936  1.00  0.00    -0.255 F 
ENDBRANCH  22  23
ENDBRANCH  19  22
ENDBRANCH  17  18
ENDBRANCH  15  17
ENDBRANCH   1  13
TORSDOF 6
ENDMDL
MODEL 9
REMARK VINA RESULT:      -6.7      4.070      5.158
REMARK  6 active torsions:
REMARK  status: ('A' for Active; 'I' for Inactive)
REMARK       I    between atoms: C1_2  and  N1_3 
REMARK    1  A    between atoms: C1_2  and  C8_12 
REMARK    2  A    between atoms: N1_3  and  C2_4 
REMARK    3  A    between atoms: C2_4  and  C3_5 
REMARK    4  A    between atoms: C4_6  and  C5_7 
REMARK    5  A    between atoms: C4_6  and  C6_9 
REMARK    6  A    between atoms: C6_9  and  C7_10 
ROOT
HETATM    1  C8  UNL     1      23.769   2.666  51.912  1.00  0.00     0.028 C 
HETATM    2  C9  UNL     1      24.914   2.083  52.242  1.00  0.00    -0.005 C 
HETATM    3  C10 UNL     1      25.338   0.638  52.353  1.00  0.00     0.068 C 
HETATM    4  C11 UNL     1      24.494  -0.074  53.346  1.00  0.00    -0.031 A 
HETATM    5  C12 UNL     1      25.388  -0.448  54.330  1.00  0.00     0.124 A 
HETATM    6  N2  UNL     1      24.922  -1.123  55.389  1.00  0.00    -0.273 NA
HETATM    7  C13 UNL     1      23.625  -1.431  55.494  1.00  0.00     0.116 A 
HETATM    8  C14 UNL     1      22.740  -1.055  54.508  1.00  0.00     0.027 A 
HETATM    9  C15 UNL     1      23.141  -0.346  53.367  1.00  0.00    -0.045 A 
HETATM   10  C16 UNL     1      21.893  -0.173  52.620  1.00  0.00     0.066 C 
HETATM   11  C17 UNL     1      21.802   1.076  51.835  1.00  0.00    -0.021 C 
HETATM   12  C18 UNL     1      22.454   2.182  51.518  1.00  0.00     0.013 C 
ENDROOT
BRANCH   1  13
HETATM   13  C1  UNL     1      23.915   4.115  51.970  1.00  0.00     0.251 C 
HETATM   14  O1  UNL     1      23.461   4.699  53.004  1.00  0.00    -0.268 OA
HETATM   15  N1  UNL     1      24.498   5.007  51.032  1.00  0.00    -0.353 N 
HETATM   16  H1  UNL     1      24.876   4.563  50.179  1.00  0.00     0.163 HD
BRANCH  15  17
HETATM   17  C2  UNL     1      24.382   6.363  51.590  1.00  0.00     0.150 C 
BRANCH  17  18
HETATM   18  C3  UNL     1      23.902   7.280  50.560  1.00  0.00    -0.004 C 
HETATM   19  C4  UNL     1      22.727   7.748  50.121  1.00  0.00    -0.066 C 
BRANCH  19  20
HETATM   20  C5  UNL     1      21.467   7.307  50.755  1.00  0.00     0.148 C 
HETATM   21 CL1  UNL     1      21.067   5.618  50.334  1.00  0.00    -0.126 Cl
ENDBRANCH  19  20
BRANCH  19  22
HETATM   22  C6  UNL     1      22.717   8.705  48.992  1.00  0.00     0.066 C 
BRANCH  22  23
HETATM   23  C7  UNL     1      22.964   7.982  47.679  1.00  0.00     0.226 C 
HETATM   24  F1  UNL     1      22.746   6.629  47.804  1.00  0.00    -0.255 F 
ENDBRANCH  22  23
ENDBRANCH  19  22
ENDBRANCH  17  18
ENDBRANCH  15  17
ENDBRANCH   1  13
TORSDOF 6
ENDMDL
