MODEL 1
REMARK VINA RESULT:      -9.0      0.000      0.000
REMARK  3 active torsions:
REMARK  status: ('A' for Active; 'I' for Inactive)
REMARK    1  A    between atoms: C2_2  and  O1_3 
REMARK    2  A    between atoms: O1_3  and  C3_4 
REMARK       I    between atoms: C3_4  and  N1_6 
REMARK    3  A    between atoms: N5_22  and  C16_23 
ROOT
HETATM    1  C3  UNL     1      26.173  -1.033  53.383  1.00  0.00     0.378 C 
HETATM    2  O2  UNL     1      25.547  -1.628  54.291  1.00  0.00    -0.237 OA
HETATM    3  N1  UNL     1      25.324   0.043  52.966  1.00  0.00    -0.254 N 
HETATM    4  C4  UNL     1      24.043   0.227  53.598  1.00  0.00     0.168 C 
HETATM    5  C5  UNL     1      22.908  -0.525  52.903  1.00  0.00     0.143 C 
HETATM    6  N2  UNL     1      21.670  -0.154  53.619  1.00  0.00    -0.393 N 
HETATM    7  C6  UNL     1      21.650  -0.710  54.985  1.00  0.00     0.148 C 
HETATM    8  C7  UNL     1      20.534   0.647  53.245  1.00  0.00     0.085 C 
HETATM    9  C8  UNL     1      20.204   1.711  52.537  1.00  0.00     0.017 C 
HETATM   10  C9  UNL     1      20.742   2.775  51.671  1.00  0.00    -0.000 C 
HETATM   11  C10 UNL     1      21.837   3.260  51.110  1.00  0.00     0.004 C 
HETATM   12  C11 UNL     1      23.256   2.982  51.027  1.00  0.00     0.154 C 
HETATM   13  C12 UNL     1      24.028   3.624  52.133  1.00  0.00     0.003 C 
HETATM   14  C13 UNL     1      25.068   3.169  52.872  1.00  0.00     0.015 C 
HETATM   15  C14 UNL     1      26.170   2.218  52.448  1.00  0.00     0.223 C 
HETATM   16  N3  UNL     1      26.915   2.839  51.337  1.00  0.00    -0.258 NA
HETATM   17  C15 UNL     1      26.515   3.374  50.208  1.00  0.00     0.219 C 
HETATM   18  N4  UNL     1      25.277   3.353  49.509  1.00  0.00    -0.291 N 
HETATM   19  N5  UNL     1      23.908   3.304  49.784  1.00  0.00    -0.280 N 
HETATM   20  N6  UNL     1      25.536   1.005  51.984  1.00  0.00    -0.205 NA
HETATM   21  H20 UNL     1      25.462   3.378  48.477  1.00  0.00     0.188 HD
HETATM   22  H25 UNL     1      26.032   0.541  51.191  1.00  0.00     0.149 HD
ENDROOT
BRANCH  19  23
HETATM   23  C16 UNL     1      23.176   3.650  48.614  1.00  0.00     0.053 A 
HETATM   24  C17 UNL     1      22.458   2.776  47.827  1.00  0.00     0.031 A 
HETATM   25  C18 UNL     1      21.750   3.161  46.728  1.00  0.00     0.004 A 
HETATM   26  C19 UNL     1      21.709   4.476  46.329  1.00  0.00     0.024 A 
HETATM   27  C20 UNL     1      22.417   5.393  47.089  1.00  0.00     0.036 A 
HETATM   28 CL1  UNL     1      22.334   7.046  46.540  1.00  0.00    -0.084 Cl
HETATM   29  C21 UNL     1      23.112   4.953  48.185  1.00  0.00     0.055 A 
ENDBRANCH  19  23
BRANCH   1  30
HETATM   30  O1  UNL     1      27.404  -1.188  52.762  1.00  0.00    -0.295 OA
BRANCH  30  31
HETATM   31  C2  UNL     1      28.514  -0.663  53.448  1.00  0.00     0.163 C 
HETATM   32  C1  UNL     1      29.801  -0.991  53.447  1.00  0.00     0.038 C 
ENDBRANCH  30  31
ENDBRANCH   1  30
TORSDOF 3
ENDMDL
MODEL 2
REMARK VINA RESULT:      -8.5      4.058      7.017
REMARK  3 active torsions:
REMARK  status: ('A' for Active; 'I' for Inactive)
REMARK    1  A    between atoms: C2_2  and  O1_3 
REMARK    2  A    between atoms: O1_3  and  C3_4 
REMARK       I    between atoms: C3_4  and  N1_6 
REMARK    3  A    between atoms: N5_22  and  C16_23 
ROOT
HETATM    1  C3  UNL     1      22.157   7.290  50.561  1.00  0.00     0.378 C 
HETATM    2  O2  UNL     1      20.909   7.301  50.674  1.00  0.00    -0.237 OA
HETATM    3  N1  UNL     1      22.540   5.911  50.610  1.00  0.00    -0.254 N 
HETATM    4  C4  UNL     1      21.530   4.895  50.761  1.00  0.00     0.168 C 
HETATM    5  C5  UNL     1      21.237   4.542  52.219  1.00  0.00     0.143 C 
HETATM    6  N2  UNL     1      20.259   3.435  52.186  1.00  0.00    -0.393 N 
HETATM    7  C6  UNL     1      18.949   3.887  51.683  1.00  0.00     0.148 C 
HETATM    8  C7  UNL     1      20.362   2.038  52.518  1.00  0.00     0.085 C 
HETATM    9  C8  UNL     1      21.207   1.025  52.488  1.00  0.00     0.017 C 
HETATM   10  C9  UNL     1      22.577   0.632  52.114  1.00  0.00    -0.000 C 
HETATM   11  C10 UNL     1      23.724   1.059  51.614  1.00  0.00     0.004 C 
HETATM   12  C11 UNL     1      24.329   2.274  51.107  1.00  0.00     0.154 C 
HETATM   13  C12 UNL     1      24.087   2.464  49.646  1.00  0.00     0.003 C 
HETATM   14  C13 UNL     1      23.799   3.578  48.930  1.00  0.00     0.015 C 
HETATM   15  C14 UNL     1      24.243   5.002  49.199  1.00  0.00     0.223 C 
HETATM   16  N3  UNL     1      25.715   5.047  49.136  1.00  0.00    -0.258 NA
HETATM   17  C15 UNL     1      26.638   4.319  49.719  1.00  0.00     0.219 C 
HETATM   18  N4  UNL     1      26.605   3.391  50.795  1.00  0.00    -0.291 N 
HETATM   19  N5  UNL     1      25.736   2.448  51.352  1.00  0.00    -0.280 N 
HETATM   20  N6  UNL     1      23.808   5.343  50.534  1.00  0.00    -0.205 NA
HETATM   21  H20 UNL     1      27.508   3.442  51.325  1.00  0.00     0.188 HD
HETATM   22  H25 UNL     1      24.464   5.971  51.050  1.00  0.00     0.149 HD
ENDROOT
BRANCH  19  23
HETATM   23  C16 UNL     1      26.459   1.606  52.243  1.00  0.00     0.053 A 
HETATM   24  C17 UNL     1      27.096   2.013  53.395  1.00  0.00     0.031 A 
HETATM   25  C18 UNL     1      27.754   1.161  54.231  1.00  0.00     0.004 A 
HETATM   26  C19 UNL     1      27.824  -0.187  53.969  1.00  0.00     0.024 A 
HETATM   27  C20 UNL     1      27.199  -0.644  52.820  1.00  0.00     0.036 A 
HETATM   28 CL1  UNL     1      27.319  -2.360  52.533  1.00  0.00    -0.084 Cl
HETATM   29  C21 UNL     1      26.550   0.255  52.014  1.00  0.00     0.055 A 
ENDBRANCH  19  23
BRANCH   1  30
HETATM   30  O1  UNL     1      23.147   8.250  50.411  1.00  0.00    -0.295 OA
BRANCH  30  31
HETATM   31  C2  UNL     1      23.284   8.801  49.124  1.00  0.00     0.163 C 
HETATM   32  C1  UNL     1      24.115   8.534  48.123  1.00  0.00     0.038 C 
ENDBRANCH  30  31
ENDBRANCH   1  30
TORSDOF 3
ENDMDL
MODEL 3
REMARK VINA RESULT:      -8.2      3.350      6.015
REMARK  3 active torsions:
REMARK  status: ('A' for Active; 'I' for Inactive)
REMARK    1  A    between atoms: C2_2  and  O1_3 
REMARK    2  A    between atoms: O1_3  and  C3_4 
REMARK       I    between atoms: C3_4  and  N1_6 
REMARK    3  A    between atoms: N5_22  and  C16_23 
ROOT
HETATM    1  C3  UNL     1      20.131   2.407  52.494  1.00  0.00     0.378 C 
HETATM    2  O2  UNL     1      20.337   1.359  53.149  1.00  0.00    -0.237 OA
HETATM    3  N1  UNL     1      21.332   2.641  51.747  1.00  0.00    -0.254 N 
HETATM    4  C4  UNL     1      22.437   1.726  51.869  1.00  0.00     0.168 C 
HETATM    5  C5  UNL     1      23.422   2.106  52.975  1.00  0.00     0.143 C 
HETATM    6  N2  UNL     1      24.525   1.126  52.899  1.00  0.00    -0.393 N 
HETATM    7  C6  UNL     1      24.078  -0.221  53.300  1.00  0.00     0.148 C 
HETATM    8  C7  UNL     1      25.900   1.241  52.490  1.00  0.00     0.085 C 
HETATM    9  C8  UNL     1      26.678   1.880  51.637  1.00  0.00     0.017 C 
HETATM   10  C9  UNL     1      26.685   2.881  50.555  1.00  0.00    -0.000 C 
HETATM   11  C10 UNL     1      25.935   3.701  49.840  1.00  0.00     0.004 C 
HETATM   12  C11 UNL     1      24.552   4.114  49.714  1.00  0.00     0.154 C 
HETATM   13  C12 UNL     1      23.782   3.244  48.775  1.00  0.00     0.003 C 
HETATM   14  C13 UNL     1      22.517   2.763  48.844  1.00  0.00     0.015 C 
HETATM   15  C14 UNL     1      21.305   3.409  49.483  1.00  0.00     0.223 C 
HETATM   16  N3  UNL     1      21.041   4.684  48.791  1.00  0.00    -0.258 NA
HETATM   17  C15 UNL     1      21.820   5.701  48.504  1.00  0.00     0.219 C 
HETATM   18  N4  UNL     1      23.118   6.082  48.941  1.00  0.00    -0.291 N 
HETATM   19  N5  UNL     1      24.316   5.485  49.346  1.00  0.00    -0.280 N 
HETATM   20  N6  UNL     1      21.636   3.673  50.865  1.00  0.00    -0.205 NA
HETATM   21  H20 UNL     1      23.182   7.128  48.966  1.00  0.00     0.188 HD
HETATM   22  H25 UNL     1      21.213   4.548  51.247  1.00  0.00     0.149 HD
ENDROOT
BRANCH  19  23
HETATM   23  C16 UNL     1      25.355   6.456  49.336  1.00  0.00     0.053 A 
HETATM   24  C17 UNL     1      25.522   7.465  50.260  1.00  0.00     0.031 A 
HETATM   25  C18 UNL     1      26.552   8.356  50.223  1.00  0.00     0.004 A 
HETATM   26  C19 UNL     1      27.511   8.301  49.238  1.00  0.00     0.024 A 
HETATM   27  C20 UNL     1      27.385   7.303  48.285  1.00  0.00     0.036 A 
HETATM   28 CL1  UNL     1      28.625   7.277  47.059  1.00  0.00    -0.084 Cl
HETATM   29  C21 UNL     1      26.331   6.432  48.370  1.00  0.00     0.055 A 
ENDBRANCH  19  23
BRANCH   1  30
HETATM   30  O1  UNL     1      19.079   3.301  52.357  1.00  0.00    -0.295 OA
BRANCH  30  31
HETATM   31  C2  UNL     1      18.066   2.929  51.455  1.00  0.00     0.163 C 
HETATM   32  C1  UNL     1      18.005   1.989  50.519  1.00  0.00     0.038 C 
ENDBRANCH  30  31
ENDBRANCH   1  30
TORSDOF 3
ENDMDL
MODEL 4
REMARK VINA RESULT:      -8.1      2.538      5.295
REMARK  3 active torsions:
REMARK  status: ('A' for Active; 'I' for Inactive)
REMARK    1  A    between atoms: C2_2  and  O1_3 
REMARK    2  A    between atoms: O1_3  and  C3_4 
REMARK       I    between atoms: C3_4  and  N1_6 
REMARK    3  A    between atoms: N5_22  and  C16_23 
ROOT
HETATM    1  C3  UNL     1      21.013  -0.397  53.562  1.00  0.00     0.378 C 
HETATM    2  O2  UNL     1      21.859  -1.221  53.981  1.00  0.00    -0.237 OA
HETATM    3  N1  UNL     1      21.694   0.396  52.582  1.00  0.00    -0.254 N 
HETATM    4  C4  UNL     1      23.078   0.129  52.286  1.00  0.00     0.168 C 
HETATM    5  C5  UNL     1      24.051   0.927  53.153  1.00  0.00     0.143 C 
HETATM    6  N2  UNL     1      25.404   0.604  52.658  1.00  0.00    -0.393 N 
HETATM    7  C6  UNL     1      25.767  -0.794  52.953  1.00  0.00     0.148 C 
HETATM    8  C7  UNL     1      26.386   1.375  51.940  1.00  0.00     0.085 C 
HETATM    9  C8  UNL     1      26.496   2.319  51.025  1.00  0.00     0.017 C 
HETATM   10  C9  UNL     1      25.725   3.209  50.138  1.00  0.00    -0.000 C 
HETATM   11  C10 UNL     1      24.510   3.571  49.764  1.00  0.00     0.004 C 
HETATM   12  C11 UNL     1      23.123   3.264  50.051  1.00  0.00     0.154 C 
HETATM   13  C12 UNL     1      22.605   2.140  49.217  1.00  0.00     0.003 C 
HETATM   14  C13 UNL     1      21.786   1.106  49.527  1.00  0.00     0.015 C 
HETATM   15  C14 UNL     1      20.658   1.078  50.539  1.00  0.00     0.223 C 
HETATM   16  N3  UNL     1      19.648   2.073  50.133  1.00  0.00    -0.258 NA
HETATM   17  C15 UNL     1      19.750   3.342  49.815  1.00  0.00     0.219 C 
HETATM   18  N4  UNL     1      20.790   4.299  49.965  1.00  0.00    -0.291 N 
HETATM   19  N5  UNL     1      22.187   4.353  49.964  1.00  0.00    -0.280 N 
HETATM   20  N6  UNL     1      21.217   1.455  51.817  1.00  0.00    -0.205 NA
HETATM   21  H20 UNL     1      20.369   5.246  50.130  1.00  0.00     0.188 HD
HETATM   22  H25 UNL     1      20.571   2.012  52.419  1.00  0.00     0.149 HD
ENDROOT
BRANCH  19  23
HETATM   23  C16 UNL     1      22.609   5.706  49.839  1.00  0.00     0.053 A 
HETATM   24  C17 UNL     1      23.059   6.505  50.868  1.00  0.00     0.031 A 
HETATM   25  C18 UNL     1      23.479   7.790  50.693  1.00  0.00     0.004 A 
HETATM   26  C19 UNL     1      23.479   8.380  49.451  1.00  0.00     0.024 A 
HETATM   27  C20 UNL     1      23.034   7.615  48.385  1.00  0.00     0.036 A 
HETATM   28 CL1  UNL     1      23.053   8.410  46.832  1.00  0.00    -0.084 Cl
HETATM   29  C21 UNL     1      22.624   6.328  48.615  1.00  0.00     0.055 A 
ENDBRANCH  19  23
BRANCH   1  30
HETATM   30  O1  UNL     1      19.679  -0.123  53.828  1.00  0.00    -0.295 OA
BRANCH  30  31
HETATM   31  C2  UNL     1      18.737  -0.885  53.114  1.00  0.00     0.163 C 
HETATM   32  C1  UNL     1      17.940  -1.885  53.472  1.00  0.00     0.038 C 
ENDBRANCH  30  31
ENDBRANCH   1  30
TORSDOF 3
ENDMDL
MODEL 5
REMARK VINA RESULT:      -7.9      3.194      5.188
REMARK  3 active torsions:
REMARK  status: ('A' for Active; 'I' for Inactive)
REMARK    1  A    between atoms: C2_2  and  O1_3 
REMARK    2  A    between atoms: O1_3  and  C3_4 
REMARK       I    between atoms: C3_4  and  N1_6 
REMARK    3  A    between atoms: N5_22  and  C16_23 
ROOT
HETATM    1  C3  UNL     1      26.250   3.375  50.183  1.00  0.00     0.378 C 
HETATM    2  O2  UNL     1      27.120   2.804  50.881  1.00  0.00    -0.237 OA
HETATM    3  N1  UNL     1      25.006   3.160  50.861  1.00  0.00    -0.254 N 
HETATM    4  C4  UNL     1      24.983   2.409  52.090  1.00  0.00     0.168 C 
HETATM    5  C5  UNL     1      24.772   0.910  51.882  1.00  0.00     0.143 C 
HETATM    6  N2  UNL     1      24.684   0.316  53.232  1.00  0.00    -0.393 N 
HETATM    7  C6  UNL     1      25.980   0.375  53.933  1.00  0.00     0.148 C 
HETATM    8  C7  UNL     1      23.592  -0.264  53.969  1.00  0.00     0.085 C 
HETATM    9  C8  UNL     1      22.290  -0.149  54.154  1.00  0.00     0.017 C 
HETATM   10  C9  UNL     1      21.095   0.614  53.752  1.00  0.00    -0.000 C 
HETATM   11  C10 UNL     1      20.649   1.595  52.986  1.00  0.00     0.004 C 
HETATM   12  C11 UNL     1      21.137   2.557  52.019  1.00  0.00     0.154 C 
HETATM   13  C12 UNL     1      21.611   3.819  52.660  1.00  0.00     0.003 C 
HETATM   14  C13 UNL     1      22.678   4.608  52.389  1.00  0.00     0.015 C 
HETATM   15  C14 UNL     1      23.336   4.861  51.048  1.00  0.00     0.223 C 
HETATM   16  N3  UNL     1      22.342   5.485  50.155  1.00  0.00    -0.258 NA
HETATM   17  C15 UNL     1      21.115   5.144  49.840  1.00  0.00     0.219 C 
HETATM   18  N4  UNL     1      20.360   3.954  50.026  1.00  0.00    -0.291 N 
HETATM   19  N5  UNL     1      20.242   2.909  50.948  1.00  0.00    -0.280 N 
HETATM   20  N6  UNL     1      23.726   3.578  50.510  1.00  0.00    -0.205 NA
HETATM   21  H20 UNL     1      19.700   3.833  49.221  1.00  0.00     0.188 HD
HETATM   22  H25 UNL     1      23.646   3.507  49.471  1.00  0.00     0.149 HD
ENDROOT
BRANCH  19  23
HETATM   23  C16 UNL     1      19.040   2.191  50.699  1.00  0.00     0.053 A 
HETATM   24  C17 UNL     1      18.957   0.919  50.177  1.00  0.00     0.031 A 
HETATM   25  C18 UNL     1      17.779   0.261  49.982  1.00  0.00     0.004 A 
HETATM   26  C19 UNL     1      16.574   0.842  50.301  1.00  0.00     0.024 A 
HETATM   27  C20 UNL     1      16.606   2.123  50.828  1.00  0.00     0.036 A 
HETATM   28 CL1  UNL     1      15.052   2.815  51.214  1.00  0.00    -0.084 Cl
HETATM   29  C21 UNL     1      17.818   2.738  51.005  1.00  0.00     0.055 A 
ENDBRANCH  19  23
BRANCH   1  30
HETATM   30  O1  UNL     1      26.246   4.104  49.003  1.00  0.00    -0.295 OA
BRANCH  30  31
HETATM   31  C2  UNL     1      27.088   5.231  48.970  1.00  0.00     0.163 C 
HETATM   32  C1  UNL     1      28.273   5.444  48.409  1.00  0.00     0.038 C 
ENDBRANCH  30  31
ENDBRANCH   1  30
TORSDOF 3
ENDMDL
MODEL 6
REMARK VINA RESULT:      -7.9      3.398      6.013
REMARK  3 active torsions:
REMARK  status: ('A' for Active; 'I' for Inactive)
REMARK    1  A    between atoms: C2_2  and  O1_3 
REMARK    2  A    between atoms: O1_3  and  C3_4 
REMARK       I    between atoms: C3_4  and  N1_6 
REMARK    3  A    between atoms: N5_22  and  C16_23 
ROOT
HETATM    1  C3  UNL     1      18.247   0.483  52.002  1.00  0.00     0.378 C 
HETATM    2  O2  UNL     1      18.445  -0.513  52.736  1.00  0.00    -0.237 OA
HETATM    3  N1  UNL     1      19.542   0.890  51.543  1.00  0.00    -0.254 N 
HETATM    4  C4  UNL     1      20.710   0.158  51.961  1.00  0.00     0.168 C 
HETATM    5  C5  UNL     1      21.339   0.699  53.245  1.00  0.00     0.143 C 
HETATM    6  N2  UNL     1      22.560  -0.099  53.473  1.00  0.00    -0.393 N 
HETATM    7  C6  UNL     1      22.235  -1.494  53.825  1.00  0.00     0.148 C 
HETATM    8  C7  UNL     1      23.961   0.221  53.389  1.00  0.00     0.085 C 
HETATM    9  C8  UNL     1      24.816   0.963  52.709  1.00  0.00     0.017 C 
HETATM   10  C9  UNL     1      24.930   1.939  51.612  1.00  0.00    -0.000 C 
HETATM   11  C10 UNL     1      24.257   2.626  50.704  1.00  0.00     0.004 C 
HETATM   12  C11 UNL     1      22.898   2.818  50.241  1.00  0.00     0.154 C 
HETATM   13  C12 UNL     1      22.507   1.829  49.193  1.00  0.00     0.003 C 
HETATM   14  C13 UNL     1      21.348   1.159  48.991  1.00  0.00     0.015 C 
HETATM   15  C14 UNL     1      19.937   1.618  49.300  1.00  0.00     0.223 C 
HETATM   16  N3  UNL     1      19.659   2.829  48.505  1.00  0.00    -0.258 NA
HETATM   17  C15 UNL     1      20.325   3.950  48.358  1.00  0.00     0.219 C 
HETATM   18  N4  UNL     1      21.413   4.532  49.064  1.00  0.00    -0.291 N 
HETATM   19  N5  UNL     1      22.556   4.132  49.763  1.00  0.00    -0.280 N 
HETATM   20  N6  UNL     1      19.890   1.947  50.707  1.00  0.00    -0.205 NA
HETATM   21  H20 UNL     1      21.314   5.576  49.053  1.00  0.00     0.188 HD
HETATM   22  H25 UNL     1      19.265   2.750  50.938  1.00  0.00     0.149 HD
ENDROOT
BRANCH  19  23
HETATM   23  C16 UNL     1      23.414   5.252  49.948  1.00  0.00     0.053 A 
HETATM   24  C17 UNL     1      23.470   6.045  51.074  1.00  0.00     0.031 A 
HETATM   25  C18 UNL     1      24.331   7.092  51.214  1.00  0.00     0.004 A 
HETATM   26  C19 UNL     1      25.215   7.429  50.217  1.00  0.00     0.024 A 
HETATM   27  C20 UNL     1      25.196   6.660  49.064  1.00  0.00     0.036 A 
HETATM   28 CL1  UNL     1      26.337   7.130  47.831  1.00  0.00    -0.084 Cl
HETATM   29  C21 UNL     1      24.312   5.618  48.975  1.00  0.00     0.055 A 
ENDBRANCH  19  23
BRANCH   1  30
HETATM   30  O1  UNL     1      17.137   1.202  51.583  1.00  0.00    -0.295 OA
BRANCH  30  31
HETATM   31  C2  UNL     1      16.412   0.650  50.512  1.00  0.00     0.163 C 
HETATM   32  C1  UNL     1      16.656  -0.374  49.701  1.00  0.00     0.038 C 
ENDBRANCH  30  31
ENDBRANCH   1  30
TORSDOF 3
ENDMDL
MODEL 7
REMARK VINA RESULT:      -7.6      4.349      8.230
REMARK  3 active torsions:
REMARK  status: ('A' for Active; 'I' for Inactive)
REMARK    1  A    between atoms: C2_2  and  O1_3 
REMARK    2  A    between atoms: O1_3  and  C3_4 
REMARK       I    between atoms: C3_4  and  N1_6 
REMARK    3  A    between atoms: N5_22  and  C16_23 
ROOT
HETATM    1  C3  UNL     1      22.022   5.011  45.469  1.00  0.00     0.378 C 
HETATM    2  O2  UNL     1      22.251   6.227  45.275  1.00  0.00    -0.237 OA
HETATM    3  N1  UNL     1      22.073   4.827  46.889  1.00  0.00    -0.254 N 
HETATM    4  C4  UNL     1      22.348   5.953  47.744  1.00  0.00     0.168 C 
HETATM    5  C5  UNL     1      23.836   6.152  48.029  1.00  0.00     0.143 C 
HETATM    6  N2  UNL     1      23.926   7.277  48.982  1.00  0.00    -0.393 N 
HETATM    7  C6  UNL     1      23.535   8.551  48.351  1.00  0.00     0.148 C 
HETATM    8  C7  UNL     1      24.286   7.345  50.374  1.00  0.00     0.085 C 
HETATM    9  C8  UNL     1      24.206   6.661  51.500  1.00  0.00     0.017 C 
HETATM   10  C9  UNL     1      23.717   5.404  52.094  1.00  0.00    -0.000 C 
HETATM   11  C10 UNL     1      23.099   4.262  51.846  1.00  0.00     0.004 C 
HETATM   12  C11 UNL     1      22.504   3.540  50.740  1.00  0.00     0.154 C 
HETATM   13  C12 UNL     1      21.068   3.892  50.537  1.00  0.00     0.003 C 
HETATM   14  C13 UNL     1      20.350   4.085  49.404  1.00  0.00     0.015 C 
HETATM   15  C14 UNL     1      20.536   3.417  48.056  1.00  0.00     0.223 C 
HETATM   16  N3  UNL     1      20.334   1.966  48.227  1.00  0.00    -0.258 NA
HETATM   17  C15 UNL     1      20.848   1.106  49.073  1.00  0.00     0.219 C 
HETATM   18  N4  UNL     1      21.949   1.168  49.971  1.00  0.00    -0.291 N 
HETATM   19  N5  UNL     1      22.611   2.105  50.770  1.00  0.00    -0.280 N 
HETATM   20  N6  UNL     1      21.896   3.667  47.636  1.00  0.00    -0.205 NA
HETATM   21  H20 UNL     1      22.390   0.220  50.045  1.00  0.00     0.188 HD
HETATM   22  H25 UNL     1      22.329   2.881  47.103  1.00  0.00     0.149 HD
ENDROOT
BRANCH  19  23
HETATM   23  C16 UNL     1      23.454   1.428  51.695  1.00  0.00     0.053 A 
HETATM   24  C17 UNL     1      24.828   1.519  51.747  1.00  0.00     0.031 A 
HETATM   25  C18 UNL     1      25.590   0.871  52.672  1.00  0.00     0.004 A 
HETATM   26  C19 UNL     1      25.021   0.067  53.631  1.00  0.00     0.024 A 
HETATM   27  C20 UNL     1      23.641  -0.057  53.619  1.00  0.00     0.036 A 
HETATM   28 CL1  UNL     1      22.969  -1.087  54.855  1.00  0.00    -0.084 Cl
HETATM   29  C21 UNL     1      22.921   0.618  52.668  1.00  0.00     0.055 A 
ENDBRANCH  19  23
BRANCH   1  30
HETATM   30  O1  UNL     1      21.753   3.912  44.666  1.00  0.00    -0.295 OA
BRANCH  30  31
HETATM   31  C2  UNL     1      20.587   3.989  43.882  1.00  0.00     0.163 C 
HETATM   32  C1  UNL     1      20.396   4.196  42.584  1.00  0.00     0.038 C 
ENDBRANCH  30  31
ENDBRANCH   1  30
TORSDOF 3
ENDMDL
MODEL 8
REMARK VINA RESULT:      -7.5      1.815      2.230
REMARK  3 active torsions:
REMARK  status: ('A' for Active; 'I' for Inactive)
REMARK    1  A    between atoms: C2_2  and  O1_3 
REMARK    2  A    between atoms: O1_3  and  C3_4 
REMARK       I    between atoms: C3_4  and  N1_6 
REMARK    3  A    between atoms: N5_22  and  C16_23 
ROOT
HETATM    1  C3  UNL     1      24.424   0.194  52.991  1.00  0.00     0.378 C 
HETATM    2  O2  UNL     1      23.661  -0.535  53.666  1.00  0.00    -0.237 OA
HETATM    3  N1  UNL     1      23.572   1.117  52.303  1.00  0.00    -0.254 N 
HETATM    4  C4  UNL     1      22.146   1.049  52.492  1.00  0.00     0.168 C 
HETATM    5  C5  UNL     1      21.442   0.134  51.490  1.00  0.00     0.143 C 
HETATM    6  N2  UNL     1      19.997   0.254  51.768  1.00  0.00    -0.393 N 
HETATM    7  C6  UNL     1      19.646  -0.346  53.069  1.00  0.00     0.148 C 
HETATM    8  C7  UNL     1      18.912   0.855  51.036  1.00  0.00     0.085 C 
HETATM    9  C8  UNL     1      18.638   1.869  50.237  1.00  0.00     0.017 C 
HETATM   10  C9  UNL     1      19.222   3.042  49.564  1.00  0.00    -0.000 C 
HETATM   11  C10 UNL     1      20.332   3.733  49.369  1.00  0.00     0.004 C 
HETATM   12  C11 UNL     1      21.731   3.714  49.745  1.00  0.00     0.154 C 
HETATM   13  C12 UNL     1      21.986   4.441  51.024  1.00  0.00     0.003 C 
HETATM   14  C13 UNL     1      22.803   4.150  52.065  1.00  0.00     0.015 C 
HETATM   15  C14 UNL     1      24.134   3.425  52.033  1.00  0.00     0.223 C 
HETATM   16  N3  UNL     1      25.068   4.208  51.203  1.00  0.00    -0.258 NA
HETATM   17  C15 UNL     1      24.956   4.705  49.993  1.00  0.00     0.219 C 
HETATM   18  N4  UNL     1      24.027   4.491  48.939  1.00  0.00    -0.291 N 
HETATM   19  N5  UNL     1      22.672   4.191  48.767  1.00  0.00    -0.280 N 
HETATM   20  N6  UNL     1      23.907   2.137  51.418  1.00  0.00    -0.205 NA
HETATM   21  H20 UNL     1      24.520   4.587  48.018  1.00  0.00     0.188 HD
HETATM   22  H25 UNL     1      24.703   1.797  50.833  1.00  0.00     0.149 HD
ENDROOT
BRANCH  19  23
HETATM   23  C16 UNL     1      22.298   4.445  47.418  1.00  0.00     0.053 A 
HETATM   24  C17 UNL     1      21.928   3.493  46.494  1.00  0.00     0.031 A 
HETATM   25  C18 UNL     1      21.551   3.789  45.217  1.00  0.00     0.004 A 
HETATM   26  C19 UNL     1      21.517   5.088  44.765  1.00  0.00     0.024 A 
HETATM   27  C20 UNL     1      21.883   6.081  45.659  1.00  0.00     0.036 A 
HETATM   28 CL1  UNL     1      21.824   7.709  45.036  1.00  0.00    -0.084 Cl
HETATM   29  C21 UNL     1      22.252   5.728  46.931  1.00  0.00     0.055 A 
ENDBRANCH  19  23
BRANCH   1  30
HETATM   30  O1  UNL     1      25.795   0.282  52.795  1.00  0.00    -0.295 OA
BRANCH  30  31
HETATM   31  C2  UNL     1      26.544  -0.856  53.146  1.00  0.00     0.163 C 
HETATM   32  C1  UNL     1      26.812  -1.984  52.498  1.00  0.00     0.038 C 
ENDBRANCH  30  31
ENDBRANCH   1  30
TORSDOF 3
ENDMDL
MODEL 9
REMARK VINA RESULT:      -7.0      8.372     12.185
REMARK  3 active torsions:
REMARK  status: ('A' for Active; 'I' for Inactive)
REMARK    1  A    between atoms: C2_2  and  O1_3 
REMARK    2  A    between atoms: O1_3  and  C3_4 
REMARK       I    between atoms: C3_4  and  N1_6 
REMARK    3  A    between atoms: N5_22  and  C16_23 
ROOT
HETATM    1  C3  UNL     1      26.584   9.579  45.623  1.00  0.00     0.378 C 
HETATM    2  O2  UNL     1      26.582  10.802  45.354  1.00  0.00    -0.237 OA
HETATM    3  N1  UNL     1      27.847   9.319  46.247  1.00  0.00    -0.254 N 
HETATM    4  C4  UNL     1      28.785  10.397  46.434  1.00  0.00     0.168 C 
HETATM    5  C5  UNL     1      29.751  10.571  45.263  1.00  0.00     0.143 C 
HETATM    6  N2  UNL     1      30.687  11.643  45.659  1.00  0.00    -0.393 N 
HETATM    7  C6  UNL     1      30.011  12.952  45.729  1.00  0.00     0.148 C 
HETATM    8  C7  UNL     1      32.085  11.635  46.002  1.00  0.00     0.085 C 
HETATM    9  C8  UNL     1      33.003  10.892  46.592  1.00  0.00     0.017 C 
HETATM   10  C9  UNL     1      33.231   9.609  47.279  1.00  0.00    -0.000 C 
HETATM   11  C10 UNL     1      32.663   8.485  47.683  1.00  0.00     0.004 C 
HETATM   12  C11 UNL     1      31.373   7.827  47.667  1.00  0.00     0.154 C 
HETATM   13  C12 UNL     1      30.530   8.197  48.843  1.00  0.00     0.003 C 
HETATM   14  C13 UNL     1      29.204   8.454  48.942  1.00  0.00     0.015 C 
HETATM   15  C14 UNL     1      28.074   7.858  48.126  1.00  0.00     0.223 C 
HETATM   16  N3  UNL     1      28.056   6.402  48.356  1.00  0.00    -0.258 NA
HETATM   17  C15 UNL     1      29.002   5.494  48.286  1.00  0.00     0.219 C 
HETATM   18  N4  UNL     1      30.316   5.502  47.744  1.00  0.00    -0.291 N 
HETATM   19  N5  UNL     1      31.378   6.392  47.558  1.00  0.00    -0.280 N 
HETATM   20  N6  UNL     1      28.362   8.122  46.735  1.00  0.00    -0.205 NA
HETATM   21  H20 UNL     1      30.543   4.549  47.372  1.00  0.00     0.188 HD
HETATM   22  H25 UNL     1      28.061   7.363  46.084  1.00  0.00     0.149 HD
ENDROOT
BRANCH  19  23
HETATM   23  C16 UNL     1      32.558   5.662  47.242  1.00  0.00     0.053 A 
HETATM   24  C17 UNL     1      33.412   5.079  48.153  1.00  0.00     0.031 A 
HETATM   25  C18 UNL     1      34.517   4.365  47.798  1.00  0.00     0.004 A 
HETATM   26  C19 UNL     1      34.855   4.179  46.478  1.00  0.00     0.024 A 
HETATM   27  C20 UNL     1      34.026   4.747  45.524  1.00  0.00     0.036 A 
HETATM   28 CL1  UNL     1      34.499   4.482  43.866  1.00  0.00    -0.084 Cl
HETATM   29  C21 UNL     1      32.927   5.454  45.935  1.00  0.00     0.055 A 
ENDBRANCH  19  23
BRANCH   1  30
HETATM   30  O1  UNL     1      25.696   8.526  45.458  1.00  0.00    -0.295 OA
BRANCH  30  31
HETATM   31  C2  UNL     1      24.691   8.405  46.434  1.00  0.00     0.163 C 
HETATM   32  C1  UNL     1      24.512   7.543  47.430  1.00  0.00     0.038 C 
ENDBRANCH  30  31
ENDBRANCH   1  30
TORSDOF 3
ENDMDL
