MODEL 1
REMARK VINA RESULT:      -7.8      0.000      0.000
REMARK  7 active torsions:
REMARK  status: ('A' for Active; 'I' for Inactive)
REMARK    1  A    between atoms: O1_2  and  C2_3 
REMARK    2  A    between atoms: C2_3  and  C3_4 
REMARK    3  A    between atoms: C3_4  and  C4_5 
REMARK    4  A    between atoms: C6_9  and  N3_10 
REMARK    5  A    between atoms: N3_10  and  C7_11 
REMARK    6  A    between atoms: C13_19  and  C14_20 
REMARK    7  A    between atoms: O2_22  and  C15_23 
ROOT
HETATM    1  C4  UNL     1      21.538  -0.127  54.061  1.00  0.00     0.071 A 
HETATM    2  N1  UNL     1      21.822  -0.985  55.050  1.00  0.00    -0.241 NA
HETATM    3  C5  UNL     1      23.079  -1.384  55.296  1.00  0.00     0.236 A 
HETATM    4  N2  UNL     1      24.047  -0.902  54.528  1.00  0.00    -0.223 NA
HETATM    5  C6  UNL     1      23.861  -0.045  53.523  1.00  0.00     0.143 A 
HETATM    6  C13 UNL     1      22.577   0.335  53.303  1.00  0.00     0.056 A 
ENDROOT
BRANCH   5   7
HETATM    7  N3  UNL     1      25.019   0.347  52.842  1.00  0.00    -0.340 N 
HETATM    8  H8  UNL     1      24.792   1.006  52.109  1.00  0.00     0.167 HD
BRANCH   7   9
HETATM    9  C7  UNL     1      26.360  -0.016  53.049  1.00  0.00     0.035 A 
HETATM   10  C8  UNL     1      26.983  -1.200  52.786  1.00  0.00     0.032 A 
HETATM   11  C9  UNL     1      28.313  -1.447  53.021  1.00  0.00     0.046 A 
HETATM   12  C10 UNL     1      29.072  -0.432  53.560  1.00  0.00     0.138 A 
HETATM   13  F1  UNL     1      30.387  -0.640  53.804  1.00  0.00    -0.204 F 
HETATM   14  C11 UNL     1      28.530   0.783  53.852  1.00  0.00     0.074 A 
HETATM   15 CL1  UNL     1      29.519   2.059  54.536  1.00  0.00    -0.081 Cl
HETATM   16  C12 UNL     1      27.197   0.964  53.593  1.00  0.00     0.056 A 
ENDBRANCH   7   9
ENDBRANCH   5   7
BRANCH   6  17
HETATM   17  C14 UNL     1      22.327   1.171  52.337  1.00  0.00     0.040 A 
HETATM   18  I1  UNL     1      21.515   1.021  50.375  1.00  0.00    -0.042 I 
HETATM   19  O2  UNL     1      22.203   2.269  51.577  1.00  0.00     0.000 OA
BRANCH  19  20
HETATM   20  C15 UNL     1      23.130   3.320  51.361  1.00  0.00    -0.019 C 
HETATM   21  C16 UNL     1      24.207   2.903  50.388  1.00  0.00     0.010 C 
HETATM   22  C17 UNL     1      23.772   3.832  52.617  1.00  0.00     0.010 C 
ENDBRANCH  19  20
ENDBRANCH   6  17
BRANCH   1  23
HETATM   23  C3  UNL     1      20.253   0.131  53.989  1.00  0.00     0.032 C 
BRANCH  23  24
HETATM   24  C2  UNL     1      19.307  -0.887  53.476  1.00  0.00     0.196 C 
BRANCH  24  25
HETATM   25  O1  UNL     1      18.376  -0.370  52.581  1.00  0.00    -0.392 OA
HETATM   26  C1  UNL     1      17.163  -0.976  52.890  1.00  0.00     0.201 C 
ENDBRANCH  24  25
ENDBRANCH  23  24
ENDBRANCH   1  23
TORSDOF 7
ENDMDL
MODEL 2
REMARK VINA RESULT:      -7.6      1.110      1.455
REMARK  7 active torsions:
REMARK  status: ('A' for Active; 'I' for Inactive)
REMARK    1  A    between atoms: O1_2  and  C2_3 
REMARK    2  A    between atoms: C2_3  and  C3_4 
REMARK    3  A    between atoms: C3_4  and  C4_5 
REMARK    4  A    between atoms: C6_9  and  N3_10 
REMARK    5  A    between atoms: N3_10  and  C7_11 
REMARK    6  A    between atoms: C13_19  and  C14_20 
REMARK    7  A    between atoms: O2_22  and  C15_23 
ROOT
HETATM    1  C4  UNL     1      21.474  -0.107  53.991  1.00  0.00     0.071 A 
HETATM    2  N1  UNL     1      21.793  -0.956  54.977  1.00  0.00    -0.241 NA
HETATM    3  C5  UNL     1      23.063  -1.327  55.204  1.00  0.00     0.236 A 
HETATM    4  N2  UNL     1      24.007  -0.826  54.419  1.00  0.00    -0.223 NA
HETATM    5  C6  UNL     1      23.786   0.024  53.415  1.00  0.00     0.143 A 
HETATM    6  C13 UNL     1      22.491   0.375  53.216  1.00  0.00     0.056 A 
ENDROOT
BRANCH   5   7
HETATM    7  N3  UNL     1      24.924   0.440  52.715  1.00  0.00    -0.340 N 
HETATM    8  H8  UNL     1      24.665   0.823  51.816  1.00  0.00     0.167 HD
BRANCH   7   9
HETATM    9  C7  UNL     1      26.278   0.413  53.087  1.00  0.00     0.035 A 
HETATM   10  C8  UNL     1      27.054   1.415  53.592  1.00  0.00     0.032 A 
HETATM   11  C9  UNL     1      28.376   1.277  53.934  1.00  0.00     0.046 A 
HETATM   12  C10 UNL     1      28.962   0.043  53.757  1.00  0.00     0.138 A 
HETATM   13  F1  UNL     1      30.264  -0.130  54.085  1.00  0.00    -0.204 F 
HETATM   14  C11 UNL     1      28.261  -1.013  53.259  1.00  0.00     0.074 A 
HETATM   15 CL1  UNL     1      29.031  -2.573  53.045  1.00  0.00    -0.081 Cl
HETATM   16  C12 UNL     1      26.945  -0.808  52.938  1.00  0.00     0.056 A 
ENDBRANCH   7   9
ENDBRANCH   5   7
BRANCH   6  17
HETATM   17  C14 UNL     1      22.207   1.203  52.253  1.00  0.00     0.040 A 
HETATM   18  I1  UNL     1      21.382   1.030  50.298  1.00  0.00    -0.042 I 
HETATM   19  O2  UNL     1      22.043   2.297  51.494  1.00  0.00     0.000 OA
BRANCH  19  20
HETATM   20  C15 UNL     1      22.937   3.375  51.270  1.00  0.00    -0.019 C 
HETATM   21  C16 UNL     1      23.997   3.001  50.262  1.00  0.00     0.010 C 
HETATM   22  C17 UNL     1      23.598   3.886  52.516  1.00  0.00     0.010 C 
ENDBRANCH  19  20
ENDBRANCH   6  17
BRANCH   1  23
HETATM   23  C3  UNL     1      20.184   0.123  53.941  1.00  0.00     0.032 C 
BRANCH  23  24
HETATM   24  C2  UNL     1      19.286  -0.781  53.184  1.00  0.00     0.196 C 
BRANCH  24  25
HETATM   25  O1  UNL     1      18.076  -1.020  53.828  1.00  0.00    -0.392 OA
HETATM   26  C1  UNL     1      17.737  -2.338  53.542  1.00  0.00     0.201 C 
ENDBRANCH  24  25
ENDBRANCH  23  24
ENDBRANCH   1  23
TORSDOF 7
ENDMDL
MODEL 3
REMARK VINA RESULT:      -7.2      1.821      2.171
REMARK  7 active torsions:
REMARK  status: ('A' for Active; 'I' for Inactive)
REMARK    1  A    between atoms: O1_2  and  C2_3 
REMARK    2  A    between atoms: C2_3  and  C3_4 
REMARK    3  A    between atoms: C3_4  and  C4_5 
REMARK    4  A    between atoms: C6_9  and  N3_10 
REMARK    5  A    between atoms: N3_10  and  C7_11 
REMARK    6  A    between atoms: C13_19  and  C14_20 
REMARK    7  A    between atoms: O2_22  and  C15_23 
ROOT
HETATM    1  C4  UNL     1      21.592   0.709  53.340  1.00  0.00     0.071 A 
HETATM    2  N1  UNL     1      21.462  -0.099  54.401  1.00  0.00    -0.241 NA
HETATM    3  C5  UNL     1      22.479  -0.860  54.834  1.00  0.00     0.236 A 
HETATM    4  N2  UNL     1      23.630  -0.793  54.180  1.00  0.00    -0.223 NA
HETATM    5  C6  UNL     1      23.853  -0.019  53.116  1.00  0.00     0.143 A 
HETATM    6  C13 UNL     1      22.802   0.735  52.707  1.00  0.00     0.056 A 
ENDROOT
BRANCH   5   7
HETATM    7  N3  UNL     1      25.143  -0.090  52.578  1.00  0.00    -0.340 N 
HETATM    8  H8  UNL     1      25.142  -0.641  51.730  1.00  0.00     0.167 HD
BRANCH   7   9
HETATM    9  C7  UNL     1      26.344   0.486  53.023  1.00  0.00     0.035 A 
HETATM   10  C8  UNL     1      26.609   1.781  53.357  1.00  0.00     0.032 A 
HETATM   11  C9  UNL     1      27.827   2.238  53.794  1.00  0.00     0.046 A 
HETATM   12  C10 UNL     1      28.855   1.328  53.904  1.00  0.00     0.138 A 
HETATM   13  F1  UNL     1      30.070   1.744  54.332  1.00  0.00    -0.204 F 
HETATM   14  C11 UNL     1      28.678   0.014  53.593  1.00  0.00     0.074 A 
HETATM   15 CL1  UNL     1      30.004  -1.124  53.743  1.00  0.00    -0.081 Cl
HETATM   16  C12 UNL     1      27.438  -0.376  53.163  1.00  0.00     0.056 A 
ENDBRANCH   7   9
ENDBRANCH   5   7
BRANCH   6  17
HETATM   17  C14 UNL     1      22.954   1.513  51.674  1.00  0.00     0.040 A 
HETATM   18  I1  UNL     1      23.672   3.492  51.359  1.00  0.00    -0.042 I 
HETATM   19  O2  UNL     1      22.975   2.030  50.436  1.00  0.00     0.000 OA
BRANCH  19  20
HETATM   20  C15 UNL     1      21.977   1.985  49.429  1.00  0.00    -0.019 C 
HETATM   21  C16 UNL     1      22.579   2.189  48.059  1.00  0.00     0.010 C 
HETATM   22  C17 UNL     1      20.864   2.971  49.630  1.00  0.00     0.010 C 
ENDBRANCH  19  20
ENDBRANCH   6  17
BRANCH   1  23
HETATM   23  C3  UNL     1      20.484   1.363  53.084  1.00  0.00     0.032 C 
BRANCH  23  24
HETATM   24  C2  UNL     1      19.313   0.664  52.504  1.00  0.00     0.196 C 
BRANCH  24  25
HETATM   25  O1  UNL     1      19.567   0.114  51.251  1.00  0.00    -0.392 OA
HETATM   26  C1  UNL     1      18.399   0.275  50.513  1.00  0.00     0.201 C 
ENDBRANCH  24  25
ENDBRANCH  23  24
ENDBRANCH   1  23
TORSDOF 7
ENDMDL
MODEL 4
REMARK VINA RESULT:      -7.2      3.946      6.536
REMARK  7 active torsions:
REMARK  status: ('A' for Active; 'I' for Inactive)
REMARK    1  A    between atoms: O1_2  and  C2_3 
REMARK    2  A    between atoms: C2_3  and  C3_4 
REMARK    3  A    between atoms: C3_4  and  C4_5 
REMARK    4  A    between atoms: C6_9  and  N3_10 
REMARK    5  A    between atoms: N3_10  and  C7_11 
REMARK    6  A    between atoms: C13_19  and  C14_20 
REMARK    7  A    between atoms: O2_22  and  C15_23 
ROOT
HETATM    1  C4  UNL     1      25.524   5.909  49.035  1.00  0.00     0.071 A 
HETATM    2  N1  UNL     1      26.727   6.211  48.527  1.00  0.00    -0.241 NA
HETATM    3  C5  UNL     1      27.743   5.335  48.556  1.00  0.00     0.236 A 
HETATM    4  N2  UNL     1      27.526   4.148  49.106  1.00  0.00    -0.223 NA
HETATM    5  C6  UNL     1      26.365   3.759  49.635  1.00  0.00     0.143 A 
HETATM    6  C13 UNL     1      25.362   4.671  49.588  1.00  0.00     0.056 A 
ENDROOT
BRANCH   5   7
HETATM    7  N3  UNL     1      26.345   2.461  50.157  1.00  0.00    -0.340 N 
HETATM    8  H8  UNL     1      26.163   1.788  49.425  1.00  0.00     0.167 HD
BRANCH   7   9
HETATM    9  C7  UNL     1      26.552   2.008  51.471  1.00  0.00     0.035 A 
HETATM   10  C8  UNL     1      27.534   2.347  52.355  1.00  0.00     0.032 A 
HETATM   11  C9  UNL     1      27.638   1.847  53.629  1.00  0.00     0.046 A 
HETATM   12  C10 UNL     1      26.687   0.941  54.047  1.00  0.00     0.138 A 
HETATM   13  F1  UNL     1      26.759   0.429  55.297  1.00  0.00    -0.204 F 
HETATM   14  C11 UNL     1      25.672   0.548  53.229  1.00  0.00     0.074 A 
HETATM   15 CL1  UNL     1      24.474  -0.605  53.785  1.00  0.00    -0.081 Cl
HETATM   16  C12 UNL     1      25.626   1.085  51.969  1.00  0.00     0.056 A 
ENDBRANCH   7   9
ENDBRANCH   5   7
BRANCH   6  17
HETATM   17  C14 UNL     1      24.202   4.354  50.088  1.00  0.00     0.040 A 
HETATM   18  I1  UNL     1      23.343   4.336  52.035  1.00  0.00    -0.042 I 
HETATM   19  O2  UNL     1      22.933   3.955  50.257  1.00  0.00     0.000 OA
BRANCH  19  20
HETATM   20  C15 UNL     1      22.263   2.835  49.702  1.00  0.00    -0.019 C 
HETATM   21  C16 UNL     1      22.425   1.615  50.577  1.00  0.00     0.010 C 
HETATM   22  C17 UNL     1      22.695   2.500  48.304  1.00  0.00     0.010 C 
ENDBRANCH  19  20
ENDBRANCH   6  17
BRANCH   1  23
HETATM   23  C3  UNL     1      24.676   6.901  48.906  1.00  0.00     0.032 C 
BRANCH  23  24
HETATM   24  C2  UNL     1      24.719   8.057  49.834  1.00  0.00     0.196 C 
BRANCH  24  25
HETATM   25  O1  UNL     1      23.755   7.994  50.835  1.00  0.00    -0.392 OA
HETATM   26  C1  UNL     1      22.534   7.840  50.188  1.00  0.00     0.201 C 
ENDBRANCH  24  25
ENDBRANCH  23  24
ENDBRANCH   1  23
TORSDOF 7
ENDMDL
MODEL 5
REMARK VINA RESULT:      -7.0      4.101      5.917
REMARK  7 active torsions:
REMARK  status: ('A' for Active; 'I' for Inactive)
REMARK    1  A    between atoms: O1_2  and  C2_3 
REMARK    2  A    between atoms: C2_3  and  C3_4 
REMARK    3  A    between atoms: C3_4  and  C4_5 
REMARK    4  A    between atoms: C6_9  and  N3_10 
REMARK    5  A    between atoms: N3_10  and  C7_11 
REMARK    6  A    between atoms: C13_19  and  C14_20 
REMARK    7  A    between atoms: O2_22  and  C15_23 
ROOT
HETATM    1  C4  UNL     1      24.862   1.507  52.544  1.00  0.00     0.071 A 
HETATM    2  N1  UNL     1      26.029   1.268  53.156  1.00  0.00    -0.241 NA
HETATM    3  C5  UNL     1      27.197   1.659  52.623  1.00  0.00     0.236 A 
HETATM    4  N2  UNL     1      27.168   2.297  51.461  1.00  0.00    -0.223 NA
HETATM    5  C6  UNL     1      26.056   2.580  50.779  1.00  0.00     0.143 A 
HETATM    6  C13 UNL     1      24.896   2.168  51.349  1.00  0.00     0.056 A 
ENDROOT
BRANCH   5   7
HETATM    7  N3  UNL     1      26.245   3.269  49.576  1.00  0.00    -0.340 N 
HETATM    8  H8  UNL     1      26.174   2.636  48.791  1.00  0.00     0.167 HD
BRANCH   7   9
HETATM    9  C7  UNL     1      26.481   4.634  49.340  1.00  0.00     0.035 A 
HETATM   10  C8  UNL     1      25.730   5.714  49.699  1.00  0.00     0.032 A 
HETATM   11  C9  UNL     1      26.061   7.017  49.423  1.00  0.00     0.046 A 
HETATM   12  C10 UNL     1      27.232   7.254  48.738  1.00  0.00     0.138 A 
HETATM   13  F1  UNL     1      27.590   8.526  48.449  1.00  0.00    -0.204 F 
HETATM   14  C11 UNL     1      28.043   6.233  48.342  1.00  0.00     0.074 A 
HETATM   15 CL1  UNL     1      29.529   6.562  47.472  1.00  0.00    -0.081 Cl
HETATM   16  C12 UNL     1      27.654   4.956  48.649  1.00  0.00     0.056 A 
ENDBRANCH   7   9
ENDBRANCH   5   7
BRANCH   6  17
HETATM   17  C14 UNL     1      23.775   2.414  50.735  1.00  0.00     0.040 A 
HETATM   18  I1  UNL     1      22.265   3.908  50.874  1.00  0.00    -0.042 I 
HETATM   19  O2  UNL     1      22.709   2.369  49.921  1.00  0.00     0.000 OA
BRANCH  19  20
HETATM   20  C15 UNL     1      21.901   1.260  49.562  1.00  0.00    -0.019 C 
HETATM   21  C16 UNL     1      20.878   1.647  48.521  1.00  0.00     0.010 C 
HETATM   22  C17 UNL     1      21.203   0.615  50.723  1.00  0.00     0.010 C 
ENDBRANCH  19  20
ENDBRANCH   6  17
BRANCH   1  23
HETATM   23  C3  UNL     1      23.844   1.043  53.230  1.00  0.00     0.032 C 
BRANCH  23  24
HETATM   24  C2  UNL     1      23.609  -0.416  53.336  1.00  0.00     0.196 C 
BRANCH  24  25
HETATM   25  O1  UNL     1      23.487  -0.859  54.650  1.00  0.00    -0.392 OA
HETATM   26  C1  UNL     1      22.146  -1.182  54.828  1.00  0.00     0.201 C 
ENDBRANCH  24  25
ENDBRANCH  23  24
ENDBRANCH   1  23
TORSDOF 7
ENDMDL
MODEL 6
REMARK VINA RESULT:      -6.9      2.659      5.421
REMARK  7 active torsions:
REMARK  status: ('A' for Active; 'I' for Inactive)
REMARK    1  A    between atoms: O1_2  and  C2_3 
REMARK    2  A    between atoms: C2_3  and  C3_4 
REMARK    3  A    between atoms: C3_4  and  C4_5 
REMARK    4  A    between atoms: C6_9  and  N3_10 
REMARK    5  A    between atoms: N3_10  and  C7_11 
REMARK    6  A    between atoms: C13_19  and  C14_20 
REMARK    7  A    between atoms: O2_22  and  C15_23 
ROOT
HETATM    1  C4  UNL     1      24.610   4.089  49.402  1.00  0.00     0.071 A 
HETATM    2  N1  UNL     1      25.813   4.477  48.956  1.00  0.00    -0.241 NA
HETATM    3  C5  UNL     1      26.948   4.059  49.539  1.00  0.00     0.236 A 
HETATM    4  N2  UNL     1      26.849   3.243  50.579  1.00  0.00    -0.223 NA
HETATM    5  C6  UNL     1      25.699   2.804  51.092  1.00  0.00     0.143 A 
HETATM    6  C13 UNL     1      24.574   3.247  50.477  1.00  0.00     0.056 A 
ENDROOT
BRANCH   5   7
HETATM    7  N3  UNL     1      25.816   1.940  52.187  1.00  0.00    -0.340 N 
HETATM    8  H8  UNL     1      24.915   1.796  52.621  1.00  0.00     0.167 HD
BRANCH   7   9
HETATM    9  C7  UNL     1      26.944   1.280  52.704  1.00  0.00     0.035 A 
HETATM   10  C8  UNL     1      28.026   1.800  53.351  1.00  0.00     0.032 A 
HETATM   11  C9  UNL     1      29.077   1.056  53.827  1.00  0.00     0.046 A 
HETATM   12  C10 UNL     1      29.038  -0.308  53.642  1.00  0.00     0.138 A 
HETATM   13  F1  UNL     1      30.057  -1.072  54.100  1.00  0.00    -0.204 F 
HETATM   14  C11 UNL     1      27.995  -0.910  53.008  1.00  0.00     0.074 A 
HETATM   15 CL1  UNL     1      27.970  -2.649  52.786  1.00  0.00    -0.081 Cl
HETATM   16  C12 UNL     1      26.978  -0.111  52.556  1.00  0.00     0.056 A 
ENDBRANCH   7   9
ENDBRANCH   5   7
BRANCH   6  17
HETATM   17  C14 UNL     1      23.417   2.855  50.928  1.00  0.00     0.040 A 
HETATM   18  I1  UNL     1      21.851   3.745  52.062  1.00  0.00    -0.042 I 
HETATM   19  O2  UNL     1      22.320   2.145  51.231  1.00  0.00     0.000 OA
BRANCH  19  20
HETATM   20  C15 UNL     1      22.219   0.813  51.707  1.00  0.00    -0.019 C 
HETATM   21  C16 UNL     1      20.815   0.282  51.543  1.00  0.00     0.010 C 
HETATM   22  C17 UNL     1      22.646   0.642  53.135  1.00  0.00     0.010 C 
ENDBRANCH  19  20
ENDBRANCH   6  17
BRANCH   1  23
HETATM   23  C3  UNL     1      23.635   4.609  48.696  1.00  0.00     0.032 C 
BRANCH  23  24
HETATM   24  C2  UNL     1      23.516   6.079  48.543  1.00  0.00     0.196 C 
BRANCH  24  25
HETATM   25  O1  UNL     1      22.409   6.611  49.198  1.00  0.00    -0.392 OA
HETATM   26  C1  UNL     1      22.900   7.254  50.329  1.00  0.00     0.201 C 
ENDBRANCH  24  25
ENDBRANCH  23  24
ENDBRANCH   1  23
TORSDOF 7
ENDMDL
MODEL 7
REMARK VINA RESULT:      -6.7      4.262      7.163
REMARK  7 active torsions:
REMARK  status: ('A' for Active; 'I' for Inactive)
REMARK    1  A    between atoms: O1_2  and  C2_3 
REMARK    2  A    between atoms: C2_3  and  C3_4 
REMARK    3  A    between atoms: C3_4  and  C4_5 
REMARK    4  A    between atoms: C6_9  and  N3_10 
REMARK    5  A    between atoms: N3_10  and  C7_11 
REMARK    6  A    between atoms: C13_19  and  C14_20 
REMARK    7  A    between atoms: O2_22  and  C15_23 
ROOT
HETATM    1  C4  UNL     1      24.698   0.410  52.778  1.00  0.00     0.071 A 
HETATM    2  N1  UNL     1      24.779  -0.574  53.684  1.00  0.00    -0.241 NA
HETATM    3  C5  UNL     1      23.714  -0.957  54.405  1.00  0.00     0.236 A 
HETATM    4  N2  UNL     1      22.563  -0.331  54.196  1.00  0.00    -0.223 NA
HETATM    5  C6  UNL     1      22.387   0.657  53.317  1.00  0.00     0.143 A 
HETATM    6  C13 UNL     1      23.486   1.017  52.609  1.00  0.00     0.056 A 
ENDROOT
BRANCH   5   7
HETATM    7  N3  UNL     1      21.089   1.176  53.246  1.00  0.00    -0.340 N 
HETATM    8  H8  UNL     1      21.058   2.105  53.645  1.00  0.00     0.167 HD
BRANCH   7   9
HETATM    9  C7  UNL     1      19.917   0.618  52.708  1.00  0.00     0.035 A 
HETATM   10  C8  UNL     1      19.184   1.023  51.631  1.00  0.00     0.032 A 
HETATM   11  C9  UNL     1      18.051   0.393  51.183  1.00  0.00     0.046 A 
HETATM   12  C10 UNL     1      17.621  -0.725  51.864  1.00  0.00     0.138 A 
HETATM   13  F1  UNL     1      16.507  -1.371  51.448  1.00  0.00    -0.204 F 
HETATM   14  C11 UNL     1      18.293  -1.198  52.949  1.00  0.00     0.074 A 
HETATM   15 CL1  UNL     1      17.726  -2.624  53.797  1.00  0.00    -0.081 Cl
HETATM   16  C12 UNL     1      19.418  -0.523  53.345  1.00  0.00     0.056 A 
ENDBRANCH   7   9
ENDBRANCH   5   7
BRANCH   6  17
HETATM   17  C14 UNL     1      23.381   1.975  51.733  1.00  0.00     0.040 A 
HETATM   18  I1  UNL     1      22.507   2.177  49.803  1.00  0.00    -0.042 I 
HETATM   19  O2  UNL     1      23.457   3.145  51.081  1.00  0.00     0.000 OA
BRANCH  19  20
HETATM   20  C15 UNL     1      24.568   4.011  50.920  1.00  0.00    -0.019 C 
HETATM   21  C16 UNL     1      24.119   5.428  50.654  1.00  0.00     0.010 C 
HETATM   22  C17 UNL     1      25.521   3.585  49.843  1.00  0.00     0.010 C 
ENDBRANCH  19  20
ENDBRANCH   6  17
BRANCH   1  23
HETATM   23  C3  UNL     1      25.849   0.628  52.187  1.00  0.00     0.032 C 
BRANCH  23  24
HETATM   24  C2  UNL     1      27.004   1.150  52.955  1.00  0.00     0.196 C 
BRANCH  24  25
HETATM   25  O1  UNL     1      28.029   0.222  53.104  1.00  0.00    -0.392 OA
HETATM   26  C1  UNL     1      28.298   0.156  54.467  1.00  0.00     0.201 C 
ENDBRANCH  24  25
ENDBRANCH  23  24
ENDBRANCH   1  23
TORSDOF 7
ENDMDL
MODEL 8
REMARK VINA RESULT:      -6.5      4.112      6.734
REMARK  7 active torsions:
REMARK  status: ('A' for Active; 'I' for Inactive)
REMARK    1  A    between atoms: O1_2  and  C2_3 
REMARK    2  A    between atoms: C2_3  and  C3_4 
REMARK    3  A    between atoms: C3_4  and  C4_5 
REMARK    4  A    between atoms: C6_9  and  N3_10 
REMARK    5  A    between atoms: N3_10  and  C7_11 
REMARK    6  A    between atoms: C13_19  and  C14_20 
REMARK    7  A    between atoms: O2_22  and  C15_23 
ROOT
HETATM    1  C4  UNL     1      25.813   6.314  48.867  1.00  0.00     0.071 A 
HETATM    2  N1  UNL     1      27.047   6.517  48.384  1.00  0.00    -0.241 NA
HETATM    3  C5  UNL     1      27.975   5.548  48.393  1.00  0.00     0.236 A 
HETATM    4  N2  UNL     1      27.638   4.369  48.897  1.00  0.00    -0.223 NA
HETATM    5  C6  UNL     1      26.438   4.073  49.398  1.00  0.00     0.143 A 
HETATM    6  C13 UNL     1      25.527   5.078  49.372  1.00  0.00     0.056 A 
ENDROOT
BRANCH   5   7
HETATM    7  N3  UNL     1      26.287   2.765  49.871  1.00  0.00    -0.340 N 
HETATM    8  H8  UNL     1      26.247   2.112  49.100  1.00  0.00     0.167 HD
BRANCH   7   9
HETATM    9  C7  UNL     1      26.213   2.280  51.188  1.00  0.00     0.035 A 
HETATM   10  C8  UNL     1      25.170   1.679  51.829  1.00  0.00     0.032 A 
HETATM   11  C9  UNL     1      25.209   1.231  53.126  1.00  0.00     0.046 A 
HETATM   12  C10 UNL     1      26.380   1.399  53.831  1.00  0.00     0.138 A 
HETATM   13  F1  UNL     1      26.454   0.969  55.112  1.00  0.00    -0.204 F 
HETATM   14  C11 UNL     1      27.471   1.989  53.268  1.00  0.00     0.074 A 
HETATM   15 CL1  UNL     1      28.950   2.189  54.188  1.00  0.00    -0.081 Cl
HETATM   16  C12 UNL     1      27.366   2.414  51.970  1.00  0.00     0.056 A 
ENDBRANCH   7   9
ENDBRANCH   5   7
BRANCH   6  17
HETATM   17  C14 UNL     1      24.334   4.854  49.846  1.00  0.00     0.040 A 
HETATM   18  I1  UNL     1      23.336   5.244  51.685  1.00  0.00    -0.042 I 
HETATM   19  O2  UNL     1      23.057   4.478  50.009  1.00  0.00     0.000 OA
BRANCH  19  20
HETATM   20  C15 UNL     1      22.433   3.251  49.666  1.00  0.00    -0.019 C 
HETATM   21  C16 UNL     1      22.710   2.885  48.227  1.00  0.00     0.010 C 
HETATM   22  C17 UNL     1      20.952   3.235  49.902  1.00  0.00     0.010 C 
ENDBRANCH  19  20
ENDBRANCH   6  17
BRANCH   1  23
HETATM   23  C3  UNL     1      25.064   7.386  48.764  1.00  0.00     0.032 C 
BRANCH  23  24
HETATM   24  C2  UNL     1      24.402   7.724  47.482  1.00  0.00     0.196 C 
BRANCH  24  25
HETATM   25  O1  UNL     1      23.556   6.720  47.019  1.00  0.00    -0.392 OA
HETATM   26  C1  UNL     1      22.297   7.005  47.537  1.00  0.00     0.201 C 
ENDBRANCH  24  25
ENDBRANCH  23  24
ENDBRANCH   1  23
TORSDOF 7
ENDMDL
MODEL 9
REMARK VINA RESULT:      -6.5      4.224      7.211
REMARK  7 active torsions:
REMARK  status: ('A' for Active; 'I' for Inactive)
REMARK    1  A    between atoms: O1_2  and  C2_3 
REMARK    2  A    between atoms: C2_3  and  C3_4 
REMARK    3  A    between atoms: C3_4  and  C4_5 
REMARK    4  A    between atoms: C6_9  and  N3_10 
REMARK    5  A    between atoms: N3_10  and  C7_11 
REMARK    6  A    between atoms: C13_19  and  C14_20 
REMARK    7  A    between atoms: O2_22  and  C15_23 
ROOT
HETATM    1  C4  UNL     1      25.915   3.841  50.176  1.00  0.00     0.071 A 
HETATM    2  N1  UNL     1      26.974   3.205  50.695  1.00  0.00    -0.241 NA
HETATM    3  C5  UNL     1      26.859   2.401  51.763  1.00  0.00     0.236 A 
HETATM    4  N2  UNL     1      25.655   2.247  52.299  1.00  0.00    -0.223 NA
HETATM    5  C6  UNL     1      24.546   2.837  51.852  1.00  0.00     0.143 A 
HETATM    6  C13 UNL     1      24.702   3.643  50.772  1.00  0.00     0.056 A 
ENDROOT
BRANCH   5   7
HETATM    7  N3  UNL     1      23.375   2.533  52.556  1.00  0.00    -0.340 N 
HETATM    8  H8  UNL     1      22.853   3.376  52.754  1.00  0.00     0.167 HD
BRANCH   7   9
HETATM    9  C7  UNL     1      22.863   1.293  52.972  1.00  0.00     0.035 A 
HETATM   10  C8  UNL     1      23.508   0.247  53.564  1.00  0.00     0.032 A 
HETATM   11  C9  UNL     1      22.904  -0.926  53.941  1.00  0.00     0.046 A 
HETATM   12  C10 UNL     1      21.553  -1.060  53.708  1.00  0.00     0.138 A 
HETATM   13  F1  UNL     1      20.924  -2.203  54.067  1.00  0.00    -0.204 F 
HETATM   14  C11 UNL     1      20.830  -0.064  53.122  1.00  0.00     0.074 A 
HETATM   15 CL1  UNL     1      19.112  -0.260  52.837  1.00  0.00    -0.081 Cl
HETATM   16  C12 UNL     1      21.495   1.081  52.770  1.00  0.00     0.056 A 
ENDBRANCH   7   9
ENDBRANCH   5   7
BRANCH   6  17
HETATM   17  C14 UNL     1      23.657   4.248  50.285  1.00  0.00     0.040 A 
HETATM   18  I1  UNL     1      22.607   6.047  50.722  1.00  0.00    -0.042 I 
HETATM   19  O2  UNL     1      22.579   4.588  49.563  1.00  0.00     0.000 OA
BRANCH  19  20
HETATM   20  C15 UNL     1      21.490   3.783  49.144  1.00  0.00    -0.019 C 
HETATM   21  C16 UNL     1      20.234   4.128  49.909  1.00  0.00     0.010 C 
HETATM   22  C17 UNL     1      21.745   2.309  49.254  1.00  0.00     0.010 C 
ENDBRANCH  19  20
ENDBRANCH   6  17
BRANCH   1  23
HETATM   23  C3  UNL     1      26.244   4.575  49.140  1.00  0.00     0.032 C 
BRANCH  23  24
HETATM   24  C2  UNL     1      27.656   4.669  48.699  1.00  0.00     0.196 C 
BRANCH  24  25
HETATM   25  O1  UNL     1      27.993   5.923  48.199  1.00  0.00    -0.392 OA
HETATM   26  C1  UNL     1      29.368   5.900  47.989  1.00  0.00     0.201 C 
ENDBRANCH  24  25
ENDBRANCH  23  24
ENDBRANCH   1  23
TORSDOF 7
ENDMDL
