MODEL 1
REMARK VINA RESULT:      -6.2      0.000      0.000
REMARK  7 active torsions:
REMARK  status: ('A' for Active; 'I' for Inactive)
REMARK    1  A    between atoms: C3_3  and  C4_4 
REMARK    2  A    between atoms: C4_4  and  C5_5 
REMARK    3  A    between atoms: C5_5  and  C6_6 
REMARK    4  A    between atoms: C6_6  and  C7_7 
REMARK    5  A    between atoms: C7_7  and  O1_8 
REMARK    6  A    between atoms: O1_8  and  C8_9 
REMARK    7  A    between atoms: N1_21  and  O2_22 
ROOT
HETATM    1  C1  UNL     1      21.540   0.991  48.989  1.00  0.00     0.012 C 
HETATM    2  C2  UNL     1      22.024   2.033  48.630  1.00  0.00    -0.117 C 
HETATM    3  C3  UNL     1      22.629   3.300  48.186  1.00  0.00     0.093 C 
ENDROOT
BRANCH   3   4
HETATM    4  C4  UNL     1      21.586   4.345  47.930  1.00  0.00     0.012 C 
BRANCH   4   5
HETATM    5  C5  UNL     1      22.158   5.701  48.160  1.00  0.00     0.003 C 
BRANCH   5   6
HETATM    6  C6  UNL     1      21.246   6.594  48.970  1.00  0.00     0.027 C 
BRANCH   6   7
HETATM    7  C7  UNL     1      22.057   6.992  50.220  1.00  0.00     0.175 C 
BRANCH   7   8
HETATM    8  O1  UNL     1      21.483   6.235  51.260  1.00  0.00    -0.351 OA
BRANCH   8   9
HETATM    9  C8  UNL     1      21.925   4.993  51.575  1.00  0.00     0.069 A 
HETATM   10  C9  UNL     1      21.046   4.027  51.949  1.00  0.00     0.039 A 
HETATM   11  C10 UNL     1      21.389   2.740  52.286  1.00  0.00     0.035 A 
HETATM   12  C11 UNL     1      22.731   2.498  52.212  1.00  0.00     0.063 A 
HETATM   13  C12 UNL     1      23.717   3.435  51.837  1.00  0.00    -0.003 A 
HETATM   14  N2  UNL     1      23.133   1.335  52.419  1.00  0.00    -0.267 NA
HETATM   15  C13 UNL     1      23.254   4.688  51.523  1.00  0.00     0.050 A 
HETATM   16  C14 UNL     1      24.996   3.126  51.830  1.00  0.00     0.052 C 
HETATM   17  C15 UNL     1      26.090   2.198  52.042  1.00  0.00     0.103 C 
HETATM   18  F1  UNL     1      27.345   2.682  51.631  1.00  0.00    -0.210 F 
HETATM   19  C16 UNL     1      25.675   1.065  52.583  1.00  0.00     0.086 C 
HETATM   20  C17 UNL     1      25.839  -0.317  53.127  1.00  0.00     0.005 C 
HETATM   21  C18 UNL     1      24.720  -0.904  53.588  1.00  0.00     0.116 C 
HETATM   22  N1  UNL     1      23.327  -0.623  53.747  1.00  0.00    -0.251 N 
HETATM   23  C20 UNL     1      22.566   0.093  52.728  1.00  0.00     0.304 C 
BRANCH  22  24
HETATM   24  O2  UNL     1      22.681  -1.019  54.892  1.00  0.00    -0.282 OA
HETATM   25  C19 UNL     1      21.299  -0.865  54.736  1.00  0.00     0.238 C 
ENDBRANCH  22  24
ENDBRANCH   8   9
ENDBRANCH   7   8
ENDBRANCH   6   7
ENDBRANCH   5   6
ENDBRANCH   4   5
ENDBRANCH   3   4
TORSDOF 7
ENDMDL
MODEL 2
REMARK VINA RESULT:      -6.0      3.611      7.248
REMARK  7 active torsions:
REMARK  status: ('A' for Active; 'I' for Inactive)
REMARK    1  A    between atoms: C3_3  and  C4_4 
REMARK    2  A    between atoms: C4_4  and  C5_5 
REMARK    3  A    between atoms: C5_5  and  C6_6 
REMARK    4  A    between atoms: C6_6  and  C7_7 
REMARK    5  A    between atoms: C7_7  and  O1_8 
REMARK    6  A    between atoms: O1_8  and  C8_9 
REMARK    7  A    between atoms: N1_21  and  O2_22 
ROOT
HETATM    1  C1  UNL     1      28.645   2.573  53.599  1.00  0.00     0.012 C 
HETATM    2  C2  UNL     1      28.950   1.414  53.706  1.00  0.00    -0.117 C 
HETATM    3  C3  UNL     1      29.339   0.000  53.841  1.00  0.00     0.093 C 
ENDROOT
BRANCH   3   4
HETATM    4  C4  UNL     1      28.141  -0.882  54.020  1.00  0.00     0.012 C 
BRANCH   4   5
HETATM    5  C5  UNL     1      27.587  -1.264  52.691  1.00  0.00     0.003 C 
BRANCH   5   6
HETATM    6  C6  UNL     1      26.136  -0.876  52.526  1.00  0.00     0.027 C 
BRANCH   6   7
HETATM    7  C7  UNL     1      25.685  -0.356  53.907  1.00  0.00     0.175 C 
BRANCH   7   8
HETATM    8  O1  UNL     1      25.083   0.887  53.627  1.00  0.00    -0.351 OA
BRANCH   8   9
HETATM    9  C8  UNL     1      23.829   0.983  53.123  1.00  0.00     0.069 A 
HETATM   10  C9  UNL     1      23.510   1.984  52.261  1.00  0.00     0.039 A 
HETATM   11  C10 UNL     1      22.272   2.169  51.695  1.00  0.00     0.035 A 
HETATM   12  C11 UNL     1      21.353   1.233  52.077  1.00  0.00     0.063 A 
HETATM   13  C12 UNL     1      21.590   0.163  52.964  1.00  0.00    -0.003 A 
HETATM   14  N2  UNL     1      20.223   1.267  51.551  1.00  0.00    -0.267 NA
HETATM   15  C13 UNL     1      22.865   0.081  53.468  1.00  0.00     0.050 A 
HETATM   16  C14 UNL     1      20.634  -0.672  53.309  1.00  0.00     0.052 C 
HETATM   17  C15 UNL     1      19.262  -1.139  53.258  1.00  0.00     0.103 C 
HETATM   18  F1  UNL     1      19.040  -2.357  53.926  1.00  0.00    -0.210 F 
HETATM   19  C16 UNL     1      18.486  -0.311  52.577  1.00  0.00     0.086 C 
HETATM   20  C17 UNL     1      17.200   0.157  51.979  1.00  0.00     0.005 C 
HETATM   21  C18 UNL     1      17.249   1.333  51.327  1.00  0.00     0.116 C 
HETATM   22  N1  UNL     1      18.189   2.358  50.996  1.00  0.00    -0.251 N 
HETATM   23  C20 UNL     1      19.558   2.048  50.597  1.00  0.00     0.304 C 
BRANCH  22  24
HETATM   24  O2  UNL     1      17.808   3.676  51.067  1.00  0.00    -0.282 OA
HETATM   25  C19 UNL     1      16.644   3.794  51.834  1.00  0.00     0.238 C 
ENDBRANCH  22  24
ENDBRANCH   8   9
ENDBRANCH   7   8
ENDBRANCH   6   7
ENDBRANCH   5   6
ENDBRANCH   4   5
ENDBRANCH   3   4
TORSDOF 7
ENDMDL
MODEL 3
REMARK VINA RESULT:      -5.7      4.348      5.674
REMARK  7 active torsions:
REMARK  status: ('A' for Active; 'I' for Inactive)
REMARK    1  A    between atoms: C3_3  and  C4_4 
REMARK    2  A    between atoms: C4_4  and  C5_5 
REMARK    3  A    between atoms: C5_5  and  C6_6 
REMARK    4  A    between atoms: C6_6  and  C7_7 
REMARK    5  A    between atoms: C7_7  and  O1_8 
REMARK    6  A    between atoms: O1_8  and  C8_9 
REMARK    7  A    between atoms: N1_21  and  O2_22 
ROOT
HETATM    1  C1  UNL     1      29.635  12.078  48.676  1.00  0.00     0.012 C 
HETATM    2  C2  UNL     1      29.670  10.906  48.948  1.00  0.00    -0.117 C 
HETATM    3  C3  UNL     1      29.730   9.474  49.285  1.00  0.00     0.093 C 
ENDROOT
BRANCH   3   4
HETATM    4  C4  UNL     1      28.360   8.867  49.341  1.00  0.00     0.012 C 
BRANCH   4   5
HETATM    5  C5  UNL     1      27.935   8.446  47.977  1.00  0.00     0.003 C 
BRANCH   5   6
HETATM    6  C6  UNL     1      27.993   6.949  47.780  1.00  0.00     0.027 C 
BRANCH   6   7
HETATM    7  C7  UNL     1      26.750   6.386  48.499  1.00  0.00     0.175 C 
BRANCH   7   8
HETATM    8  O1  UNL     1      27.157   5.115  48.950  1.00  0.00    -0.351 OA
BRANCH   8   9
HETATM    9  C8  UNL     1      26.299   4.255  49.550  1.00  0.00     0.069 A 
HETATM   10  C9  UNL     1      24.957   4.402  49.393  1.00  0.00     0.039 A 
HETATM   11  C10 UNL     1      24.006   3.587  49.957  1.00  0.00     0.035 A 
HETATM   12  C11 UNL     1      24.532   2.579  50.713  1.00  0.00     0.063 A 
HETATM   13  C12 UNL     1      25.906   2.348  50.935  1.00  0.00    -0.003 A 
HETATM   14  N2  UNL     1      23.751   1.736  51.198  1.00  0.00    -0.267 NA
HETATM   15  C13 UNL     1      26.761   3.229  50.322  1.00  0.00     0.050 A 
HETATM   16  C14 UNL     1      26.325   1.373  51.713  1.00  0.00     0.052 C 
HETATM   17  C15 UNL     1      26.087   0.249  52.598  1.00  0.00     0.103 C 
HETATM   18  F1  UNL     1      27.253  -0.439  52.984  1.00  0.00    -0.210 F 
HETATM   19  C16 UNL     1      24.801   0.096  52.863  1.00  0.00     0.086 C 
HETATM   20  C17 UNL     1      23.616  -0.562  53.491  1.00  0.00     0.005 C 
HETATM   21  C18 UNL     1      22.423   0.006  53.235  1.00  0.00     0.116 C 
HETATM   22  N1  UNL     1      21.875   1.112  52.512  1.00  0.00    -0.251 N 
HETATM   23  C20 UNL     1      22.372   1.493  51.194  1.00  0.00     0.304 C 
BRANCH  22  24
HETATM   24  O2  UNL     1      20.863   1.852  53.072  1.00  0.00    -0.282 OA
HETATM   25  C19 UNL     1      20.233   2.619  52.085  1.00  0.00     0.238 C 
ENDBRANCH  22  24
ENDBRANCH   8   9
ENDBRANCH   7   8
ENDBRANCH   6   7
ENDBRANCH   5   6
ENDBRANCH   4   5
ENDBRANCH   3   4
TORSDOF 7
ENDMDL
MODEL 4
REMARK VINA RESULT:      -5.7      4.008      6.017
REMARK  7 active torsions:
REMARK  status: ('A' for Active; 'I' for Inactive)
REMARK    1  A    between atoms: C3_3  and  C4_4 
REMARK    2  A    between atoms: C4_4  and  C5_5 
REMARK    3  A    between atoms: C5_5  and  C6_6 
REMARK    4  A    between atoms: C6_6  and  C7_7 
REMARK    5  A    between atoms: C7_7  and  O1_8 
REMARK    6  A    between atoms: O1_8  and  C8_9 
REMARK    7  A    between atoms: N1_21  and  O2_22 
ROOT
HETATM    1  C1  UNL     1      14.328  -4.366  51.112  1.00  0.00     0.012 C 
HETATM    2  C2  UNL     1      14.695  -3.223  51.020  1.00  0.00    -0.117 C 
HETATM    3  C3  UNL     1      15.143  -1.827  50.891  1.00  0.00     0.093 C 
ENDROOT
BRANCH   3   4
HETATM    4  C4  UNL     1      15.027  -1.092  52.192  1.00  0.00     0.012 C 
BRANCH   4   5
HETATM    5  C5  UNL     1      16.077  -0.039  52.277  1.00  0.00     0.003 C 
BRANCH   5   6
HETATM    6  C6  UNL     1      17.455  -0.555  51.930  1.00  0.00     0.027 C 
BRANCH   6   7
HETATM    7  C7  UNL     1      18.443   0.386  52.649  1.00  0.00     0.175 C 
BRANCH   7   8
HETATM    8  O1  UNL     1      19.319  -0.486  53.326  1.00  0.00    -0.351 OA
BRANCH   8   9
HETATM    9  C8  UNL     1      20.666  -0.372  53.228  1.00  0.00     0.069 A 
HETATM   10  C9  UNL     1      21.478  -1.202  53.935  1.00  0.00     0.039 A 
HETATM   11  C10 UNL     1      22.851  -1.169  53.906  1.00  0.00     0.035 A 
HETATM   12  C11 UNL     1      23.356  -0.205  53.081  1.00  0.00     0.063 A 
HETATM   13  C12 UNL     1      22.595   0.701  52.313  1.00  0.00    -0.003 A 
HETATM   14  N2  UNL     1      24.592  -0.151  52.923  1.00  0.00    -0.267 NA
HETATM   15  C13 UNL     1      21.233   0.573  52.424  1.00  0.00     0.050 A 
HETATM   16  C14 UNL     1      23.165   1.627  51.572  1.00  0.00     0.052 C 
HETATM   17  C15 UNL     1      24.333   2.315  51.059  1.00  0.00     0.103 C 
HETATM   18  F1  UNL     1      24.050   3.275  50.069  1.00  0.00    -0.210 F 
HETATM   19  C16 UNL     1      25.447   1.889  51.631  1.00  0.00     0.086 C 
HETATM   20  C17 UNL     1      26.922   1.851  51.864  1.00  0.00     0.005 C 
HETATM   21  C18 UNL     1      27.345   0.993  52.810  1.00  0.00     0.116 C 
HETATM   22  N1  UNL     1      26.814   0.042  53.737  1.00  0.00    -0.251 N 
HETATM   23  C20 UNL     1      25.716  -0.851  53.379  1.00  0.00     0.304 C 
BRANCH  22  24
HETATM   24  O2  UNL     1      27.333  -0.032  55.006  1.00  0.00    -0.282 OA
HETATM   25  C19 UNL     1      28.708   0.226  54.973  1.00  0.00     0.238 C 
ENDBRANCH  22  24
ENDBRANCH   8   9
ENDBRANCH   7   8
ENDBRANCH   6   7
ENDBRANCH   5   6
ENDBRANCH   4   5
ENDBRANCH   3   4
TORSDOF 7
ENDMDL
MODEL 5
REMARK VINA RESULT:      -5.7      6.831      9.282
REMARK  7 active torsions:
REMARK  status: ('A' for Active; 'I' for Inactive)
REMARK    1  A    between atoms: C3_3  and  C4_4 
REMARK    2  A    between atoms: C4_4  and  C5_5 
REMARK    3  A    between atoms: C5_5  and  C6_6 
REMARK    4  A    between atoms: C6_6  and  C7_7 
REMARK    5  A    between atoms: C7_7  and  O1_8 
REMARK    6  A    between atoms: O1_8  and  C8_9 
REMARK    7  A    between atoms: N1_21  and  O2_22 
ROOT
HETATM    1  C1  UNL     1      34.961   3.991  44.965  1.00  0.00     0.012 C 
HETATM    2  C2  UNL     1      34.851   3.694  46.126  1.00  0.00    -0.117 C 
HETATM    3  C3  UNL     1      34.724   3.316  47.543  1.00  0.00     0.093 C 
ENDROOT
BRANCH   3   4
HETATM    4  C4  UNL     1      34.530   4.520  48.415  1.00  0.00     0.012 C 
BRANCH   4   5
HETATM    5  C5  UNL     1      33.168   5.084  48.207  1.00  0.00     0.003 C 
BRANCH   5   6
HETATM    6  C6  UNL     1      33.190   6.544  47.817  1.00  0.00     0.027 C 
BRANCH   6   7
HETATM    7  C7  UNL     1      31.996   7.189  48.550  1.00  0.00     0.175 C 
BRANCH   7   8
HETATM    8  O1  UNL     1      31.056   7.436  47.530  1.00  0.00    -0.351 OA
BRANCH   8   9
HETATM    9  C8  UNL     1      29.734   7.187  47.693  1.00  0.00     0.069 A 
HETATM   10  C9  UNL     1      28.812   8.123  47.348  1.00  0.00     0.039 A 
HETATM   11  C10 UNL     1      27.452   7.969  47.473  1.00  0.00     0.035 A 
HETATM   12  C11 UNL     1      27.086   6.758  47.988  1.00  0.00     0.063 A 
HETATM   13  C12 UNL     1      27.968   5.729  48.375  1.00  0.00    -0.003 A 
HETATM   14  N2  UNL     1      25.870   6.492  48.061  1.00  0.00    -0.267 NA
HETATM   15  C13 UNL     1      29.304   5.997  48.205  1.00  0.00     0.050 A 
HETATM   16  C14 UNL     1      27.530   4.605  48.900  1.00  0.00     0.052 C 
HETATM   17  C15 UNL     1      26.463   3.740  49.366  1.00  0.00     0.103 C 
HETATM   18  F1  UNL     1      26.885   2.451  49.738  1.00  0.00    -0.210 F 
HETATM   19  C16 UNL     1      25.289   4.350  49.341  1.00  0.00     0.086 C 
HETATM   20  C17 UNL     1      23.811   4.453  49.531  1.00  0.00     0.005 C 
HETATM   21  C18 UNL     1      23.263   5.646  49.240  1.00  0.00     0.116 C 
HETATM   22  N1  UNL     1      23.653   6.943  48.782  1.00  0.00    -0.251 N 
HETATM   23  C20 UNL     1      24.660   7.121  47.741  1.00  0.00     0.304 C 
BRANCH  22  24
HETATM   24  O2  UNL     1      23.082   8.060  49.341  1.00  0.00    -0.282 OA
HETATM   25  C19 UNL     1      23.136   7.973  50.737  1.00  0.00     0.238 C 
ENDBRANCH  22  24
ENDBRANCH   8   9
ENDBRANCH   7   8
ENDBRANCH   6   7
ENDBRANCH   5   6
ENDBRANCH   4   5
ENDBRANCH   3   4
TORSDOF 7
ENDMDL
MODEL 6
REMARK VINA RESULT:      -5.6      2.481      3.705
REMARK  7 active torsions:
REMARK  status: ('A' for Active; 'I' for Inactive)
REMARK    1  A    between atoms: C3_3  and  C4_4 
REMARK    2  A    between atoms: C4_4  and  C5_5 
REMARK    3  A    between atoms: C5_5  and  C6_6 
REMARK    4  A    between atoms: C6_6  and  C7_7 
REMARK    5  A    between atoms: C7_7  and  O1_8 
REMARK    6  A    between atoms: O1_8  and  C8_9 
REMARK    7  A    between atoms: N1_21  and  O2_22 
ROOT
HETATM    1  C1  UNL     1      21.935   6.154  51.388  1.00  0.00     0.012 C 
HETATM    2  C2  UNL     1      21.858   7.079  50.622  1.00  0.00    -0.117 C 
HETATM    3  C3  UNL     1      21.753   8.217  49.693  1.00  0.00     0.093 C 
ENDROOT
BRANCH   3   4
HETATM    4  C4  UNL     1      22.953   8.308  48.800  1.00  0.00     0.012 C 
BRANCH   4   5
HETATM    5  C5  UNL     1      24.190   8.424  49.622  1.00  0.00     0.003 C 
BRANCH   5   6
HETATM    6  C6  UNL     1      25.425   7.943  48.895  1.00  0.00     0.027 C 
BRANCH   6   7
HETATM    7  C7  UNL     1      25.854   6.648  49.615  1.00  0.00     0.175 C 
BRANCH   7   8
HETATM    8  O1  UNL     1      25.345   5.616  48.802  1.00  0.00    -0.351 OA
BRANCH   8   9
HETATM    9  C8  UNL     1      24.633   4.582  49.312  1.00  0.00     0.069 A 
HETATM   10  C9  UNL     1      23.483   4.178  48.712  1.00  0.00     0.039 A 
HETATM   11  C10 UNL     1      22.691   3.144  49.148  1.00  0.00     0.035 A 
HETATM   12  C11 UNL     1      23.168   2.528  50.270  1.00  0.00     0.063 A 
HETATM   13  C12 UNL     1      24.347   2.877  50.961  1.00  0.00    -0.003 A 
HETATM   14  N2  UNL     1      22.563   1.524  50.694  1.00  0.00    -0.267 NA
HETATM   15  C13 UNL     1      25.055   3.927  50.433  1.00  0.00     0.050 A 
HETATM   16  C14 UNL     1      24.713   2.253  52.061  1.00  0.00     0.052 C 
HETATM   17  C15 UNL     1      24.511   1.256  53.093  1.00  0.00     0.103 C 
HETATM   18  F1  UNL     1      25.588   1.128  53.991  1.00  0.00    -0.210 F 
HETATM   19  C16 UNL     1      23.339   0.656  52.976  1.00  0.00     0.086 C 
HETATM   20  C17 UNL     1      22.270  -0.316  53.356  1.00  0.00     0.005 C 
HETATM   21  C18 UNL     1      21.157  -0.292  52.600  1.00  0.00     0.116 C 
HETATM   22  N1  UNL     1      20.618   0.409  51.476  1.00  0.00    -0.251 N 
HETATM   23  C20 UNL     1      21.441   0.770  50.326  1.00  0.00     0.304 C 
BRANCH  22  24
HETATM   24  O2  UNL     1      19.293   0.771  51.474  1.00  0.00    -0.282 OA
HETATM   25  C19 UNL     1      18.522  -0.246  52.049  1.00  0.00     0.238 C 
ENDBRANCH  22  24
ENDBRANCH   8   9
ENDBRANCH   7   8
ENDBRANCH   6   7
ENDBRANCH   5   6
ENDBRANCH   4   5
ENDBRANCH   3   4
TORSDOF 7
ENDMDL
MODEL 7
REMARK VINA RESULT:      -5.5      3.703      4.757
REMARK  7 active torsions:
REMARK  status: ('A' for Active; 'I' for Inactive)
REMARK    1  A    between atoms: C3_3  and  C4_4 
REMARK    2  A    between atoms: C4_4  and  C5_5 
REMARK    3  A    between atoms: C5_5  and  C6_6 
REMARK    4  A    between atoms: C6_6  and  C7_7 
REMARK    5  A    between atoms: C7_7  and  O1_8 
REMARK    6  A    between atoms: O1_8  and  C8_9 
REMARK    7  A    between atoms: N1_21  and  O2_22 
ROOT
HETATM    1  C1  UNL     1      25.829   9.000  44.168  1.00  0.00     0.012 C 
HETATM    2  C2  UNL     1      26.899   8.851  44.697  1.00  0.00    -0.117 C 
HETATM    3  C3  UNL     1      28.216   8.673  45.330  1.00  0.00     0.093 C 
ENDROOT
BRANCH   3   4
HETATM    4  C4  UNL     1      28.108   8.660  46.825  1.00  0.00     0.012 C 
BRANCH   4   5
HETATM    5  C5  UNL     1      27.613   7.335  47.288  1.00  0.00     0.003 C 
BRANCH   5   6
HETATM    6  C6  UNL     1      26.248   7.409  47.932  1.00  0.00     0.027 C 
BRANCH   6   7
HETATM    7  C7  UNL     1      26.374   6.643  49.264  1.00  0.00     0.175 C 
BRANCH   7   8
HETATM    8  O1  UNL     1      26.408   5.287  48.882  1.00  0.00    -0.351 OA
BRANCH   8   9
HETATM    9  C8  UNL     1      25.697   4.336  49.535  1.00  0.00     0.069 A 
HETATM   10  C9  UNL     1      24.340   4.327  49.468  1.00  0.00     0.039 A 
HETATM   11  C10 UNL     1      23.529   3.410  50.090  1.00  0.00     0.035 A 
HETATM   12  C11 UNL     1      24.217   2.472  50.807  1.00  0.00     0.063 A 
HETATM   13  C12 UNL     1      25.620   2.403  50.936  1.00  0.00    -0.003 A 
HETATM   14  N2  UNL     1      23.573   1.547  51.340  1.00  0.00    -0.267 NA
HETATM   15  C13 UNL     1      26.325   3.374  50.270  1.00  0.00     0.050 A 
HETATM   16  C14 UNL     1      26.200   1.486  51.681  1.00  0.00     0.052 C 
HETATM   17  C15 UNL     1      26.153   0.346  52.576  1.00  0.00     0.103 C 
HETATM   18  F1  UNL     1      27.413  -0.201  52.881  1.00  0.00    -0.210 F 
HETATM   19  C16 UNL     1      24.913   0.046  52.925  1.00  0.00     0.086 C 
HETATM   20  C17 UNL     1      23.856  -0.741  53.629  1.00  0.00     0.005 C 
HETATM   21  C18 UNL     1      22.592  -0.316  53.454  1.00  0.00     0.116 C 
HETATM   22  N1  UNL     1      21.873   0.716  52.773  1.00  0.00    -0.251 N 
HETATM   23  C20 UNL     1      22.233   1.146  51.426  1.00  0.00     0.304 C 
BRANCH  22  24
HETATM   24  O2  UNL     1      20.821   1.337  53.401  1.00  0.00    -0.282 OA
HETATM   25  C19 UNL     1      20.306   2.347  52.580  1.00  0.00     0.238 C 
ENDBRANCH  22  24
ENDBRANCH   8   9
ENDBRANCH   7   8
ENDBRANCH   6   7
ENDBRANCH   5   6
ENDBRANCH   4   5
ENDBRANCH   3   4
TORSDOF 7
ENDMDL
MODEL 8
REMARK VINA RESULT:      -5.4      5.225      8.153
REMARK  7 active torsions:
REMARK  status: ('A' for Active; 'I' for Inactive)
REMARK    1  A    between atoms: C3_3  and  C4_4 
REMARK    2  A    between atoms: C4_4  and  C5_5 
REMARK    3  A    between atoms: C5_5  and  C6_6 
REMARK    4  A    between atoms: C6_6  and  C7_7 
REMARK    5  A    between atoms: C7_7  and  O1_8 
REMARK    6  A    between atoms: O1_8  and  C8_9 
REMARK    7  A    between atoms: N1_21  and  O2_22 
ROOT
HETATM    1  C1  UNL     1      28.288   1.569  53.113  1.00  0.00     0.012 C 
HETATM    2  C2  UNL     1      27.238   1.585  52.524  1.00  0.00    -0.117 C 
HETATM    3  C3  UNL     1      25.962   1.601  51.790  1.00  0.00     0.093 C 
ENDROOT
BRANCH   3   4
HETATM    4  C4  UNL     1      24.796   1.427  52.715  1.00  0.00     0.012 C 
BRANCH   4   5
HETATM    5  C5  UNL     1      24.753   0.027  53.222  1.00  0.00     0.003 C 
BRANCH   5   6
HETATM    6  C6  UNL     1      23.405  -0.627  53.028  1.00  0.00     0.027 C 
BRANCH   6   7
HETATM    7  C7  UNL     1      22.826  -0.814  54.446  1.00  0.00     0.175 C 
BRANCH   7   8
HETATM    8  O1  UNL     1      21.733   0.074  54.493  1.00  0.00    -0.351 OA
BRANCH   8   9
HETATM    9  C8  UNL     1      20.589  -0.156  53.803  1.00  0.00     0.069 A 
HETATM   10  C9  UNL     1      20.166   0.729  52.862  1.00  0.00     0.039 A 
HETATM   11  C10 UNL     1      19.025   0.590  52.110  1.00  0.00     0.035 A 
HETATM   12  C11 UNL     1      18.324  -0.549  52.389  1.00  0.00     0.063 A 
HETATM   13  C12 UNL     1      18.683  -1.521  53.346  1.00  0.00    -0.003 A 
HETATM   14  N2  UNL     1      17.318  -0.806  51.699  1.00  0.00    -0.267 NA
HETATM   15  C13 UNL     1      19.842  -1.274  54.037  1.00  0.00     0.050 A 
HETATM   16  C14 UNL     1      17.926  -2.573  53.578  1.00  0.00     0.052 C 
HETATM   17  C15 UNL     1      16.741  -3.374  53.341  1.00  0.00     0.103 C 
HETATM   18  F1  UNL     1      16.734  -4.608  54.019  1.00  0.00    -0.210 F 
HETATM   19  C16 UNL     1      15.898  -2.775  52.518  1.00  0.00     0.086 C 
HETATM   20  C17 UNL     1      14.644  -2.652  51.716  1.00  0.00     0.005 C 
HETATM   21  C18 UNL     1      14.495  -1.504  51.029  1.00  0.00     0.116 C 
HETATM   22  N1  UNL     1      15.186  -0.273  50.801  1.00  0.00    -0.251 N 
HETATM   23  C20 UNL     1      16.634  -0.224  50.624  1.00  0.00     0.304 C 
BRANCH  22  24
HETATM   24  O2  UNL     1      14.479   0.904  50.759  1.00  0.00    -0.282 OA
HETATM   25  C19 UNL     1      15.347   1.987  50.937  1.00  0.00     0.238 C 
ENDBRANCH  22  24
ENDBRANCH   8   9
ENDBRANCH   7   8
ENDBRANCH   6   7
ENDBRANCH   5   6
ENDBRANCH   4   5
ENDBRANCH   3   4
TORSDOF 7
ENDMDL
MODEL 9
REMARK VINA RESULT:      -5.3      3.114      4.255
REMARK  7 active torsions:
REMARK  status: ('A' for Active; 'I' for Inactive)
REMARK    1  A    between atoms: C3_3  and  C4_4 
REMARK    2  A    between atoms: C4_4  and  C5_5 
REMARK    3  A    between atoms: C5_5  and  C6_6 
REMARK    4  A    between atoms: C6_6  and  C7_7 
REMARK    5  A    between atoms: C7_7  and  O1_8 
REMARK    6  A    between atoms: O1_8  and  C8_9 
REMARK    7  A    between atoms: N1_21  and  O2_22 
ROOT
HETATM    1  C1  UNL     1      19.949   3.545  42.001  1.00  0.00     0.012 C 
HETATM    2  C2  UNL     1      20.409   4.250  42.861  1.00  0.00    -0.117 C 
HETATM    3  C3  UNL     1      20.972   5.125  43.904  1.00  0.00     0.093 C 
ENDROOT
BRANCH   3   4
HETATM    4  C4  UNL     1      20.815   4.523  45.267  1.00  0.00     0.012 C 
BRANCH   4   5
HETATM    5  C5  UNL     1      22.040   3.758  45.629  1.00  0.00     0.003 C 
BRANCH   5   6
HETATM    6  C6  UNL     1      21.973   3.164  47.017  1.00  0.00     0.027 C 
BRANCH   6   7
HETATM    7  C7  UNL     1      22.398   4.296  47.975  1.00  0.00     0.175 C 
BRANCH   7   8
HETATM    8  O1  UNL     1      21.856   3.917  49.219  1.00  0.00    -0.351 OA
BRANCH   8   9
HETATM    9  C8  UNL     1      22.616   3.368  50.198  1.00  0.00     0.069 A 
HETATM   10  C9  UNL     1      23.777   3.961  50.580  1.00  0.00     0.039 A 
HETATM   11  C10 UNL     1      24.616   3.487  51.559  1.00  0.00     0.035 A 
HETATM   12  C11 UNL     1      24.177   2.332  52.141  1.00  0.00     0.063 A 
HETATM   13  C12 UNL     1      22.990   1.644  51.810  1.00  0.00    -0.003 A 
HETATM   14  N2  UNL     1      24.828   1.868  53.098  1.00  0.00    -0.267 NA
HETATM   15  C13 UNL     1      22.233   2.213  50.816  1.00  0.00     0.050 A 
HETATM   16  C14 UNL     1      22.661   0.513  52.396  1.00  0.00     0.052 C 
HETATM   17  C15 UNL     1      22.914  -0.563  53.335  1.00  0.00     0.103 C 
HETATM   18  F1  UNL     1      21.853  -1.477  53.465  1.00  0.00    -0.210 F 
HETATM   19  C16 UNL     1      24.110  -0.460  53.890  1.00  0.00     0.086 C 
HETATM   20  C17 UNL     1      25.223  -0.873  54.797  1.00  0.00     0.005 C 
HETATM   21  C18 UNL     1      26.327  -0.104  54.761  1.00  0.00     0.116 C 
HETATM   22  N1  UNL     1      26.826   1.057  54.092  1.00  0.00    -0.251 N 
HETATM   23  C20 UNL     1      25.977   2.213  53.821  1.00  0.00     0.304 C 
BRANCH  22  24
HETATM   24  O2  UNL     1      28.134   1.090  53.675  1.00  0.00    -0.282 OA
HETATM   25  C19 UNL     1      28.572   2.417  53.591  1.00  0.00     0.238 C 
ENDBRANCH  22  24
ENDBRANCH   8   9
ENDBRANCH   7   8
ENDBRANCH   6   7
ENDBRANCH   5   6
ENDBRANCH   4   5
ENDBRANCH   3   4
TORSDOF 7
ENDMDL
