MODEL 1
REMARK VINA RESULT:      -8.4      0.000      0.000
REMARK  0 active torsions:
REMARK  status: ('A' for Active; 'I' for Inactive)
ROOT
HETATM    1  C1  UNL     1      27.692   0.222  54.813  1.00  0.00     0.057 C 
HETATM    2  S1  UNL     1      26.261   0.311  54.086  1.00  0.00    -0.179 SA
HETATM    3  C2  UNL     1      26.473   0.098  52.370  1.00  0.00     0.034 C 
HETATM    4  C3  UNL     1      26.474   1.132  51.536  1.00  0.00    -0.015 C 
HETATM    5  C4  UNL     1      26.282   2.476  52.152  1.00  0.00     0.083 C 
HETATM    6  C5  UNL     1      25.025   3.020  51.520  1.00  0.00     0.034 C 
HETATM    7  C6  UNL     1      25.225   3.121  50.030  1.00  0.00     0.068 C 
HETATM    8  N1  UNL     1      23.864   3.394  51.999  1.00  0.00    -0.162 NA
HETATM    9  N2  UNL     1      22.845   3.876  51.137  1.00  0.00    -0.176 N 
HETATM   10  O1  UNL     1      22.543   2.710  50.512  1.00  0.00    -0.193 OA
HETATM   11  C7  UNL     1      21.256   2.438  50.156  1.00  0.00     0.238 A 
HETATM   12  N3  UNL     1      20.669   1.468  50.588  1.00  0.00    -0.192 NA
HETATM   13  C8  UNL     1      19.409   1.191  50.246  1.00  0.00     0.174 A 
HETATM   14  C9  UNL     1      18.734   2.091  49.328  1.00  0.00     0.112 A 
HETATM   15  S2  UNL     1      20.142   3.336  49.053  1.00  0.00    -0.050 SA
HETATM   16  O2  UNL     1      19.016   0.011  50.910  1.00  0.00    -0.329 OA
HETATM   17  C10 UNL     1      18.511   0.179  52.203  1.00  0.00     0.130 C 
HETATM   18  C11 UNL     1      16.994  -0.062  52.092  1.00  0.00     0.040 C 
HETATM   19  C12 UNL     1      18.997  -0.815  53.190  1.00  0.00     0.059 C 
HETATM   20  C13 UNL     1      20.449  -0.859  53.418  1.00  0.00    -0.024 C 
HETATM   21  C14 UNL     1      21.212  -0.675  54.466  1.00  0.00    -0.004 C 
HETATM   22  C15 UNL     1      22.596  -0.679  54.856  1.00  0.00    -0.004 C 
HETATM   23  C16 UNL     1      23.795  -0.870  54.363  1.00  0.00    -0.017 C 
HETATM   24  C17 UNL     1      25.182  -0.850  54.857  1.00  0.00     0.098 C 
HETATM   25  H10 UNL     1      22.972   4.852  51.536  1.00  0.00     0.218 HD
ENDROOT
TORSDOF 0
ENDMDL
MODEL 2
REMARK VINA RESULT:      -7.9      2.333      7.310
REMARK  0 active torsions:
REMARK  status: ('A' for Active; 'I' for Inactive)
ROOT
HETATM    1  C1  UNL     1      20.398   4.504  47.514  1.00  0.00     0.057 C 
HETATM    2  S1  UNL     1      21.250   3.650  48.575  1.00  0.00    -0.179 SA
HETATM    3  C2  UNL     1      20.822   1.966  48.433  1.00  0.00     0.034 C 
HETATM    4  C3  UNL     1      19.990   1.387  49.292  1.00  0.00    -0.015 C 
HETATM    5  C4  UNL     1      19.449   2.255  50.376  1.00  0.00     0.083 C 
HETATM    6  C5  UNL     1      19.913   1.613  51.659  1.00  0.00     0.034 C 
HETATM    7  C6  UNL     1      19.352   0.217  51.743  1.00  0.00     0.068 C 
HETATM    8  N1  UNL     1      20.667   2.020  52.651  1.00  0.00    -0.162 NA
HETATM    9  N2  UNL     1      20.936   1.171  53.754  1.00  0.00    -0.176 N 
HETATM   10  O1  UNL     1      21.736   0.272  53.125  1.00  0.00    -0.193 OA
HETATM   11  C7  UNL     1      22.789  -0.286  53.787  1.00  0.00     0.238 A 
HETATM   12  N3  UNL     1      23.928  -0.150  53.394  1.00  0.00    -0.192 NA
HETATM   13  C8  UNL     1      24.968  -0.693  54.033  1.00  0.00     0.174 A 
HETATM   14  C9  UNL     1      24.707  -1.465  55.234  1.00  0.00     0.112 A 
HETATM   15  S2  UNL     1      22.816  -1.290  55.288  1.00  0.00    -0.050 SA
HETATM   16  O2  UNL     1      26.145  -0.357  53.334  1.00  0.00    -0.329 OA
HETATM   17  C10 UNL     1      26.723   0.871  53.670  1.00  0.00     0.130 C 
HETATM   18  C11 UNL     1      27.987   0.530  54.480  1.00  0.00     0.040 C 
HETATM   19  C12 UNL     1      27.200   1.667  52.512  1.00  0.00     0.059 C 
HETATM   20  C13 UNL     1      26.188   2.051  51.518  1.00  0.00    -0.024 C 
HETATM   21  C14 UNL     1      25.744   3.197  51.066  1.00  0.00    -0.004 C 
HETATM   22  C15 UNL     1      24.796   3.739  50.130  1.00  0.00    -0.004 C 
HETATM   23  C16 UNL     1      23.897   3.363  49.254  1.00  0.00    -0.017 C 
HETATM   24  C17 UNL     1      22.957   4.012  48.325  1.00  0.00     0.098 C 
HETATM   25  H10 UNL     1      20.331   1.787  54.373  1.00  0.00     0.218 HD
ENDROOT
TORSDOF 0
ENDMDL
MODEL 3
REMARK VINA RESULT:      -7.6      2.084      6.425
REMARK  0 active torsions:
REMARK  status: ('A' for Active; 'I' for Inactive)
ROOT
HETATM    1  C1  UNL     1      16.299   0.032  51.372  1.00  0.00     0.057 C 
HETATM    2  S1  UNL     1      17.861   0.359  51.560  1.00  0.00    -0.179 SA
HETATM    3  C2  UNL     1      18.079   2.086  51.655  1.00  0.00     0.034 C 
HETATM    4  C3  UNL     1      18.504   2.790  50.612  1.00  0.00    -0.015 C 
HETATM    5  C4  UNL     1      18.781   2.022  49.364  1.00  0.00     0.083 C 
HETATM    6  C5  UNL     1      20.242   2.259  49.076  1.00  0.00     0.034 C 
HETATM    7  C6  UNL     1      20.473   3.734  48.874  1.00  0.00     0.068 C 
HETATM    8  N1  UNL     1      21.282   1.467  48.977  1.00  0.00    -0.162 NA
HETATM    9  N2  UNL     1      22.568   1.992  48.688  1.00  0.00    -0.176 N 
HETATM   10  O1  UNL     1      22.794   2.628  49.866  1.00  0.00    -0.193 OA
HETATM   11  C7  UNL     1      24.051   2.668  50.391  1.00  0.00     0.238 A 
HETATM   12  N3  UNL     1      24.300   2.195  51.480  1.00  0.00    -0.192 NA
HETATM   13  C8  UNL     1      25.527   2.230  52.005  1.00  0.00     0.174 A 
HETATM   14  C9  UNL     1      26.585   2.858  51.233  1.00  0.00     0.112 A 
HETATM   15  S2  UNL     1      25.573   3.363  49.707  1.00  0.00    -0.050 SA
HETATM   16  O2  UNL     1      25.490   1.604  53.267  1.00  0.00    -0.329 OA
HETATM   17  C10 UNL     1      25.653   0.215  53.262  1.00  0.00     0.130 C 
HETATM   18  C11 UNL     1      27.067  -0.041  53.816  1.00  0.00     0.040 C 
HETATM   19  C12 UNL     1      24.736  -0.518  54.169  1.00  0.00     0.059 C 
HETATM   20  C13 UNL     1      23.296  -0.364  53.912  1.00  0.00    -0.024 C 
HETATM   21  C14 UNL     1      22.331  -1.196  53.612  1.00  0.00    -0.004 C 
HETATM   22  C15 UNL     1      20.919  -1.219  53.337  1.00  0.00    -0.004 C 
HETATM   23  C16 UNL     1      19.883  -0.421  53.248  1.00  0.00    -0.017 C 
HETATM   24  C17 UNL     1      18.446  -0.546  52.955  1.00  0.00     0.098 C 
HETATM   25  H10 UNL     1      22.531   1.547  47.724  1.00  0.00     0.218 HD
ENDROOT
TORSDOF 0
ENDMDL
MODEL 4
REMARK VINA RESULT:      -7.4      1.799      2.759
REMARK  0 active torsions:
REMARK  status: ('A' for Active; 'I' for Inactive)
ROOT
HETATM    1  C1  UNL     1      24.937  -1.282  55.905  1.00  0.00     0.057 C 
HETATM    2  S1  UNL     1      24.237  -0.598  54.631  1.00  0.00    -0.179 SA
HETATM    3  C2  UNL     1      25.274  -0.778  53.241  1.00  0.00     0.034 C 
HETATM    4  C3  UNL     1      26.037   0.220  52.810  1.00  0.00    -0.015 C 
HETATM    5  C4  UNL     1      25.956   1.494  53.581  1.00  0.00     0.083 C 
HETATM    6  C5  UNL     1      25.477   2.522  52.586  1.00  0.00     0.034 C 
HETATM    7  C6  UNL     1      26.475   2.623  51.462  1.00  0.00     0.068 C 
HETATM    8  N1  UNL     1      24.419   3.292  52.524  1.00  0.00    -0.162 NA
HETATM    9  N2  UNL     1      24.233   4.184  51.436  1.00  0.00    -0.176 N 
HETATM   10  O1  UNL     1      23.987   3.267  50.466  1.00  0.00    -0.193 OA
HETATM   11  C7  UNL     1      23.090   3.543  49.477  1.00  0.00     0.238 A 
HETATM   12  N3  UNL     1      22.105   2.856  49.306  1.00  0.00    -0.192 NA
HETATM   13  C8  UNL     1      21.220   3.116  48.340  1.00  0.00     0.174 A 
HETATM   14  C9  UNL     1      21.460   4.259  47.478  1.00  0.00     0.112 A 
HETATM   15  S2  UNL     1      23.087   4.867  48.248  1.00  0.00    -0.050 SA
HETATM   16  O2  UNL     1      20.197   2.147  48.401  1.00  0.00    -0.329 OA
HETATM   17  C10 UNL     1      19.148   2.425  49.283  1.00  0.00     0.130 C 
HETATM   18  C11 UNL     1      17.947   2.804  48.397  1.00  0.00     0.040 C 
HETATM   19  C12 UNL     1      18.694   1.264  50.087  1.00  0.00     0.059 C 
HETATM   20  C13 UNL     1      19.695   0.642  50.967  1.00  0.00    -0.024 C 
HETATM   21  C14 UNL     1      19.778   0.452  52.260  1.00  0.00    -0.004 C 
HETATM   22  C15 UNL     1      20.650  -0.117  53.252  1.00  0.00    -0.004 C 
HETATM   23  C16 UNL     1      21.801  -0.733  53.368  1.00  0.00    -0.017 C 
HETATM   24  C17 UNL     1      22.625  -1.287  54.455  1.00  0.00     0.098 C 
HETATM   25  H10 UNL     1      24.409   5.007  52.084  1.00  0.00     0.218 HD
ENDROOT
TORSDOF 0
ENDMDL
MODEL 5
REMARK VINA RESULT:      -7.0      2.861      6.214
REMARK  0 active torsions:
REMARK  status: ('A' for Active; 'I' for Inactive)
ROOT
HETATM    1  C1  UNL     1      19.678   7.635  48.441  1.00  0.00     0.057 C 
HETATM    2  S1  UNL     1      20.323   6.434  49.293  1.00  0.00    -0.179 SA
HETATM    3  C2  UNL     1      21.486   7.085  50.416  1.00  0.00     0.034 C 
HETATM    4  C3  UNL     1      22.791   7.032  50.172  1.00  0.00    -0.015 C 
HETATM    5  C4  UNL     1      23.198   6.388  48.891  1.00  0.00     0.083 C 
HETATM    6  C5  UNL     1      24.061   5.220  49.298  1.00  0.00     0.034 C 
HETATM    7  C6  UNL     1      25.256   5.731  50.060  1.00  0.00     0.068 C 
HETATM    8  N1  UNL     1      23.967   3.924  49.124  1.00  0.00    -0.162 NA
HETATM    9  N2  UNL     1      24.959   3.049  49.636  1.00  0.00    -0.176 N 
HETATM   10  O1  UNL     1      24.687   3.189  50.958  1.00  0.00    -0.193 OA
HETATM   11  C7  UNL     1      24.812   2.122  51.798  1.00  0.00     0.238 A 
HETATM   12  N3  UNL     1      23.868   1.701  52.433  1.00  0.00    -0.192 NA
HETATM   13  C8  UNL     1      23.979   0.658  53.259  1.00  0.00     0.174 A 
HETATM   14  C9  UNL     1      25.277   0.021  53.389  1.00  0.00     0.112 A 
HETATM   15  S2  UNL     1      26.260   1.115  52.187  1.00  0.00    -0.050 SA
HETATM   16  O2  UNL     1      22.719   0.415  53.842  1.00  0.00    -0.329 OA
HETATM   17  C10 UNL     1      21.856  -0.403  53.105  1.00  0.00     0.130 C 
HETATM   18  C11 UNL     1      21.819  -1.750  53.851  1.00  0.00     0.040 C 
HETATM   19  C12 UNL     1      20.448   0.063  53.065  1.00  0.00     0.059 C 
HETATM   20  C13 UNL     1      20.212   1.389  52.476  1.00  0.00    -0.024 C 
HETATM   21  C14 UNL     1      19.515   1.821  51.455  1.00  0.00    -0.004 C 
HETATM   22  C15 UNL     1      19.182   3.036  50.762  1.00  0.00    -0.004 C 
HETATM   23  C16 UNL     1      19.406   4.327  50.799  1.00  0.00    -0.017 C 
HETATM   24  C17 UNL     1      19.009   5.515  50.025  1.00  0.00     0.098 C 
HETATM   25  H10 UNL     1      25.285   2.843  48.646  1.00  0.00     0.218 HD
ENDROOT
TORSDOF 0
ENDMDL
MODEL 6
REMARK VINA RESULT:      -6.9      2.673      7.735
REMARK  0 active torsions:
REMARK  status: ('A' for Active; 'I' for Inactive)
ROOT
HETATM    1  C1  UNL     1      19.528   6.442  46.339  1.00  0.00     0.057 C 
HETATM    2  S1  UNL     1      20.398   5.504  47.311  1.00  0.00    -0.179 SA
HETATM    3  C2  UNL     1      19.870   3.851  47.138  1.00  0.00     0.034 C 
HETATM    4  C3  UNL     1      19.064   3.283  48.028  1.00  0.00    -0.015 C 
HETATM    5  C4  UNL     1      18.641   4.136  49.175  1.00  0.00     0.083 C 
HETATM    6  C5  UNL     1      19.149   3.421  50.402  1.00  0.00     0.034 C 
HETATM    7  C6  UNL     1      18.520   2.054  50.472  1.00  0.00     0.068 C 
HETATM    8  N1  UNL     1      19.986   3.749  51.356  1.00  0.00    -0.162 NA
HETATM    9  N2  UNL     1      20.277   2.844  52.409  1.00  0.00    -0.176 N 
HETATM   10  O1  UNL     1      20.986   1.931  51.697  1.00  0.00    -0.193 OA
HETATM   11  C7  UNL     1      22.047   1.293  52.268  1.00  0.00     0.238 A 
HETATM   12  N3  UNL     1      23.165   1.384  51.807  1.00  0.00    -0.192 NA
HETATM   13  C8  UNL     1      24.211   0.763  52.357  1.00  0.00     0.174 A 
HETATM   14  C9  UNL     1      23.985  -0.040  53.544  1.00  0.00     0.112 A 
HETATM   15  S2  UNL     1      22.114   0.231  53.728  1.00  0.00    -0.050 SA
HETATM   16  O2  UNL     1      25.359   1.064  51.595  1.00  0.00    -0.329 OA
HETATM   17  C10 UNL     1      26.022   2.247  51.936  1.00  0.00     0.130 C 
HETATM   18  C11 UNL     1      27.315   1.809  52.650  1.00  0.00     0.040 C 
HETATM   19  C12 UNL     1      26.468   3.061  50.779  1.00  0.00     0.059 C 
HETATM   20  C13 UNL     1      25.417   3.536  49.867  1.00  0.00    -0.024 C 
HETATM   21  C14 UNL     1      25.010   4.721  49.486  1.00  0.00    -0.004 C 
HETATM   22  C15 UNL     1      24.035   5.347  48.634  1.00  0.00    -0.004 C 
HETATM   23  C16 UNL     1      23.063   5.053  47.806  1.00  0.00    -0.017 C 
HETATM   24  C17 UNL     1      22.103   5.785  46.963  1.00  0.00     0.098 C 
HETATM   25  H10 UNL     1      19.748   3.467  53.087  1.00  0.00     0.218 HD
ENDROOT
TORSDOF 0
ENDMDL
MODEL 7
REMARK VINA RESULT:      -6.9      9.139     10.926
REMARK  0 active torsions:
REMARK  status: ('A' for Active; 'I' for Inactive)
ROOT
HETATM    1  C1  UNL     1      33.247   5.375  47.980  1.00  0.00     0.057 C 
HETATM    2  S1  UNL     1      31.893   6.236  47.893  1.00  0.00    -0.179 SA
HETATM    3  C2  UNL     1      31.998   7.336  46.544  1.00  0.00     0.034 C 
HETATM    4  C3  UNL     1      32.289   8.620  46.717  1.00  0.00    -0.015 C 
HETATM    5  C4  UNL     1      32.520   9.063  48.122  1.00  0.00     0.083 C 
HETATM    6  C5  UNL     1      31.469  10.114  48.378  1.00  0.00     0.034 C 
HETATM    7  C6  UNL     1      31.660  11.250  47.406  1.00  0.00     0.068 C 
HETATM    8  N1  UNL     1      30.482  10.213  49.234  1.00  0.00    -0.162 NA
HETATM    9  N2  UNL     1      29.636  11.352  49.238  1.00  0.00    -0.176 N 
HETATM   10  O1  UNL     1      28.988  11.123  48.067  1.00  0.00    -0.193 OA
HETATM   11  C7  UNL     1      27.671  11.451  47.940  1.00  0.00     0.238 A 
HETATM   12  N3  UNL     1      26.831  10.614  47.682  1.00  0.00    -0.192 NA
HETATM   13  C8  UNL     1      25.538  10.924  47.553  1.00  0.00     0.174 A 
HETATM   14  C9  UNL     1      25.144  12.309  47.732  1.00  0.00     0.112 A 
HETATM   15  S2  UNL     1      26.853  13.054  48.096  1.00  0.00    -0.050 SA
HETATM   16  O2  UNL     1      24.825   9.745  47.256  1.00  0.00    -0.329 OA
HETATM   17  C10 UNL     1      24.420   8.985  48.358  1.00  0.00     0.130 C 
HETATM   18  C11 UNL     1      22.898   9.193  48.470  1.00  0.00     0.040 C 
HETATM   19  C12 UNL     1      24.607   7.522  48.203  1.00  0.00     0.059 C 
HETATM   20  C13 UNL     1      25.984   7.056  47.984  1.00  0.00    -0.024 C 
HETATM   21  C14 UNL     1      26.788   6.254  48.636  1.00  0.00    -0.004 C 
HETATM   22  C15 UNL     1      28.116   5.706  48.568  1.00  0.00    -0.004 C 
HETATM   23  C16 UNL     1      29.194   5.728  47.823  1.00  0.00    -0.017 C 
HETATM   24  C17 UNL     1      30.533   5.117  47.842  1.00  0.00     0.098 C 
HETATM   25  H10 UNL     1      30.057  11.659  50.163  1.00  0.00     0.218 HD
ENDROOT
TORSDOF 0
ENDMDL
MODEL 8
REMARK VINA RESULT:      -6.8      2.955      5.499
REMARK  0 active torsions:
REMARK  status: ('A' for Active; 'I' for Inactive)
ROOT
HETATM    1  C1  UNL     1      24.627   7.235  48.395  1.00  0.00     0.057 C 
HETATM    2  S1  UNL     1      23.872   5.974  49.047  1.00  0.00    -0.179 SA
HETATM    3  C2  UNL     1      23.017   5.108  47.799  1.00  0.00     0.034 C 
HETATM    4  C3  UNL     1      21.707   5.251  47.629  1.00  0.00    -0.015 C 
HETATM    5  C4  UNL     1      21.018   6.188  48.560  1.00  0.00     0.083 C 
HETATM    6  C5  UNL     1      20.000   5.342  49.284  1.00  0.00     0.034 C 
HETATM    7  C6  UNL     1      19.039   4.759  48.280  1.00  0.00     0.068 C 
HETATM    8  N1  UNL     1      19.812   5.038  50.545  1.00  0.00    -0.162 NA
HETATM    9  N2  UNL     1      18.740   4.194  50.936  1.00  0.00    -0.176 N 
HETATM   10  O1  UNL     1      19.204   3.028  50.418  1.00  0.00    -0.193 OA
HETATM   11  C7  UNL     1      18.979   1.853  51.071  1.00  0.00     0.238 A 
HETATM   12  N3  UNL     1      19.895   1.156  51.456  1.00  0.00    -0.192 NA
HETATM   13  C8  UNL     1      19.687   0.003  52.096  1.00  0.00     0.174 A 
HETATM   14  C9  UNL     1      18.316  -0.414  52.330  1.00  0.00     0.112 A 
HETATM   15  S2  UNL     1      17.423   1.053  51.518  1.00  0.00    -0.050 SA
HETATM   16  O2  UNL     1      20.939  -0.565  52.409  1.00  0.00    -0.329 OA
HETATM   17  C10 UNL     1      21.519  -0.134  53.606  1.00  0.00     0.130 C 
HETATM   18  C11 UNL     1      21.383  -1.315  54.584  1.00  0.00     0.040 C 
HETATM   19  C12 UNL     1      22.974   0.143  53.522  1.00  0.00     0.059 C 
HETATM   20  C13 UNL     1      23.391   1.185  52.572  1.00  0.00    -0.024 C 
HETATM   21  C14 UNL     1      24.021   2.326  52.691  1.00  0.00    -0.004 C 
HETATM   22  C15 UNL     1      24.496   3.429  51.900  1.00  0.00    -0.004 C 
HETATM   23  C16 UNL     1      24.540   3.853  50.660  1.00  0.00    -0.017 C 
HETATM   24  C17 UNL     1      25.061   5.024  49.937  1.00  0.00     0.098 C 
HETATM   25  H10 UNL     1      18.255   5.024  51.387  1.00  0.00     0.218 HD
ENDROOT
TORSDOF 0
ENDMDL
MODEL 9
REMARK VINA RESULT:      -6.7      2.497      6.553
REMARK  0 active torsions:
REMARK  status: ('A' for Active; 'I' for Inactive)
ROOT
HETATM    1  C1  UNL     1      17.119   4.665  46.779  1.00  0.00     0.057 C 
HETATM    2  S1  UNL     1      18.080   4.020  47.894  1.00  0.00    -0.179 SA
HETATM    3  C2  UNL     1      18.944   5.292  48.715  1.00  0.00     0.034 C 
HETATM    4  C3  UNL     1      20.206   5.577  48.418  1.00  0.00    -0.015 C 
HETATM    5  C4  UNL     1      20.837   4.751  47.349  1.00  0.00     0.083 C 
HETATM    6  C5  UNL     1      22.008   4.076  48.016  1.00  0.00     0.034 C 
HETATM    7  C6  UNL     1      22.958   5.128  48.529  1.00  0.00     0.068 C 
HETATM    8  N1  UNL     1      22.330   2.822  48.221  1.00  0.00    -0.162 NA
HETATM    9  N2  UNL     1      23.530   2.482  48.897  1.00  0.00    -0.176 N 
HETATM   10  O1  UNL     1      23.185   2.904  50.141  1.00  0.00    -0.193 OA
HETATM   11  C7  UNL     1      23.611   2.217  51.238  1.00  0.00     0.238 A 
HETATM   12  N3  UNL     1      22.827   1.725  52.022  1.00  0.00    -0.192 NA
HETATM   13  C8  UNL     1      23.232   1.050  53.101  1.00  0.00     0.174 A 
HETATM   14  C9  UNL     1      24.659   0.911  53.327  1.00  0.00     0.112 A 
HETATM   15  S2  UNL     1      25.288   1.863  51.808  1.00  0.00    -0.050 SA
HETATM   16  O2  UNL     1      22.093   0.608  53.804  1.00  0.00    -0.329 OA
HETATM   17  C10 UNL     1      21.554  -0.612  53.382  1.00  0.00     0.130 C 
HETATM   18  C11 UNL     1      21.917  -1.630  54.478  1.00  0.00     0.040 C 
HETATM   19  C12 UNL     1      20.073  -0.636  53.297  1.00  0.00     0.059 C 
HETATM   20  C13 UNL     1      19.452   0.324  52.373  1.00  0.00    -0.024 C 
HETATM   21  C14 UNL     1      18.689   0.207  51.316  1.00  0.00    -0.004 C 
HETATM   22  C15 UNL     1      18.015   1.008  50.329  1.00  0.00    -0.004 C 
HETATM   23  C16 UNL     1      17.821   2.258  49.987  1.00  0.00    -0.017 C 
HETATM   24  C17 UNL     1      17.098   2.990  48.934  1.00  0.00     0.098 C 
HETATM   25  H10 UNL     1      23.936   2.113  47.988  1.00  0.00     0.218 HD
ENDROOT
TORSDOF 0
ENDMDL
