MODEL 1
REMARK VINA RESULT:      -8.3      0.000      0.000
REMARK  3 active torsions:
REMARK  status: ('A' for Active; 'I' for Inactive)
REMARK    1  A    between atoms: C7_7  and  C8_8 
REMARK    2  A    between atoms: C11_11  and  N1_12 
REMARK       I    between atoms: N1_12  and  C12_13 
REMARK    3  A    between atoms: C12_13  and  C13_15 
ROOT
HETATM    1  C8  UNL     1      23.999   1.673  52.045  1.00  0.00    -0.029 A 
HETATM    2  C9  UNL     1      23.431   2.190  50.912  1.00  0.00     0.012 A 
HETATM    3  C10 UNL     1      24.194   2.844  49.963  1.00  0.00     0.030 A 
HETATM    4  C11 UNL     1      25.555   2.971  50.178  1.00  0.00     0.035 A 
HETATM    5  C19 UNL     1      26.133   2.448  51.325  1.00  0.00     0.030 A 
HETATM    6  C20 UNL     1      25.370   1.802  52.258  1.00  0.00     0.012 A 
ENDROOT
BRANCH   4   7
HETATM    7  N1  UNL     1      26.485   3.612  49.307  1.00  0.00    -0.322 N 
HETATM    8  C12 UNL     1      26.423   4.998  49.274  1.00  0.00     0.267 C 
HETATM    9  O1  UNL     1      25.554   5.516  50.015  1.00  0.00    -0.266 OA
HETATM   10  H14 UNL     1      27.258   3.303  48.636  1.00  0.00     0.169 HD
BRANCH   8  11
HETATM   11  C13 UNL     1      27.174   5.999  48.537  1.00  0.00     0.077 C 
HETATM   12  C14 UNL     1      26.682   7.190  47.912  1.00  0.00     0.019 C 
HETATM   13  C15 UNL     1      28.026   7.460  47.250  1.00  0.00     0.022 C 
HETATM   14  C16 UNL     1      29.287   7.642  46.898  1.00  0.00    -0.023 C 
HETATM   15  C18 UNL     1      28.725   7.362  48.608  1.00  0.00     0.116 A 
HETATM   16  C17 UNL     1      29.899   6.404  47.815  1.00  0.00     0.118 A 
HETATM   17  N2  UNL     1      28.600   5.940  48.149  1.00  0.00    -0.275 NA
ENDBRANCH   8  11
ENDBRANCH   4   7
BRANCH   1  18
HETATM   18  C7  UNL     1      23.060   1.001  52.968  1.00  0.00     0.158 C 
HETATM   19  C6  UNL     1      23.853  -0.127  53.643  1.00  0.00     0.063 C 
HETATM   20  C5  UNL     1      22.881  -1.087  54.282  1.00  0.00    -0.028 C 
HETATM   21  C4  UNL     1      21.605  -0.827  54.626  1.00  0.00    -0.028 C 
HETATM   22  C3  UNL     1      20.796   0.426  54.488  1.00  0.00     0.058 C 
HETATM   23  C2  UNL     1      20.759   0.804  53.030  1.00  0.00     0.121 C 
HETATM   24  C1  UNL     1      19.618   0.039  52.394  1.00  0.00     0.040 C 
HETATM   25  O2  UNL     1      21.926   0.490  52.344  1.00  0.00    -0.376 OA
ENDBRANCH   1  18
TORSDOF 3
ENDMDL
MODEL 2
REMARK VINA RESULT:      -8.2      2.001      9.097
REMARK  3 active torsions:
REMARK  status: ('A' for Active; 'I' for Inactive)
REMARK    1  A    between atoms: C7_7  and  C8_8 
REMARK    2  A    between atoms: C11_11  and  N1_12 
REMARK       I    between atoms: N1_12  and  C12_13 
REMARK    3  A    between atoms: C12_13  and  C13_15 
ROOT
HETATM    1  C8  UNL     1      26.266   5.250  48.889  1.00  0.00    -0.029 A 
HETATM    2  C9  UNL     1      26.782   4.058  49.321  1.00  0.00     0.012 A 
HETATM    3  C10 UNL     1      25.962   3.061  49.815  1.00  0.00     0.030 A 
HETATM    4  C11 UNL     1      24.598   3.288  49.867  1.00  0.00     0.035 A 
HETATM    5  C19 UNL     1      24.073   4.495  49.430  1.00  0.00     0.030 A 
HETATM    6  C20 UNL     1      24.892   5.476  48.942  1.00  0.00     0.012 A 
ENDROOT
BRANCH   4   7
HETATM    7  N1  UNL     1      23.614   2.373  50.344  1.00  0.00    -0.322 N 
HETATM    8  C12 UNL     1      23.620   2.140  51.712  1.00  0.00     0.267 C 
HETATM    9  O1  UNL     1      24.493   2.764  52.361  1.00  0.00    -0.266 OA
HETATM   10  H14 UNL     1      22.831   1.784  49.916  1.00  0.00     0.169 HD
BRANCH   8  11
HETATM   11  C13 UNL     1      22.805   1.299  52.572  1.00  0.00     0.077 C 
HETATM   12  C14 UNL     1      21.389   1.357  52.777  1.00  0.00     0.019 C 
HETATM   13  C15 UNL     1      21.462   0.343  53.912  1.00  0.00     0.022 C 
HETATM   14  C16 UNL     1      21.671  -0.663  54.743  1.00  0.00    -0.023 C 
HETATM   15  C18 UNL     1      22.215  -0.633  53.004  1.00  0.00     0.116 A 
HETATM   16  C17 UNL     1      23.261  -0.893  54.332  1.00  0.00     0.118 A 
HETATM   17  N2  UNL     1      23.278   0.281  53.534  1.00  0.00    -0.275 NA
ENDBRANCH   8  11
ENDBRANCH   4   7
BRANCH   1  18
HETATM   18  C7  UNL     1      27.262   6.221  48.388  1.00  0.00     0.158 C 
HETATM   19  C6  UNL     1      28.601   5.472  48.327  1.00  0.00     0.063 C 
HETATM   20  C5  UNL     1      29.716   6.481  48.213  1.00  0.00    -0.028 C 
HETATM   21  C4  UNL     1      29.606   7.752  47.783  1.00  0.00    -0.028 C 
HETATM   22  C3  UNL     1      28.410   8.521  47.312  1.00  0.00     0.058 C 
HETATM   23  C2  UNL     1      27.388   8.527  48.419  1.00  0.00     0.121 C 
HETATM   24  C1  UNL     1      27.725   9.684  49.337  1.00  0.00     0.040 C 
HETATM   25  O2  UNL     1      27.381   7.362  49.175  1.00  0.00    -0.376 OA
ENDBRANCH   1  18
TORSDOF 3
ENDMDL
MODEL 3
REMARK VINA RESULT:      -8.1      5.157      6.408
REMARK  3 active torsions:
REMARK  status: ('A' for Active; 'I' for Inactive)
REMARK    1  A    between atoms: C7_7  and  C8_8 
REMARK    2  A    between atoms: C11_11  and  N1_12 
REMARK       I    between atoms: N1_12  and  C12_13 
REMARK    3  A    between atoms: C12_13  and  C13_15 
ROOT
HETATM    1  C8  UNL     1      20.553  -0.410  53.191  1.00  0.00    -0.029 A 
HETATM    2  C9  UNL     1      21.425   0.112  52.274  1.00  0.00     0.012 A 
HETATM    3  C10 UNL     1      22.792   0.048  52.468  1.00  0.00     0.030 A 
HETATM    4  C11 UNL     1      23.271  -0.557  53.617  1.00  0.00     0.035 A 
HETATM    5  C19 UNL     1      22.390  -1.087  54.548  1.00  0.00     0.030 A 
HETATM    6  C20 UNL     1      21.039  -1.019  54.346  1.00  0.00     0.012 A 
ENDROOT
BRANCH   4   7
HETATM    7  N1  UNL     1      24.644  -0.709  53.973  1.00  0.00    -0.322 N 
HETATM    8  C12 UNL     1      25.511   0.239  53.448  1.00  0.00     0.267 C 
HETATM    9  O1  UNL     1      24.979   1.113  52.723  1.00  0.00    -0.266 OA
HETATM   10  H14 UNL     1      25.220  -1.387  54.565  1.00  0.00     0.169 HD
BRANCH   8  11
HETATM   11  C13 UNL     1      26.946   0.432  53.566  1.00  0.00     0.077 C 
HETATM   12  C14 UNL     1      27.658   1.660  53.755  1.00  0.00     0.019 C 
HETATM   13  C15 UNL     1      29.001   0.972  53.545  1.00  0.00     0.022 C 
HETATM   14  C16 UNL     1      30.075   0.203  53.514  1.00  0.00    -0.023 C 
HETATM   15  C18 UNL     1      28.652  -0.059  54.621  1.00  0.00     0.116 A 
HETATM   16  C17 UNL     1      29.254  -1.237  53.536  1.00  0.00     0.118 A 
HETATM   17  N2  UNL     1      28.003  -0.584  53.376  1.00  0.00    -0.275 NA
ENDBRANCH   8  11
ENDBRANCH   4   7
BRANCH   1  18
HETATM   18  C7  UNL     1      19.122  -0.269  52.850  1.00  0.00     0.158 C 
HETATM   19  C6  UNL     1      18.411  -1.485  53.459  1.00  0.00     0.063 C 
HETATM   20  C5  UNL     1      17.049  -1.618  52.827  1.00  0.00    -0.028 C 
HETATM   21  C4  UNL     1      16.358  -0.648  52.198  1.00  0.00    -0.028 C 
HETATM   22  C3  UNL     1      16.708   0.786  51.943  1.00  0.00     0.058 C 
HETATM   23  C2  UNL     1      17.992   0.826  51.158  1.00  0.00     0.121 C 
HETATM   24  C1  UNL     1      17.631   0.690  49.694  1.00  0.00     0.040 C 
HETATM   25  O2  UNL     1      18.874  -0.198  51.483  1.00  0.00    -0.376 OA
ENDBRANCH   1  18
TORSDOF 3
ENDMDL
MODEL 4
REMARK VINA RESULT:      -8.0      4.882      8.989
REMARK  3 active torsions:
REMARK  status: ('A' for Active; 'I' for Inactive)
REMARK    1  A    between atoms: C7_7  and  C8_8 
REMARK    2  A    between atoms: C11_11  and  N1_12 
REMARK       I    between atoms: N1_12  and  C12_13 
REMARK    3  A    between atoms: C12_13  and  C13_15 
ROOT
HETATM    1  C8  UNL     1      25.038   0.690  52.939  1.00  0.00    -0.029 A 
HETATM    2  C9  UNL     1      24.295  -0.339  53.452  1.00  0.00     0.012 A 
HETATM    3  C10 UNL     1      23.014  -0.593  52.999  1.00  0.00     0.030 A 
HETATM    4  C11 UNL     1      22.488   0.218  52.007  1.00  0.00     0.035 A 
HETATM    5  C19 UNL     1      23.239   1.260  51.485  1.00  0.00     0.030 A 
HETATM    6  C20 UNL     1      24.506   1.503  51.941  1.00  0.00     0.012 A 
ENDROOT
BRANCH   4   7
HETATM    7  N1  UNL     1      21.192   0.096  51.426  1.00  0.00    -0.322 N 
HETATM    8  C12 UNL     1      20.140   0.572  52.196  1.00  0.00     0.267 C 
HETATM    9  O1  UNL     1      20.460   1.051  53.309  1.00  0.00    -0.266 OA
HETATM   10  H14 UNL     1      20.784  -0.281  50.512  1.00  0.00     0.169 HD
BRANCH   8  11
HETATM   11  C13 UNL     1      18.705   0.631  51.973  1.00  0.00     0.077 C 
HETATM   12  C14 UNL     1      17.944   1.700  51.401  1.00  0.00     0.019 C 
HETATM   13  C15 UNL     1      16.628   1.022  51.758  1.00  0.00     0.022 C 
HETATM   14  C16 UNL     1      15.593   0.230  51.977  1.00  0.00    -0.023 C 
HETATM   15  C18 UNL     1      17.084  -0.257  51.051  1.00  0.00     0.116 A 
HETATM   16  C17 UNL     1      16.485  -1.097  52.415  1.00  0.00     0.118 A 
HETATM   17  N2  UNL     1      17.692  -0.349  52.419  1.00  0.00    -0.275 NA
ENDBRANCH   8  11
ENDBRANCH   4   7
BRANCH   1  18
HETATM   18  C7  UNL     1      26.388   0.841  53.521  1.00  0.00     0.158 C 
HETATM   19  C6  UNL     1      26.799   2.300  53.281  1.00  0.00     0.063 C 
HETATM   20  C5  UNL     1      28.289   2.424  53.482  1.00  0.00    -0.028 C 
HETATM   21  C4  UNL     1      29.077   1.581  54.176  1.00  0.00    -0.028 C 
HETATM   22  C3  UNL     1      28.741   0.327  54.923  1.00  0.00     0.058 C 
HETATM   23  C2  UNL     1      28.106  -0.640  53.958  1.00  0.00     0.121 C 
HETATM   24  C1  UNL     1      29.226  -1.391  53.269  1.00  0.00     0.040 C 
HETATM   25  O2  UNL     1      27.334  -0.024  52.980  1.00  0.00    -0.376 OA
ENDBRANCH   1  18
TORSDOF 3
ENDMDL
MODEL 5
REMARK VINA RESULT:      -8.0      5.351     10.357
REMARK  3 active torsions:
REMARK  status: ('A' for Active; 'I' for Inactive)
REMARK    1  A    between atoms: C7_7  and  C8_8 
REMARK    2  A    between atoms: C11_11  and  N1_12 
REMARK       I    between atoms: N1_12  and  C12_13 
REMARK    3  A    between atoms: C12_13  and  C13_15 
ROOT
HETATM    1  C8  UNL     1      22.904  -0.038  53.441  1.00  0.00    -0.029 A 
HETATM    2  C9  UNL     1      22.009   0.956  53.147  1.00  0.00     0.012 A 
HETATM    3  C10 UNL     1      20.648   0.757  53.280  1.00  0.00     0.030 A 
HETATM    4  C11 UNL     1      20.198  -0.477  53.720  1.00  0.00     0.035 A 
HETATM    5  C19 UNL     1      21.102  -1.485  54.018  1.00  0.00     0.030 A 
HETATM    6  C20 UNL     1      22.447  -1.278  53.883  1.00  0.00     0.012 A 
ENDROOT
BRANCH   4   7
HETATM    7  N1  UNL     1      18.835  -0.850  53.914  1.00  0.00    -0.322 N 
HETATM    8  C12 UNL     1      18.029  -0.793  52.786  1.00  0.00     0.267 C 
HETATM    9  O1  UNL     1      18.598  -0.418  51.734  1.00  0.00    -0.266 OA
HETATM   10  H14 UNL     1      18.231  -1.180  54.732  1.00  0.00     0.169 HD
BRANCH   8  11
HETATM   11  C13 UNL     1      16.622  -1.083  52.566  1.00  0.00     0.077 C 
HETATM   12  C14 UNL     1      15.535  -0.157  52.465  1.00  0.00     0.019 C 
HETATM   13  C15 UNL     1      14.509  -1.282  52.471  1.00  0.00     0.022 C 
HETATM   14  C16 UNL     1      13.769  -2.366  52.312  1.00  0.00    -0.023 C 
HETATM   15  C18 UNL     1      15.239  -1.966  51.312  1.00  0.00     0.116 A 
HETATM   16  C17 UNL     1      15.041  -3.422  52.187  1.00  0.00     0.118 A 
HETATM   17  N2  UNL     1      15.979  -2.414  52.536  1.00  0.00    -0.275 NA
ENDBRANCH   8  11
ENDBRANCH   4   7
BRANCH   1  18
HETATM   18  C7  UNL     1      24.325   0.319  53.250  1.00  0.00     0.158 C 
HETATM   19  C6  UNL     1      24.344   1.502  52.271  1.00  0.00     0.063 C 
HETATM   20  C5  UNL     1      25.742   1.660  51.727  1.00  0.00    -0.028 C 
HETATM   21  C4  UNL     1      26.876   1.195  52.285  1.00  0.00    -0.028 C 
HETATM   22  C3  UNL     1      27.094   0.421  53.548  1.00  0.00     0.058 C 
HETATM   23  C2  UNL     1      26.302  -0.858  53.459  1.00  0.00     0.121 C 
HETATM   24  C1  UNL     1      27.161  -1.871  52.732  1.00  0.00     0.040 C 
HETATM   25  O2  UNL     1      25.107  -0.724  52.763  1.00  0.00    -0.376 OA
ENDBRANCH   1  18
TORSDOF 3
ENDMDL
MODEL 6
REMARK VINA RESULT:      -7.9      5.059      9.856
REMARK  3 active torsions:
REMARK  status: ('A' for Active; 'I' for Inactive)
REMARK    1  A    between atoms: C7_7  and  C8_8 
REMARK    2  A    between atoms: C11_11  and  N1_12 
REMARK       I    between atoms: N1_12  and  C12_13 
REMARK    3  A    between atoms: C12_13  and  C13_15 
ROOT
HETATM    1  C8  UNL     1      23.202  -0.479  53.625  1.00  0.00    -0.029 A 
HETATM    2  C9  UNL     1      22.494   0.586  53.138  1.00  0.00     0.012 A 
HETATM    3  C10 UNL     1      21.112   0.606  53.176  1.00  0.00     0.030 A 
HETATM    4  C11 UNL     1      20.448  -0.481  53.720  1.00  0.00     0.035 A 
HETATM    5  C19 UNL     1      21.163  -1.561  54.214  1.00  0.00     0.030 A 
HETATM    6  C20 UNL     1      22.531  -1.571  54.172  1.00  0.00     0.012 A 
ENDROOT
BRANCH   4   7
HETATM    7  N1  UNL     1      19.035  -0.624  53.838  1.00  0.00    -0.322 N 
HETATM    8  C12 UNL     1      18.318  -0.535  52.653  1.00  0.00     0.267 C 
HETATM    9  O1  UNL     1      19.004  -0.338  51.622  1.00  0.00    -0.266 OA
HETATM   10  H14 UNL     1      18.336  -0.790  54.631  1.00  0.00     0.169 HD
BRANCH   8  11
HETATM   11  C13 UNL     1      16.900  -0.623  52.351  1.00  0.00     0.077 C 
HETATM   12  C14 UNL     1      16.063  -1.784  52.374  1.00  0.00     0.019 C 
HETATM   13  C15 UNL     1      14.902  -1.022  51.748  1.00  0.00     0.022 C 
HETATM   14  C16 UNL     1      13.951  -0.186  51.370  1.00  0.00    -0.023 C 
HETATM   15  C18 UNL     1      15.008   0.050  52.835  1.00  0.00     0.116 A 
HETATM   16  C17 UNL     1      14.848   1.193  51.573  1.00  0.00     0.118 A 
HETATM   17  N2  UNL     1      16.033   0.449  51.816  1.00  0.00    -0.275 NA
ENDBRANCH   8  11
ENDBRANCH   4   7
BRANCH   1  18
HETATM   18  C7  UNL     1      24.671  -0.360  53.516  1.00  0.00     0.158 C 
HETATM   19  C6  UNL     1      25.221  -0.495  54.943  1.00  0.00     0.063 C 
HETATM   20  C5  UNL     1      26.643   0.007  54.965  1.00  0.00    -0.028 C 
HETATM   21  C4  UNL     1      27.467   0.126  53.906  1.00  0.00    -0.028 C 
HETATM   22  C3  UNL     1      27.243  -0.184  52.458  1.00  0.00     0.058 C 
HETATM   23  C2  UNL     1      26.075   0.637  51.976  1.00  0.00     0.121 C 
HETATM   24  C1  UNL     1      26.614   1.991  51.567  1.00  0.00     0.040 C 
HETATM   25  O2  UNL     1      25.098   0.834  52.944  1.00  0.00    -0.376 OA
ENDBRANCH   1  18
TORSDOF 3
ENDMDL
MODEL 7
REMARK VINA RESULT:      -7.7      5.069      8.619
REMARK  3 active torsions:
REMARK  status: ('A' for Active; 'I' for Inactive)
REMARK    1  A    between atoms: C7_7  and  C8_8 
REMARK    2  A    between atoms: C11_11  and  N1_12 
REMARK       I    between atoms: N1_12  and  C12_13 
REMARK    3  A    between atoms: C12_13  and  C13_15 
ROOT
HETATM    1  C8  UNL     1      23.374   0.901  52.780  1.00  0.00    -0.029 A 
HETATM    2  C9  UNL     1      23.197   1.545  51.586  1.00  0.00     0.012 A 
HETATM    3  C10 UNL     1      21.943   1.671  51.019  1.00  0.00     0.030 A 
HETATM    4  C11 UNL     1      20.857   1.127  51.683  1.00  0.00     0.035 A 
HETATM    5  C19 UNL     1      21.034   0.474  52.893  1.00  0.00     0.030 A 
HETATM    6  C20 UNL     1      22.279   0.355  53.447  1.00  0.00     0.012 A 
ENDROOT
BRANCH   4   7
HETATM    7  N1  UNL     1      19.501   1.166  51.243  1.00  0.00    -0.322 N 
HETATM    8  C12 UNL     1      18.779   2.290  51.616  1.00  0.00     0.267 C 
HETATM    9  O1  UNL     1      19.408   3.135  52.296  1.00  0.00    -0.266 OA
HETATM   10  H14 UNL     1      18.852   0.534  50.675  1.00  0.00     0.169 HD
BRANCH   8  11
HETATM   11  C13 UNL     1      17.406   2.702  51.377  1.00  0.00     0.077 C 
HETATM   12  C14 UNL     1      16.580   2.408  50.246  1.00  0.00     0.019 C 
HETATM   13  C15 UNL     1      15.495   3.363  50.725  1.00  0.00     0.022 C 
HETATM   14  C16 UNL     1      14.589   4.086  51.360  1.00  0.00    -0.023 C 
HETATM   15  C18 UNL     1      15.466   2.662  52.085  1.00  0.00     0.116 A 
HETATM   16  C17 UNL     1      15.447   4.229  52.771  1.00  0.00     0.118 A 
HETATM   17  N2  UNL     1      16.600   3.637  52.191  1.00  0.00    -0.275 NA
ENDBRANCH   8  11
ENDBRANCH   4   7
BRANCH   1  18
HETATM   18  C7  UNL     1      24.770   0.844  53.263  1.00  0.00     0.158 C 
HETATM   19  C6  UNL     1      25.358   2.245  53.046  1.00  0.00     0.063 C 
HETATM   20  C5  UNL     1      26.861   2.161  53.138  1.00  0.00    -0.028 C 
HETATM   21  C4  UNL     1      27.574   1.189  53.738  1.00  0.00    -0.028 C 
HETATM   22  C3  UNL     1      27.124  -0.044  54.461  1.00  0.00     0.058 C 
HETATM   23  C2  UNL     1      26.298  -0.871  53.512  1.00  0.00     0.121 C 
HETATM   24  C1  UNL     1      27.254  -1.731  52.713  1.00  0.00     0.040 C 
HETATM   25  O2  UNL     1      25.549  -0.113  52.620  1.00  0.00    -0.376 OA
ENDBRANCH   1  18
TORSDOF 3
ENDMDL
MODEL 8
REMARK VINA RESULT:      -7.7      1.986      9.319
REMARK  3 active torsions:
REMARK  status: ('A' for Active; 'I' for Inactive)
REMARK    1  A    between atoms: C7_7  and  C8_8 
REMARK    2  A    between atoms: C11_11  and  N1_12 
REMARK       I    between atoms: N1_12  and  C12_13 
REMARK    3  A    between atoms: C12_13  and  C13_15 
ROOT
HETATM    1  C8  UNL     1      26.724   5.750  48.740  1.00  0.00    -0.029 A 
HETATM    2  C9  UNL     1      25.381   5.966  48.886  1.00  0.00     0.012 A 
HETATM    3  C10 UNL     1      24.532   4.951  49.286  1.00  0.00     0.030 A 
HETATM    4  C11 UNL     1      25.066   3.699  49.539  1.00  0.00     0.035 A 
HETATM    5  C19 UNL     1      26.427   3.478  49.391  1.00  0.00     0.030 A 
HETATM    6  C20 UNL     1      27.260   4.489  48.995  1.00  0.00     0.012 A 
ENDROOT
BRANCH   4   7
HETATM    7  N1  UNL     1      24.339   2.547  49.958  1.00  0.00    -0.322 N 
HETATM    8  C12 UNL     1      24.290   2.331  51.328  1.00  0.00     0.267 C 
HETATM    9  O1  UNL     1      24.894   3.176  52.029  1.00  0.00    -0.266 OA
HETATM   10  H14 UNL     1      23.790   1.761  49.483  1.00  0.00     0.169 HD
BRANCH   8  11
HETATM   11  C13 UNL     1      23.670   1.298  52.140  1.00  0.00     0.077 C 
HETATM   12  C14 UNL     1      24.250   0.554  53.217  1.00  0.00     0.019 C 
HETATM   13  C15 UNL     1      23.042  -0.371  53.296  1.00  0.00     0.022 C 
HETATM   14  C16 UNL     1      21.863  -0.965  53.350  1.00  0.00    -0.023 C 
HETATM   15  C18 UNL     1      22.112   0.839  53.417  1.00  0.00     0.116 A 
HETATM   16  C17 UNL     1      21.113   0.050  52.275  1.00  0.00     0.118 A 
HETATM   17  N2  UNL     1      22.338   0.687  51.943  1.00  0.00    -0.275 NA
ENDBRANCH   8  11
ENDBRANCH   4   7
BRANCH   1  18
HETATM   18  C7  UNL     1      27.507   6.927  48.306  1.00  0.00     0.158 C 
HETATM   19  C6  UNL     1      26.607   7.708  47.338  1.00  0.00     0.063 C 
HETATM   20  C5  UNL     1      27.459   8.680  46.561  1.00  0.00    -0.028 C 
HETATM   21  C4  UNL     1      28.674   9.142  46.914  1.00  0.00    -0.028 C 
HETATM   22  C3  UNL     1      29.512   8.852  48.121  1.00  0.00     0.058 C 
HETATM   23  C2  UNL     1      29.770   7.369  48.171  1.00  0.00     0.121 C 
HETATM   24  C1  UNL     1      30.982   7.093  47.306  1.00  0.00     0.040 C 
HETATM   25  O2  UNL     1      28.713   6.605  47.692  1.00  0.00    -0.376 OA
ENDBRANCH   1  18
TORSDOF 3
ENDMDL
MODEL 9
REMARK VINA RESULT:      -7.7      4.698      6.185
REMARK  3 active torsions:
REMARK  status: ('A' for Active; 'I' for Inactive)
REMARK    1  A    between atoms: C7_7  and  C8_8 
REMARK    2  A    between atoms: C11_11  and  N1_12 
REMARK       I    between atoms: N1_12  and  C12_13 
REMARK    3  A    between atoms: C12_13  and  C13_15 
ROOT
HETATM    1  C8  UNL     1      21.073   1.395  51.774  1.00  0.00    -0.029 A 
HETATM    2  C9  UNL     1      21.444   0.856  52.975  1.00  0.00     0.012 A 
HETATM    3  C10 UNL     1      22.731   1.001  53.459  1.00  0.00     0.030 A 
HETATM    4  C11 UNL     1      23.649   1.708  52.700  1.00  0.00     0.035 A 
HETATM    5  C19 UNL     1      23.274   2.255  51.482  1.00  0.00     0.030 A 
HETATM    6  C20 UNL     1      21.998   2.106  51.013  1.00  0.00     0.012 A 
ENDROOT
BRANCH   4   7
HETATM    7  N1  UNL     1      25.010   1.953  53.047  1.00  0.00    -0.322 N 
HETATM    8  C12 UNL     1      25.854   0.854  52.987  1.00  0.00     0.267 C 
HETATM    9  O1  UNL     1      25.314  -0.222  52.636  1.00  0.00    -0.266 OA
HETATM   10  H14 UNL     1      25.591   2.795  53.357  1.00  0.00     0.169 HD
BRANCH   8  11
HETATM   11  C13 UNL     1      27.272   0.685  53.257  1.00  0.00     0.077 C 
HETATM   12  C14 UNL     1      28.243   1.699  53.538  1.00  0.00     0.019 C 
HETATM   13  C15 UNL     1      29.387   0.696  53.458  1.00  0.00     0.022 C 
HETATM   14  C16 UNL     1      30.233  -0.316  53.528  1.00  0.00    -0.023 C 
HETATM   15  C18 UNL     1      28.682  -0.203  54.477  1.00  0.00     0.116 A 
HETATM   16  C17 UNL     1      29.082  -1.506  53.444  1.00  0.00     0.118 A 
HETATM   17  N2  UNL     1      28.056  -0.565  53.164  1.00  0.00    -0.275 NA
ENDBRANCH   8  11
ENDBRANCH   4   7
BRANCH   1  18
HETATM   18  C7  UNL     1      19.666   1.158  51.386  1.00  0.00     0.158 C 
HETATM   19  C6  UNL     1      19.040   2.542  51.167  1.00  0.00     0.063 C 
HETATM   20  C5  UNL     1      17.539   2.401  51.163  1.00  0.00    -0.028 C 
HETATM   21  C4  UNL     1      16.840   1.274  50.931  1.00  0.00    -0.028 C 
HETATM   22  C3  UNL     1      17.308  -0.115  50.622  1.00  0.00     0.058 C 
HETATM   23  C2  UNL     1      18.187  -0.579  51.754  1.00  0.00     0.121 C 
HETATM   24  C1  UNL     1      17.282  -1.158  52.820  1.00  0.00     0.040 C 
HETATM   25  O2  UNL     1      18.936   0.441  52.329  1.00  0.00    -0.376 OA
ENDBRANCH   1  18
TORSDOF 3
ENDMDL
