MODEL 1
REMARK VINA RESULT:      -7.3      0.000      0.000
REMARK  5 active torsions:
REMARK  status: ('A' for Active; 'I' for Inactive)
REMARK    1  A    between atoms: C6_6  and  N1_7 
REMARK    2  A    between atoms: N1_7  and  C7_8 
REMARK    3  A    between atoms: C9_10  and  O1_11 
REMARK    4  A    between atoms: C11_13  and  O2_14 
REMARK    5  A    between atoms: C12_16  and  O3_17 
ROOT
HETATM    1  C7  UNL     1      24.502   0.964  52.116  1.00  0.00     0.038 A 
HETATM    2  C8  UNL     1      23.161   0.708  52.605  1.00  0.00     0.069 A 
HETATM    3  C9  UNL     1      23.524  -0.175  53.688  1.00  0.00     0.108 A 
HETATM    4  C11 UNL     1      24.710  -0.572  54.057  1.00  0.00     0.158 A 
HETATM    5  C12 UNL     1      25.787  -0.192  53.466  1.00  0.00     0.108 A 
HETATM    6  C14 UNL     1      25.772   0.707  52.338  1.00  0.00     0.069 A 
ENDROOT
BRANCH   1   7
HETATM    7  N1  UNL     1      24.594   1.875  51.029  1.00  0.00    -0.344 N 
HETATM    8  H7  UNL     1      24.031   1.433  50.203  1.00  0.00     0.167 HD
BRANCH   7   9
HETATM    9  C6  UNL     1      25.192   3.161  50.768  1.00  0.00     0.108 C 
HETATM   10  C5  UNL     1      26.442   3.472  50.016  1.00  0.00     0.112 C 
HETATM   11  C4  UNL     1      26.376   4.842  49.513  1.00  0.00     0.066 A 
HETATM   12  C3  UNL     1      27.608   4.725  48.655  1.00  0.00     0.009 A 
HETATM   13  N3  UNL     1      25.388   5.882  49.940  1.00  0.00    -0.271 NA
HETATM   14  C2  UNL     1      27.058   5.877  48.650  1.00  0.00     0.049 A 
HETATM   15  C15 UNL     1      24.532   5.396  50.647  1.00  0.00     0.229 C 
HETATM   16  N2  UNL     1      24.186   4.040  51.153  1.00  0.00    -0.229 NA
HETATM   17  C1  UNL     1      26.711   6.983  48.536  1.00  0.00     0.008 C 
ENDBRANCH   7   9
ENDBRANCH   1   7
BRANCH   3  18
HETATM   18  O1  UNL     1      22.884  -0.972  54.749  1.00  0.00    -0.353 OA
HETATM   19  C10 UNL     1      21.616  -1.634  54.509  1.00  0.00     0.210 C 
ENDBRANCH   3  18
BRANCH   5  20
HETATM   20  O3  UNL     1      26.913  -0.771  54.014  1.00  0.00    -0.353 OA
HETATM   21  C13 UNL     1      28.198  -0.067  54.046  1.00  0.00     0.210 C 
ENDBRANCH   5  20
BRANCH   4  22
HETATM   22  O2  UNL     1      25.189  -1.487  55.072  1.00  0.00    -0.235 OA
HETATM   23 CL1  UNL     1      25.172  -0.701  56.666  1.00  0.00     0.068 Cl
ENDBRANCH   4  22
TORSDOF 5
ENDMDL
MODEL 2
REMARK VINA RESULT:      -7.1      0.642      2.646
REMARK  5 active torsions:
REMARK  status: ('A' for Active; 'I' for Inactive)
REMARK    1  A    between atoms: C6_6  and  N1_7 
REMARK    2  A    between atoms: N1_7  and  C7_8 
REMARK    3  A    between atoms: C9_10  and  O1_11 
REMARK    4  A    between atoms: C11_13  and  O2_14 
REMARK    5  A    between atoms: C12_16  and  O3_17 
ROOT
HETATM    1  C7  UNL     1      25.124   1.333  52.175  1.00  0.00     0.038 A 
HETATM    2  C8  UNL     1      26.548   1.197  52.416  1.00  0.00     0.069 A 
HETATM    3  C9  UNL     1      26.470   0.138  53.394  1.00  0.00     0.108 A 
HETATM    4  C11 UNL     1      25.414  -0.464  53.865  1.00  0.00     0.158 A 
HETATM    5  C12 UNL     1      24.220  -0.178  53.482  1.00  0.00     0.108 A 
HETATM    6  C14 UNL     1      23.949   0.841  52.499  1.00  0.00     0.069 A 
ENDROOT
BRANCH   1   7
HETATM    7  N1  UNL     1      24.759   2.287  51.187  1.00  0.00    -0.344 N 
HETATM    8  H7  UNL     1      23.890   1.877  50.665  1.00  0.00     0.167 HD
BRANCH   7   9
HETATM    9  C6  UNL     1      25.209   3.583  50.743  1.00  0.00     0.108 C 
HETATM   10  C5  UNL     1      26.477   3.939  50.043  1.00  0.00     0.112 C 
HETATM   11  C4  UNL     1      26.286   5.180  49.296  1.00  0.00     0.066 A 
HETATM   12  C3  UNL     1      27.601   5.099  48.570  1.00  0.00     0.009 A 
HETATM   13  N3  UNL     1      25.134   6.124  49.452  1.00  0.00    -0.271 NA
HETATM   14  C2  UNL     1      26.911   6.142  48.314  1.00  0.00     0.049 A 
HETATM   15  C15 UNL     1      24.281   5.645  50.169  1.00  0.00     0.229 C 
HETATM   16  N2  UNL     1      24.065   4.359  50.885  1.00  0.00    -0.229 NA
HETATM   17  C1  UNL     1      26.437   7.150  47.976  1.00  0.00     0.008 C 
ENDBRANCH   7   9
ENDBRANCH   1   7
BRANCH   3  18
HETATM   18  O1  UNL     1      27.360  -0.671  54.245  1.00  0.00    -0.353 OA
HETATM   19  C10 UNL     1      28.540  -0.081  54.848  1.00  0.00     0.210 C 
ENDBRANCH   3  18
BRANCH   5  20
HETATM   20  O3  UNL     1      23.269  -0.925  54.146  1.00  0.00    -0.353 OA
HETATM   21  C13 UNL     1      21.910  -0.419  54.360  1.00  0.00     0.210 C 
ENDBRANCH   5  20
BRANCH   4  22
HETATM   22  O2  UNL     1      25.208  -1.482  54.874  1.00  0.00    -0.235 OA
HETATM   23 CL1  UNL     1      25.214  -0.752  56.494  1.00  0.00     0.068 Cl
ENDBRANCH   4  22
TORSDOF 5
ENDMDL
MODEL 3
REMARK VINA RESULT:      -7.0      3.817      6.180
REMARK  5 active torsions:
REMARK  status: ('A' for Active; 'I' for Inactive)
REMARK    1  A    between atoms: C6_6  and  N1_7 
REMARK    2  A    between atoms: N1_7  and  C7_8 
REMARK    3  A    between atoms: C9_10  and  O1_11 
REMARK    4  A    between atoms: C11_13  and  O2_14 
REMARK    5  A    between atoms: C12_16  and  O3_17 
ROOT
HETATM    1  C7  UNL     1      23.686   1.992  51.745  1.00  0.00     0.038 A 
HETATM    2  C8  UNL     1      23.594   3.340  51.219  1.00  0.00     0.069 A 
HETATM    3  C9  UNL     1      22.247   3.617  51.655  1.00  0.00     0.108 A 
HETATM    4  C11 UNL     1      21.426   2.849  52.315  1.00  0.00     0.158 A 
HETATM    5  C12 UNL     1      21.740   1.663  52.699  1.00  0.00     0.108 A 
HETATM    6  C14 UNL     1      23.030   1.080  52.427  1.00  0.00     0.069 A 
ENDROOT
BRANCH   1   7
HETATM    7  N1  UNL     1      24.940   1.348  51.563  1.00  0.00    -0.344 N 
HETATM    8  H7  UNL     1      25.063   1.203  50.486  1.00  0.00     0.167 HD
BRANCH   7   9
HETATM    9  C6  UNL     1      26.027   0.884  52.390  1.00  0.00     0.108 C 
HETATM   10  C5  UNL     1      26.473  -0.516  52.644  1.00  0.00     0.112 C 
HETATM   11  C4  UNL     1      27.880  -0.511  53.040  1.00  0.00     0.066 A 
HETATM   12  C3  UNL     1      28.039  -2.006  52.973  1.00  0.00     0.009 A 
HETATM   13  N3  UNL     1      28.667   0.694  53.448  1.00  0.00    -0.271 NA
HETATM   14  C2  UNL     1      29.078  -1.373  53.357  1.00  0.00     0.049 A 
HETATM   15  C15 UNL     1      28.033   1.709  53.251  1.00  0.00     0.229 C 
HETATM   16  N2  UNL     1      26.710   2.063  52.670  1.00  0.00    -0.229 NA
HETATM   17  C1  UNL     1      30.104  -0.974  53.736  1.00  0.00     0.008 C 
ENDBRANCH   7   9
ENDBRANCH   1   7
BRANCH   3  18
HETATM   18  O1  UNL     1      21.246   4.697  51.590  1.00  0.00    -0.353 OA
HETATM   19  C10 UNL     1      21.635   6.042  51.211  1.00  0.00     0.210 C 
ENDBRANCH   3  18
BRANCH   5  20
HETATM   20  O3  UNL     1      20.698   1.034  53.349  1.00  0.00    -0.353 OA
HETATM   21  C13 UNL     1      20.920   0.224  54.550  1.00  0.00     0.210 C 
ENDBRANCH   5  20
BRANCH   4  22
HETATM   22  O2  UNL     1      20.052   2.990  52.750  1.00  0.00    -0.235 OA
HETATM   23 CL1  UNL     1      18.944   2.709  51.389  1.00  0.00     0.068 Cl
ENDBRANCH   4  22
TORSDOF 5
ENDMDL
MODEL 4
REMARK VINA RESULT:      -7.0      4.141      5.975
REMARK  5 active torsions:
REMARK  status: ('A' for Active; 'I' for Inactive)
REMARK    1  A    between atoms: C6_6  and  N1_7 
REMARK    2  A    between atoms: N1_7  and  C7_8 
REMARK    3  A    between atoms: C9_10  and  O1_11 
REMARK    4  A    between atoms: C11_13  and  O2_14 
REMARK    5  A    between atoms: C12_16  and  O3_17 
ROOT
HETATM    1  C7  UNL     1      23.397   1.588  52.157  1.00  0.00     0.038 A 
HETATM    2  C8  UNL     1      22.600   0.435  52.531  1.00  0.00     0.069 A 
HETATM    3  C9  UNL     1      21.333   1.115  52.647  1.00  0.00     0.108 A 
HETATM    4  C11 UNL     1      21.060   2.376  52.457  1.00  0.00     0.158 A 
HETATM    5  C12 UNL     1      21.950   3.235  52.106  1.00  0.00     0.108 A 
HETATM    6  C14 UNL     1      23.330   2.874  51.896  1.00  0.00     0.069 A 
ENDROOT
BRANCH   1   7
HETATM    7  N1  UNL     1      24.767   1.324  51.886  1.00  0.00    -0.344 N 
HETATM    8  H7  UNL     1      24.922   1.542  50.826  1.00  0.00     0.167 HD
BRANCH   7   9
HETATM    9  C6  UNL     1      25.929   0.886  52.617  1.00  0.00     0.108 C 
HETATM   10  C5  UNL     1      26.440  -0.502  52.811  1.00  0.00     0.112 C 
HETATM   11  C4  UNL     1      27.872  -0.455  53.097  1.00  0.00     0.066 A 
HETATM   12  C3  UNL     1      28.075  -1.942  52.992  1.00  0.00     0.009 A 
HETATM   13  N3  UNL     1      28.650   0.771  53.463  1.00  0.00    -0.271 NA
HETATM   14  C2  UNL     1      29.120  -1.280  53.304  1.00  0.00     0.049 A 
HETATM   15  C15 UNL     1      27.969   1.765  53.333  1.00  0.00     0.229 C 
HETATM   16  N2  UNL     1      26.593   2.083  52.864  1.00  0.00    -0.229 NA
HETATM   17  C1  UNL     1      30.159  -0.852  53.610  1.00  0.00     0.008 C 
ENDBRANCH   7   9
ENDBRANCH   1   7
BRANCH   3  18
HETATM   18  O1  UNL     1      19.931   0.824  52.996  1.00  0.00    -0.353 OA
HETATM   19  C10 UNL     1      19.516  -0.528  53.317  1.00  0.00     0.210 C 
ENDBRANCH   3  18
BRANCH   5  20
HETATM   20  O3  UNL     1      21.430   4.508  52.000  1.00  0.00    -0.353 OA
HETATM   21  C13 UNL     1      22.089   5.542  51.197  1.00  0.00     0.210 C 
ENDBRANCH   5  20
BRANCH   4  22
HETATM   22  O2  UNL     1      19.861   3.174  52.599  1.00  0.00    -0.235 OA
HETATM   23 CL1  UNL     1      18.849   3.028  51.145  1.00  0.00     0.068 Cl
ENDBRANCH   4  22
TORSDOF 5
ENDMDL
MODEL 5
REMARK VINA RESULT:      -6.8      3.927      6.351
REMARK  5 active torsions:
REMARK  status: ('A' for Active; 'I' for Inactive)
REMARK    1  A    between atoms: C6_6  and  N1_7 
REMARK    2  A    between atoms: N1_7  and  C7_8 
REMARK    3  A    between atoms: C9_10  and  O1_11 
REMARK    4  A    between atoms: C11_13  and  O2_14 
REMARK    5  A    between atoms: C12_16  and  O3_17 
ROOT
HETATM    1  C7  UNL     1      24.679   2.807  52.389  1.00  0.00     0.038 A 
HETATM    2  C8  UNL     1      23.359   2.300  52.709  1.00  0.00     0.069 A 
HETATM    3  C9  UNL     1      22.722   2.636  51.459  1.00  0.00     0.108 A 
HETATM    4  C11 UNL     1      23.235   3.213  50.409  1.00  0.00     0.158 A 
HETATM    5  C12 UNL     1      24.468   3.574  50.345  1.00  0.00     0.108 A 
HETATM    6  C14 UNL     1      25.388   3.371  51.437  1.00  0.00     0.069 A 
ENDROOT
BRANCH   1   7
HETATM    7  N1  UNL     1      25.669   2.615  53.390  1.00  0.00    -0.344 N 
HETATM    8  H7  UNL     1      25.621   3.486  54.048  1.00  0.00     0.167 HD
BRANCH   7   9
HETATM    9  C6  UNL     1      26.645   1.613  53.739  1.00  0.00     0.108 C 
HETATM   10  C5  UNL     1      26.603   0.143  53.489  1.00  0.00     0.112 C 
HETATM   11  C4  UNL     1      27.966  -0.385  53.474  1.00  0.00     0.066 A 
HETATM   12  C3  UNL     1      27.571  -1.750  52.980  1.00  0.00     0.009 A 
HETATM   13  N3  UNL     1      29.187   0.338  53.949  1.00  0.00    -0.271 NA
HETATM   14  C2  UNL     1      28.817  -1.606  53.216  1.00  0.00     0.049 A 
HETATM   15  C15 UNL     1      28.929   1.495  54.203  1.00  0.00     0.229 C 
HETATM   16  N2  UNL     1      27.739   2.384  54.118  1.00  0.00    -0.229 NA
HETATM   17  C1  UNL     1      29.966  -1.665  53.391  1.00  0.00     0.008 C 
ENDBRANCH   7   9
ENDBRANCH   1   7
BRANCH   3  18
HETATM   18  O1  UNL     1      21.399   2.551  50.814  1.00  0.00    -0.353 OA
HETATM   19  C10 UNL     1      20.214   3.036  51.496  1.00  0.00     0.210 C 
ENDBRANCH   3  18
BRANCH   5  20
HETATM   20  O3  UNL     1      24.768   4.192  49.149  1.00  0.00    -0.353 OA
HETATM   21  C13 UNL     1      25.804   5.225  49.058  1.00  0.00     0.210 C 
ENDBRANCH   5  20
BRANCH   4  22
HETATM   22  O2  UNL     1      22.692   3.650  49.140  1.00  0.00    -0.235 OA
HETATM   23 CL1  UNL     1      22.629   2.290  47.997  1.00  0.00     0.068 Cl
ENDBRANCH   4  22
TORSDOF 5
ENDMDL
MODEL 6
REMARK VINA RESULT:      -6.8      4.837      8.220
REMARK  5 active torsions:
REMARK  status: ('A' for Active; 'I' for Inactive)
REMARK    1  A    between atoms: C6_6  and  N1_7 
REMARK    2  A    between atoms: N1_7  and  C7_8 
REMARK    3  A    between atoms: C9_10  and  O1_11 
REMARK    4  A    between atoms: C11_13  and  O2_14 
REMARK    5  A    between atoms: C12_16  and  O3_17 
ROOT
HETATM    1  C7  UNL     1      26.391   4.731  49.450  1.00  0.00     0.038 A 
HETATM    2  C8  UNL     1      27.583   4.802  48.627  1.00  0.00     0.069 A 
HETATM    3  C9  UNL     1      27.626   6.237  48.485  1.00  0.00     0.108 A 
HETATM    4  C11 UNL     1      26.814   7.132  48.975  1.00  0.00     0.158 A 
HETATM    5  C12 UNL     1      25.804   6.828  49.710  1.00  0.00     0.108 A 
HETATM    6  C14 UNL     1      25.481   5.465  50.051  1.00  0.00     0.069 A 
ENDROOT
BRANCH   1   7
HETATM    7  N1  UNL     1      26.015   3.428  49.875  1.00  0.00    -0.344 N 
HETATM    8  H7  UNL     1      25.819   2.849  48.969  1.00  0.00     0.167 HD
BRANCH   7   9
HETATM    9  C6  UNL     1      25.857   2.721  51.122  1.00  0.00     0.108 C 
HETATM   10  C5  UNL     1      24.626   2.103  51.693  1.00  0.00     0.112 C 
HETATM   11  C4  UNL     1      25.004   1.047  52.629  1.00  0.00     0.066 A 
HETATM   12  C3  UNL     1      23.605   0.521  52.803  1.00  0.00     0.009 A 
HETATM   13  N3  UNL     1      26.375   0.823  53.185  1.00  0.00    -0.271 NA
HETATM   14  C2  UNL     1      24.491  -0.071  53.506  1.00  0.00     0.049 A 
HETATM   15  C15 UNL     1      27.185   1.536  52.631  1.00  0.00     0.229 C 
HETATM   16  N2  UNL     1      27.175   2.528  51.522  1.00  0.00    -0.229 NA
HETATM   17  C1  UNL     1      25.148  -0.708  54.225  1.00  0.00     0.008 C 
ENDBRANCH   7   9
ENDBRANCH   1   7
BRANCH   3  18
HETATM   18  O1  UNL     1      28.435   7.276  47.823  1.00  0.00    -0.353 OA
HETATM   19  C10 UNL     1      29.882   7.255  47.919  1.00  0.00     0.210 C 
ENDBRANCH   3  18
BRANCH   5  20
HETATM   20  O3  UNL     1      25.077   7.941  50.080  1.00  0.00    -0.353 OA
HETATM   21  C13 UNL     1      23.788   7.820  50.768  1.00  0.00     0.210 C 
ENDBRANCH   5  20
BRANCH   4  22
HETATM   22  O2  UNL     1      26.721   8.572  48.855  1.00  0.00    -0.235 OA
HETATM   23 CL1  UNL     1      27.743   9.359  50.078  1.00  0.00     0.068 Cl
ENDBRANCH   4  22
TORSDOF 5
ENDMDL
MODEL 7
REMARK VINA RESULT:      -6.7      4.328      6.576
REMARK  5 active torsions:
REMARK  status: ('A' for Active; 'I' for Inactive)
REMARK    1  A    between atoms: C6_6  and  N1_7 
REMARK    2  A    between atoms: N1_7  and  C7_8 
REMARK    3  A    between atoms: C9_10  and  O1_11 
REMARK    4  A    between atoms: C11_13  and  O2_14 
REMARK    5  A    between atoms: C12_16  and  O3_17 
ROOT
HETATM    1  C7  UNL     1      23.343   1.927  52.888  1.00  0.00     0.038 A 
HETATM    2  C8  UNL     1      23.869   3.264  52.689  1.00  0.00     0.069 A 
HETATM    3  C9  UNL     1      22.647   3.877  52.227  1.00  0.00     0.108 A 
HETATM    4  C11 UNL     1      21.471   3.338  52.067  1.00  0.00     0.158 A 
HETATM    5  C12 UNL     1      21.230   2.102  52.328  1.00  0.00     0.108 A 
HETATM    6  C14 UNL     1      22.247   1.206  52.820  1.00  0.00     0.069 A 
ENDROOT
BRANCH   1   7
HETATM    7  N1  UNL     1      24.263   0.979  53.414  1.00  0.00    -0.344 N 
HETATM    8  H7  UNL     1      23.763   0.495  54.257  1.00  0.00     0.167 HD
BRANCH   7   9
HETATM    9  C6  UNL     1      25.596   0.516  53.119  1.00  0.00     0.108 C 
HETATM   10  C5  UNL     1      26.894   1.218  53.330  1.00  0.00     0.112 C 
HETATM   11  C4  UNL     1      27.966   0.232  53.441  1.00  0.00     0.066 A 
HETATM   12  C3  UNL     1      29.013   1.224  53.869  1.00  0.00     0.009 A 
HETATM   13  N3  UNL     1      27.859  -1.217  53.080  1.00  0.00    -0.271 NA
HETATM   14  C2  UNL     1      29.433   0.026  53.735  1.00  0.00     0.049 A 
HETATM   15  C15 UNL     1      26.710  -1.515  52.835  1.00  0.00     0.229 C 
HETATM   16  N2  UNL     1      25.388  -0.832  52.846  1.00  0.00    -0.229 NA
HETATM   17  C1  UNL     1      29.993  -0.991  53.650  1.00  0.00     0.008 C 
ENDBRANCH   7   9
ENDBRANCH   1   7
BRANCH   3  18
HETATM   18  O1  UNL     1      22.156   5.184  51.756  1.00  0.00    -0.353 OA
HETATM   19  C10 UNL     1      22.987   6.024  50.914  1.00  0.00     0.210 C 
ENDBRANCH   3  18
BRANCH   5  20
HETATM   20  O3  UNL     1      19.924   1.757  52.048  1.00  0.00    -0.353 OA
HETATM   21  C13 UNL     1      19.504   0.355  51.961  1.00  0.00     0.210 C 
ENDBRANCH   5  20
BRANCH   4  22
HETATM   22  O2  UNL     1      20.205   3.827  51.562  1.00  0.00    -0.235 OA
HETATM   23 CL1  UNL     1      20.210   3.828  49.784  1.00  0.00     0.068 Cl
ENDBRANCH   4  22
TORSDOF 5
ENDMDL
MODEL 8
REMARK VINA RESULT:      -6.7      1.699      3.160
REMARK  5 active torsions:
REMARK  status: ('A' for Active; 'I' for Inactive)
REMARK    1  A    between atoms: C6_6  and  N1_7 
REMARK    2  A    between atoms: N1_7  and  C7_8 
REMARK    3  A    between atoms: C9_10  and  O1_11 
REMARK    4  A    between atoms: C11_13  and  O2_14 
REMARK    5  A    between atoms: C12_16  and  O3_17 
ROOT
HETATM    1  C7  UNL     1      23.591   2.202  51.692  1.00  0.00     0.038 A 
HETATM    2  C8  UNL     1      24.793   1.756  52.370  1.00  0.00     0.069 A 
HETATM    3  C9  UNL     1      24.258   0.529  52.909  1.00  0.00     0.108 A 
HETATM    4  C11 UNL     1      23.058   0.035  52.783  1.00  0.00     0.158 A 
HETATM    5  C12 UNL     1      22.134   0.615  52.104  1.00  0.00     0.108 A 
HETATM    6  C14 UNL     1      22.348   1.869  51.425  1.00  0.00     0.069 A 
ENDROOT
BRANCH   1   7
HETATM    7  N1  UNL     1      23.715   3.412  50.957  1.00  0.00    -0.344 N 
HETATM    8  H7  UNL     1      22.722   3.637  50.558  1.00  0.00     0.167 HD
BRANCH   7   9
HETATM    9  C6  UNL     1      24.753   4.361  50.641  1.00  0.00     0.108 C 
HETATM   10  C5  UNL     1      26.053   4.125  49.949  1.00  0.00     0.112 C 
HETATM   11  C4  UNL     1      26.513   5.372  49.343  1.00  0.00     0.066 A 
HETATM   12  C3  UNL     1      27.641   4.737  48.577  1.00  0.00     0.009 A 
HETATM   13  N3  UNL     1      25.964   6.735  49.629  1.00  0.00    -0.271 NA
HETATM   14  C2  UNL     1      27.556   6.004  48.452  1.00  0.00     0.049 A 
HETATM   15  C15 UNL     1      24.967   6.662  50.314  1.00  0.00     0.229 C 
HETATM   16  N2  UNL     1      24.129   5.578  50.895  1.00  0.00    -0.229 NA
HETATM   17  C1  UNL     1      27.644   7.144  48.236  1.00  0.00     0.008 C 
ENDBRANCH   7   9
ENDBRANCH   1   7
BRANCH   3  18
HETATM   18  O1  UNL     1      24.680  -0.606  53.750  1.00  0.00    -0.353 OA
HETATM   19  C10 UNL     1      25.684  -0.426  54.781  1.00  0.00     0.210 C 
ENDBRANCH   3  18
BRANCH   5  20
HETATM   20  O3  UNL     1      20.943  -0.081  52.145  1.00  0.00    -0.353 OA
HETATM   21  C13 UNL     1      19.654   0.593  51.966  1.00  0.00     0.210 C 
ENDBRANCH   5  20
BRANCH   4  22
HETATM   22  O2  UNL     1      22.396  -1.137  53.318  1.00  0.00    -0.235 OA
HETATM   23 CL1  UNL     1      21.842  -0.828  54.978  1.00  0.00     0.068 Cl
ENDBRANCH   4  22
TORSDOF 5
ENDMDL
MODEL 9
REMARK VINA RESULT:      -6.7      4.029      6.125
REMARK  5 active torsions:
REMARK  status: ('A' for Active; 'I' for Inactive)
REMARK    1  A    between atoms: C6_6  and  N1_7 
REMARK    2  A    between atoms: N1_7  and  C7_8 
REMARK    3  A    between atoms: C9_10  and  O1_11 
REMARK    4  A    between atoms: C11_13  and  O2_14 
REMARK    5  A    between atoms: C12_16  and  O3_17 
ROOT
HETATM    1  C7  UNL     1      23.291   1.297  52.687  1.00  0.00     0.038 A 
HETATM    2  C8  UNL     1      22.047   0.703  53.138  1.00  0.00     0.069 A 
HETATM    3  C9  UNL     1      21.192   1.272  52.125  1.00  0.00     0.108 A 
HETATM    4  C11 UNL     1      21.507   2.063  51.138  1.00  0.00     0.158 A 
HETATM    5  C12 UNL     1      22.711   2.458  50.920  1.00  0.00     0.108 A 
HETATM    6  C14 UNL     1      23.817   2.060  51.755  1.00  0.00     0.069 A 
ENDROOT
BRANCH   1   7
HETATM    7  N1  UNL     1      24.449   0.928  53.424  1.00  0.00    -0.344 N 
HETATM    8  H7  UNL     1      24.210   1.086  54.479  1.00  0.00     0.167 HD
BRANCH   7   9
HETATM    9  C6  UNL     1      25.767   0.414  53.145  1.00  0.00     0.108 C 
HETATM   10  C5  UNL     1      27.088   1.076  53.351  1.00  0.00     0.112 C 
HETATM   11  C4  UNL     1      28.125   0.056  53.485  1.00  0.00     0.066 A 
HETATM   12  C3  UNL     1      29.203   1.020  53.900  1.00  0.00     0.009 A 
HETATM   13  N3  UNL     1      27.970  -1.395  53.150  1.00  0.00    -0.271 NA
HETATM   14  C2  UNL     1      29.583  -0.194  53.791  1.00  0.00     0.049 A 
HETATM   15  C15 UNL     1      26.813  -1.658  52.904  1.00  0.00     0.229 C 
HETATM   16  N2  UNL     1      25.515  -0.930  52.896  1.00  0.00    -0.229 NA
HETATM   17  C1  UNL     1      30.108  -1.231  53.728  1.00  0.00     0.008 C 
ENDBRANCH   7   9
ENDBRANCH   1   7
BRANCH   3  18
HETATM   18  O1  UNL     1      19.771   1.288  51.735  1.00  0.00    -0.353 OA
HETATM   19  C10 UNL     1      18.988   0.067  51.752  1.00  0.00     0.210 C 
ENDBRANCH   3  18
BRANCH   5  20
HETATM   20  O3  UNL     1      22.790   3.314  49.840  1.00  0.00    -0.353 OA
HETATM   21  C13 UNL     1      24.081   3.746  49.297  1.00  0.00     0.210 C 
ENDBRANCH   5  20
BRANCH   4  22
HETATM   22  O2  UNL     1      20.742   2.736  50.109  1.00  0.00    -0.235 OA
HETATM   23 CL1  UNL     1      20.557   1.681  48.691  1.00  0.00     0.068 Cl
ENDBRANCH   4  22
TORSDOF 5
ENDMDL
