MODEL 1
REMARK VINA RESULT:      -9.0      0.000      0.000
REMARK  4 active torsions:
REMARK  status: ('A' for Active; 'I' for Inactive)
REMARK    1  A    between atoms: C5_5  and  C6_6 
REMARK    2  A    between atoms: N2_8  and  C7_9 
REMARK    3  A    between atoms: C8_11  and  O1_12 
REMARK    4  A    between atoms: C10_15  and  C11_16 
ROOT
HETATM    1  C6  UNL     1      23.776   0.272  53.574  1.00  0.00     0.064 C 
HETATM    2  N1  UNL     1      24.810  -0.437  53.257  1.00  0.00    -0.174 NA
HETATM    3  N2  UNL     1      25.956   0.361  53.215  1.00  0.00    -0.236 N 
HETATM    4  C10 UNL     1      25.548   1.735  53.139  1.00  0.00     0.151 C 
HETATM    5  C17 UNL     1      24.192   1.691  53.762  1.00  0.00     0.094 C 
ENDROOT
BRANCH   3   6
HETATM    6  C7  UNL     1      27.248  -0.316  53.274  1.00  0.00     0.192 A 
HETATM    7  N3  UNL     1      27.464  -1.432  53.179  1.00  0.00    -0.198 NA
HETATM    8  C8  UNL     1      28.608  -2.096  53.219  1.00  0.00     0.171 A 
HETATM    9  C9  UNL     1      29.686  -1.286  53.406  1.00  0.00     0.111 A 
HETATM   10  S1  UNL     1      28.983   0.403  53.513  1.00  0.00    -0.058 SA
BRANCH   8  11
HETATM   11  O1  UNL     1      28.615  -3.507  53.070  1.00  0.00    -0.344 OA
HETATM   12  H6  UNL     1      29.034  -3.963  52.276  1.00  0.00     0.219 HD
ENDBRANCH   8  11
ENDBRANCH   3   6
BRANCH   4  13
HETATM   13  C11 UNL     1      25.563   2.311  51.791  1.00  0.00    -0.033 A 
HETATM   14  C12 UNL     1      24.345   2.667  51.198  1.00  0.00     0.009 A 
HETATM   15  C13 UNL     1      24.189   3.224  49.928  1.00  0.00     0.001 A 
HETATM   16  C14 UNL     1      25.309   3.449  49.190  1.00  0.00     0.000 A 
HETATM   17  C15 UNL     1      26.546   3.106  49.752  1.00  0.00     0.001 A 
HETATM   18  C16 UNL     1      26.657   2.558  51.003  1.00  0.00     0.009 A 
ENDBRANCH   4  13
BRANCH   1  19
HETATM   19  C5  UNL     1      22.437  -0.325  53.692  1.00  0.00    -0.028 A 
HETATM   20  C4  UNL     1      22.148  -1.351  54.457  1.00  0.00     0.010 A 
HETATM   21  C3  UNL     1      20.702  -1.606  54.260  1.00  0.00     0.003 A 
HETATM   22  C2  UNL     1      20.139  -0.774  53.417  1.00  0.00    -0.080 A 
HETATM   23  C1  UNL     1      18.724  -0.715  52.966  1.00  0.00     0.043 C 
HETATM   24  C18 UNL     1      21.209   0.141  52.987  1.00  0.00     0.074 A 
ENDBRANCH   1  19
TORSDOF 4
ENDMDL
MODEL 2
REMARK VINA RESULT:      -8.6      3.938      6.294
REMARK  4 active torsions:
REMARK  status: ('A' for Active; 'I' for Inactive)
REMARK    1  A    between atoms: C5_5  and  C6_6 
REMARK    2  A    between atoms: N2_8  and  C7_9 
REMARK    3  A    between atoms: C8_11  and  O1_12 
REMARK    4  A    between atoms: C10_15  and  C11_16 
ROOT
HETATM    1  C6  UNL     1      26.234   1.711  51.749  1.00  0.00     0.064 C 
HETATM    2  N1  UNL     1      26.714   2.382  50.753  1.00  0.00    -0.174 NA
HETATM    3  N2  UNL     1      25.866   3.442  50.424  1.00  0.00    -0.236 N 
HETATM    4  C10 UNL     1      24.582   3.195  51.015  1.00  0.00     0.151 C 
HETATM    5  C17 UNL     1      24.936   2.312  52.166  1.00  0.00     0.094 C 
ENDROOT
BRANCH   3   6
HETATM    6  C7  UNL     1      26.424   4.523  49.617  1.00  0.00     0.192 A 
HETATM    7  N3  UNL     1      27.463   4.590  49.150  1.00  0.00    -0.198 NA
HETATM    8  C8  UNL     1      28.017   5.537  48.410  1.00  0.00     0.171 A 
HETATM    9  C9  UNL     1      27.185   6.590  48.185  1.00  0.00     0.111 A 
HETATM   10  S1  UNL     1      25.636   6.152  49.061  1.00  0.00    -0.058 SA
BRANCH   8  11
HETATM   11  O1  UNL     1      29.347   5.382  47.939  1.00  0.00    -0.344 OA
HETATM   12  H6  UNL     1      29.948   4.639  48.257  1.00  0.00     0.219 HD
ENDBRANCH   8  11
ENDBRANCH   3   6
BRANCH   4  13
HETATM   13  C11 UNL     1      23.584   2.616  50.110  1.00  0.00    -0.033 A 
HETATM   14  C12 UNL     1      22.704   1.648  50.608  1.00  0.00     0.009 A 
HETATM   15  C13 UNL     1      21.703   1.004  49.879  1.00  0.00     0.001 A 
HETATM   16  C14 UNL     1      21.556   1.338  48.569  1.00  0.00     0.000 A 
HETATM   17  C15 UNL     1      22.418   2.305  48.036  1.00  0.00     0.001 A 
HETATM   18  C16 UNL     1      23.391   2.913  48.785  1.00  0.00     0.009 A 
ENDBRANCH   4  13
BRANCH   1  19
HETATM   19  C5  UNL     1      26.934   0.541  52.302  1.00  0.00    -0.028 A 
HETATM   20  C4  UNL     1      26.428  -0.669  52.352  1.00  0.00     0.010 A 
HETATM   21  C3  UNL     1      27.469  -1.514  52.982  1.00  0.00     0.003 A 
HETATM   22  C2  UNL     1      28.555  -0.851  53.298  1.00  0.00    -0.080 A 
HETATM   23  C1  UNL     1      29.799  -1.348  53.941  1.00  0.00     0.043 C 
HETATM   24  C18 UNL     1      28.312   0.536  52.870  1.00  0.00     0.074 A 
ENDBRANCH   1  19
TORSDOF 4
ENDMDL
MODEL 3
REMARK VINA RESULT:      -8.6      2.548      6.413
REMARK  4 active torsions:
REMARK  status: ('A' for Active; 'I' for Inactive)
REMARK    1  A    between atoms: C5_5  and  C6_6 
REMARK    2  A    between atoms: N2_8  and  C7_9 
REMARK    3  A    between atoms: C8_11  and  O1_12 
REMARK    4  A    between atoms: C10_15  and  C11_16 
ROOT
HETATM    1  C6  UNL     1      25.597   2.528  51.787  1.00  0.00     0.064 C 
HETATM    2  N1  UNL     1      24.588   1.720  51.754  1.00  0.00    -0.174 NA
HETATM    3  N2  UNL     1      24.538   0.953  52.921  1.00  0.00    -0.236 N 
HETATM    4  C10 UNL     1      25.819   1.024  53.564  1.00  0.00     0.151 C 
HETATM    5  C17 UNL     1      26.347   2.326  53.059  1.00  0.00     0.094 C 
ENDROOT
BRANCH   3   6
HETATM    6  C7  UNL     1      23.274   0.294  53.238  1.00  0.00     0.192 A 
HETATM    7  N3  UNL     1      23.090  -0.566  53.964  1.00  0.00    -0.198 NA
HETATM    8  C8  UNL     1      21.973  -1.194  54.291  1.00  0.00     0.171 A 
HETATM    9  C9  UNL     1      20.881  -0.711  53.639  1.00  0.00     0.111 A 
HETATM   10  S1  UNL     1      21.532   0.635  52.579  1.00  0.00    -0.058 SA
BRANCH   8  11
HETATM   11  O1  UNL     1      22.004  -2.250  55.239  1.00  0.00    -0.344 OA
HETATM   12  H6  UNL     1      22.315  -2.113  56.188  1.00  0.00     0.219 HD
ENDBRANCH   8  11
ENDBRANCH   3   6
BRANCH   4  13
HETATM   13  C11 UNL     1      26.705  -0.115  53.308  1.00  0.00    -0.033 A 
HETATM   14  C12 UNL     1      28.047  -0.026  53.699  1.00  0.00     0.009 A 
HETATM   15  C13 UNL     1      29.013  -1.018  53.527  1.00  0.00     0.001 A 
HETATM   16  C14 UNL     1      28.633  -2.180  52.931  1.00  0.00     0.000 A 
HETATM   17  C15 UNL     1      27.298  -2.306  52.528  1.00  0.00     0.001 A 
HETATM   18  C16 UNL     1      26.378  -1.306  52.713  1.00  0.00     0.009 A 
ENDBRANCH   4  13
BRANCH   1  19
HETATM   19  C5  UNL     1      25.880   3.456  50.681  1.00  0.00    -0.028 A 
HETATM   20  C4  UNL     1      26.864   3.308  49.824  1.00  0.00     0.010 A 
HETATM   21  C3  UNL     1      26.770   4.463  48.901  1.00  0.00     0.003 A 
HETATM   22  C2  UNL     1      25.778   5.273  49.183  1.00  0.00    -0.080 A 
HETATM   23  C1  UNL     1      25.370   6.525  48.495  1.00  0.00     0.043 C 
HETATM   24  C18 UNL     1      25.103   4.684  50.351  1.00  0.00     0.074 A 
ENDBRANCH   1  19
TORSDOF 4
ENDMDL
MODEL 4
REMARK VINA RESULT:      -8.3      2.552      5.497
REMARK  4 active torsions:
REMARK  status: ('A' for Active; 'I' for Inactive)
REMARK    1  A    between atoms: C5_5  and  C6_6 
REMARK    2  A    between atoms: N2_8  and  C7_9 
REMARK    3  A    between atoms: C8_11  and  O1_12 
REMARK    4  A    between atoms: C10_15  and  C11_16 
ROOT
HETATM    1  C6  UNL     1      24.053   3.090  51.649  1.00  0.00     0.064 C 
HETATM    2  N1  UNL     1      25.064   2.877  52.426  1.00  0.00    -0.174 NA
HETATM    3  N2  UNL     1      25.359   1.513  52.481  1.00  0.00    -0.236 N 
HETATM    4  C10 UNL     1      24.222   0.784  51.998  1.00  0.00     0.151 C 
HETATM    5  C17 UNL     1      23.564   1.789  51.112  1.00  0.00     0.094 C 
ENDROOT
BRANCH   3   6
HETATM    6  C7  UNL     1      26.682   1.131  52.968  1.00  0.00     0.192 A 
HETATM    7  N3  UNL     1      27.481   1.798  53.435  1.00  0.00    -0.198 NA
HETATM    8  C8  UNL     1      28.687   1.507  53.895  1.00  0.00     0.171 A 
HETATM    9  C9  UNL     1      28.996   0.187  53.778  1.00  0.00     0.111 A 
HETATM   10  S1  UNL     1      27.516  -0.569  53.005  1.00  0.00    -0.058 SA
BRANCH   8  11
HETATM   11  O1  UNL     1      29.504   2.531  54.440  1.00  0.00    -0.344 OA
HETATM   12  H6  UNL     1      30.040   3.159  53.862  1.00  0.00     0.219 HD
ENDBRANCH   8  11
ENDBRANCH   3   6
BRANCH   4  13
HETATM   13  C11 UNL     1      23.342   0.246  53.040  1.00  0.00    -0.033 A 
HETATM   14  C12 UNL     1      22.020   0.702  53.106  1.00  0.00     0.009 A 
HETATM   15  C13 UNL     1      21.062   0.292  54.034  1.00  0.00     0.001 A 
HETATM   16  C14 UNL     1      21.429  -0.635  54.960  1.00  0.00     0.000 A 
HETATM   17  C15 UNL     1      22.744  -1.115  54.923  1.00  0.00     0.001 A 
HETATM   18  C16 UNL     1      23.657  -0.684  53.996  1.00  0.00     0.009 A 
ENDBRANCH   4  13
BRANCH   1  19
HETATM   19  C5  UNL     1      23.534   4.446  51.410  1.00  0.00    -0.028 A 
HETATM   20  C4  UNL     1      22.287   4.806  51.605  1.00  0.00     0.010 A 
HETATM   21  C3  UNL     1      22.221   6.240  51.236  1.00  0.00     0.003 A 
HETATM   22  C2  UNL     1      23.371   6.727  50.837  1.00  0.00    -0.080 A 
HETATM   23  C1  UNL     1      23.697   8.105  50.388  1.00  0.00     0.043 C 
HETATM   24  C18 UNL     1      24.329   5.612  50.931  1.00  0.00     0.074 A 
ENDBRANCH   1  19
TORSDOF 4
ENDMDL
MODEL 5
REMARK VINA RESULT:      -8.2      3.944      6.533
REMARK  4 active torsions:
REMARK  status: ('A' for Active; 'I' for Inactive)
REMARK    1  A    between atoms: C5_5  and  C6_6 
REMARK    2  A    between atoms: N2_8  and  C7_9 
REMARK    3  A    between atoms: C8_11  and  O1_12 
REMARK    4  A    between atoms: C10_15  and  C11_16 
ROOT
HETATM    1  C6  UNL     1      25.766   1.587  52.163  1.00  0.00     0.064 C 
HETATM    2  N1  UNL     1      26.083   2.499  51.303  1.00  0.00    -0.174 NA
HETATM    3  N2  UNL     1      25.031   3.403  51.140  1.00  0.00    -0.236 N 
HETATM    4  C10 UNL     1      23.834   2.805  51.659  1.00  0.00     0.151 C 
HETATM    5  C17 UNL     1      24.380   1.833  52.652  1.00  0.00     0.094 C 
ENDROOT
BRANCH   3   6
HETATM    6  C7  UNL     1      25.344   4.695  50.535  1.00  0.00     0.192 A 
HETATM    7  N3  UNL     1      24.958   5.726  50.835  1.00  0.00    -0.198 NA
HETATM    8  C8  UNL     1      25.211   6.922  50.329  1.00  0.00     0.171 A 
HETATM    9  C9  UNL     1      26.076   6.883  49.280  1.00  0.00     0.111 A 
HETATM   10  S1  UNL     1      26.483   5.107  49.080  1.00  0.00    -0.058 SA
BRANCH   8  11
HETATM   11  O1  UNL     1      24.599   8.073  50.890  1.00  0.00    -0.344 OA
HETATM   12  H6  UNL     1      24.467   8.184  51.883  1.00  0.00     0.219 HD
ENDBRANCH   8  11
ENDBRANCH   3   6
BRANCH   4  13
HETATM   13  C11 UNL     1      22.960   2.196  50.651  1.00  0.00    -0.033 A 
HETATM   14  C12 UNL     1      23.054   2.635  49.325  1.00  0.00     0.009 A 
HETATM   15  C13 UNL     1      22.297   2.159  48.254  1.00  0.00     0.001 A 
HETATM   16  C14 UNL     1      21.386   1.180  48.504  1.00  0.00     0.000 A 
HETATM   17  C15 UNL     1      21.266   0.715  49.819  1.00  0.00     0.001 A 
HETATM   18  C16 UNL     1      22.027   1.210  50.845  1.00  0.00     0.009 A 
ENDBRANCH   4  13
BRANCH   1  19
HETATM   19  C5  UNL     1      26.699   0.508  52.524  1.00  0.00    -0.028 A 
HETATM   20  C4  UNL     1      26.433  -0.771  52.403  1.00  0.00     0.010 A 
HETATM   21  C3  UNL     1      27.643  -1.480  52.884  1.00  0.00     0.003 A 
HETATM   22  C2  UNL     1      28.597  -0.671  53.276  1.00  0.00    -0.080 A 
HETATM   23  C1  UNL     1      29.940  -1.003  53.817  1.00  0.00     0.043 C 
HETATM   24  C18 UNL     1      28.077   0.690  53.062  1.00  0.00     0.074 A 
ENDBRANCH   1  19
TORSDOF 4
ENDMDL
MODEL 6
REMARK VINA RESULT:      -7.7      4.207      5.828
REMARK  4 active torsions:
REMARK  status: ('A' for Active; 'I' for Inactive)
REMARK    1  A    between atoms: C5_5  and  C6_6 
REMARK    2  A    between atoms: N2_8  and  C7_9 
REMARK    3  A    between atoms: C8_11  and  O1_12 
REMARK    4  A    between atoms: C10_15  and  C11_16 
ROOT
HETATM    1  C6  UNL     1      20.900   0.875  51.871  1.00  0.00     0.064 C 
HETATM    2  N1  UNL     1      20.993   2.142  52.109  1.00  0.00    -0.174 NA
HETATM    3  N2  UNL     1      22.177   2.654  51.575  1.00  0.00    -0.236 N 
HETATM    4  C10 UNL     1      23.064   1.559  51.306  1.00  0.00     0.151 C 
HETATM    5  C17 UNL     1      22.109   0.425  51.124  1.00  0.00     0.094 C 
ENDROOT
BRANCH   3   6
HETATM    6  C7  UNL     1      22.261   4.101  51.392  1.00  0.00     0.192 A 
HETATM    7  N3  UNL     1      23.099   4.805  51.714  1.00  0.00    -0.198 NA
HETATM    8  C8  UNL     1      23.228   6.114  51.570  1.00  0.00     0.171 A 
HETATM    9  C9  UNL     1      22.172   6.685  50.931  1.00  0.00     0.111 A 
HETATM   10  S1  UNL     1      21.040   5.290  50.567  1.00  0.00    -0.058 SA
BRANCH   8  11
HETATM   11  O1  UNL     1      24.387   6.769  52.062  1.00  0.00    -0.344 OA
HETATM   12  H6  UNL     1      24.408   7.759  52.249  1.00  0.00     0.219 HD
ENDBRANCH   8  11
ENDBRANCH   3   6
BRANCH   4  13
HETATM   13  C11 UNL     1      24.081   1.318  52.334  1.00  0.00    -0.033 A 
HETATM   14  C12 UNL     1      24.110   0.072  52.973  1.00  0.00     0.009 A 
HETATM   15  C13 UNL     1      25.010  -0.313  53.968  1.00  0.00     0.001 A 
HETATM   16  C14 UNL     1      25.949   0.590  54.360  1.00  0.00     0.000 A 
HETATM   17  C15 UNL     1      25.951   1.847  53.741  1.00  0.00     0.001 A 
HETATM   18  C16 UNL     1      25.047   2.187  52.768  1.00  0.00     0.009 A 
ENDBRANCH   4  13
BRANCH   1  19
HETATM   19  C5  UNL     1      19.743   0.086  52.322  1.00  0.00    -0.028 A 
HETATM   20  C4  UNL     1      19.722  -0.637  53.417  1.00  0.00     0.010 A 
HETATM   21  C3  UNL     1      18.374  -1.251  53.467  1.00  0.00     0.003 A 
HETATM   22  C2  UNL     1      17.614  -0.917  52.454  1.00  0.00    -0.080 A 
HETATM   23  C1  UNL     1      16.217  -1.329  52.157  1.00  0.00     0.043 C 
HETATM   24  C18 UNL     1      18.426  -0.007  51.629  1.00  0.00     0.074 A 
ENDBRANCH   1  19
TORSDOF 4
ENDMDL
MODEL 7
REMARK VINA RESULT:      -7.7      3.035      5.880
REMARK  4 active torsions:
REMARK  status: ('A' for Active; 'I' for Inactive)
REMARK    1  A    between atoms: C5_5  and  C6_6 
REMARK    2  A    between atoms: N2_8  and  C7_9 
REMARK    3  A    between atoms: C8_11  and  O1_12 
REMARK    4  A    between atoms: C10_15  and  C11_16 
ROOT
HETATM    1  C6  UNL     1      23.232   2.909  51.076  1.00  0.00     0.064 C 
HETATM    2  N1  UNL     1      22.775   1.742  51.393  1.00  0.00    -0.174 NA
HETATM    3  N2  UNL     1      23.126   1.420  52.706  1.00  0.00    -0.236 N 
HETATM    4  C10 UNL     1      24.194   2.288  53.115  1.00  0.00     0.151 C 
HETATM    5  C17 UNL     1      23.984   3.474  52.232  1.00  0.00     0.094 C 
ENDROOT
BRANCH   3   6
HETATM    6  C7  UNL     1      22.375   0.353  53.360  1.00  0.00     0.192 A 
HETATM    7  N3  UNL     1      22.730  -0.364  54.173  1.00  0.00    -0.198 NA
HETATM    8  C8  UNL     1      22.094  -1.340  54.800  1.00  0.00     0.171 A 
HETATM    9  C9  UNL     1      20.807  -1.489  54.385  1.00  0.00     0.111 A 
HETATM   10  S1  UNL     1      20.582  -0.201  53.101  1.00  0.00    -0.058 SA
BRANCH   8  11
HETATM   11  O1  UNL     1      22.765  -2.100  55.794  1.00  0.00    -0.344 OA
HETATM   12  H6  UNL     1      23.087  -3.039  55.628  1.00  0.00     0.219 HD
ENDBRANCH   8  11
ENDBRANCH   3   6
BRANCH   4  13
HETATM   13  C11 UNL     1      25.536   1.706  53.018  1.00  0.00    -0.033 A 
HETATM   14  C12 UNL     1      26.612   2.397  53.590  1.00  0.00     0.009 A 
HETATM   15  C13 UNL     1      27.943   1.980  53.583  1.00  0.00     0.001 A 
HETATM   16  C14 UNL     1      28.237   0.799  52.974  1.00  0.00     0.000 A 
HETATM   17  C15 UNL     1      27.186   0.080  52.392  1.00  0.00     0.001 A 
HETATM   18  C16 UNL     1      25.890   0.526  52.418  1.00  0.00     0.009 A 
ENDBRANCH   4  13
BRANCH   1  19
HETATM   19  C5  UNL     1      23.000   3.495  49.746  1.00  0.00    -0.028 A 
HETATM   20  C4  UNL     1      22.584   2.818  48.702  1.00  0.00     0.010 A 
HETATM   21  C3  UNL     1      22.497   3.801  47.595  1.00  0.00     0.003 A 
HETATM   22  C2  UNL     1      22.842   5.014  47.951  1.00  0.00    -0.080 A 
HETATM   23  C1  UNL     1      22.887   6.251  47.129  1.00  0.00     0.043 C 
HETATM   24  C18 UNL     1      23.183   4.928  49.380  1.00  0.00     0.074 A 
ENDBRANCH   1  19
TORSDOF 4
ENDMDL
MODEL 8
REMARK VINA RESULT:      -7.6      4.641      8.126
REMARK  4 active torsions:
REMARK  status: ('A' for Active; 'I' for Inactive)
REMARK    1  A    between atoms: C5_5  and  C6_6 
REMARK    2  A    between atoms: N2_8  and  C7_9 
REMARK    3  A    between atoms: C8_11  and  O1_12 
REMARK    4  A    between atoms: C10_15  and  C11_16 
ROOT
HETATM    1  C6  UNL     1      24.180   4.092  50.530  1.00  0.00     0.064 C 
HETATM    2  N1  UNL     1      23.141   3.644  49.905  1.00  0.00    -0.174 NA
HETATM    3  N2  UNL     1      22.116   3.353  50.807  1.00  0.00    -0.236 N 
HETATM    4  C10 UNL     1      22.681   3.262  52.122  1.00  0.00     0.151 C 
HETATM    5  C17 UNL     1      23.900   4.114  51.994  1.00  0.00     0.094 C 
ENDROOT
BRANCH   3   6
HETATM    6  C7  UNL     1      20.764   3.227  50.269  1.00  0.00     0.192 A 
HETATM    7  N3  UNL     1      20.450   3.014  49.193  1.00  0.00    -0.198 NA
HETATM    8  C8  UNL     1      19.248   2.886  48.654  1.00  0.00     0.171 A 
HETATM    9  C9  UNL     1      18.242   3.038  49.557  1.00  0.00     0.111 A 
HETATM   10  S1  UNL     1      19.092   3.360  51.149  1.00  0.00    -0.058 SA
BRANCH   8  11
HETATM   11  O1  UNL     1      19.119   2.613  47.267  1.00  0.00    -0.344 OA
HETATM   12  H6  UNL     1      18.226   2.602  46.802  1.00  0.00     0.219 HD
ENDBRANCH   8  11
ENDBRANCH   3   6
BRANCH   4  13
HETATM   13  C11 UNL     1      22.958   1.899  52.585  1.00  0.00    -0.033 A 
HETATM   14  C12 UNL     1      21.881   1.083  52.958  1.00  0.00     0.009 A 
HETATM   15  C13 UNL     1      21.976  -0.231  53.417  1.00  0.00     0.001 A 
HETATM   16  C14 UNL     1      23.215  -0.784  53.514  1.00  0.00     0.000 A 
HETATM   17  C15 UNL     1      24.315   0.002  53.148  1.00  0.00     0.001 A 
HETATM   18  C16 UNL     1      24.181   1.291  52.703  1.00  0.00     0.009 A 
ENDBRANCH   4  13
BRANCH   1  19
HETATM   19  C5  UNL     1      25.406   4.480  49.815  1.00  0.00    -0.028 A 
HETATM   20  C4  UNL     1      26.407   3.669  49.568  1.00  0.00     0.010 A 
HETATM   21  C3  UNL     1      27.411   4.479  48.839  1.00  0.00     0.003 A 
HETATM   22  C2  UNL     1      27.037   5.721  48.650  1.00  0.00    -0.080 A 
HETATM   23  C1  UNL     1      27.765   6.824  47.971  1.00  0.00     0.043 C 
HETATM   24  C18 UNL     1      25.697   5.829  49.251  1.00  0.00     0.074 A 
ENDBRANCH   1  19
TORSDOF 4
ENDMDL
MODEL 9
REMARK VINA RESULT:      -7.4      2.663      5.642
REMARK  4 active torsions:
REMARK  status: ('A' for Active; 'I' for Inactive)
REMARK    1  A    between atoms: C5_5  and  C6_6 
REMARK    2  A    between atoms: N2_8  and  C7_9 
REMARK    3  A    between atoms: C8_11  and  O1_12 
REMARK    4  A    between atoms: C10_15  and  C11_16 
ROOT
HETATM    1  C6  UNL     1      23.593   3.747  51.341  1.00  0.00     0.064 C 
HETATM    2  N1  UNL     1      24.427   3.454  52.285  1.00  0.00    -0.174 NA
HETATM    3  N2  UNL     1      24.651   2.076  52.329  1.00  0.00    -0.236 N 
HETATM    4  C10 UNL     1      23.600   1.423  51.603  1.00  0.00     0.151 C 
HETATM    5  C17 UNL     1      23.165   2.493  50.657  1.00  0.00     0.094 C 
ENDROOT
BRANCH   3   6
HETATM    6  C7  UNL     1      25.839   1.612  53.039  1.00  0.00     0.192 A 
HETATM    7  N3  UNL     1      25.897   0.882  53.914  1.00  0.00    -0.198 NA
HETATM    8  C8  UNL     1      26.940   0.425  54.588  1.00  0.00     0.171 A 
HETATM    9  C9  UNL     1      28.123   0.926  54.141  1.00  0.00     0.111 A 
HETATM   10  S1  UNL     1      27.663   2.039  52.760  1.00  0.00    -0.058 SA
BRANCH   8  11
HETATM   11  O1  UNL     1      26.749  -0.495  55.652  1.00  0.00    -0.344 OA
HETATM   12  H6  UNL     1      26.489  -0.201  56.579  1.00  0.00     0.219 HD
ENDBRANCH   8  11
ENDBRANCH   3   6
BRANCH   4  13
HETATM   13  C11 UNL     1      22.515   0.887  52.431  1.00  0.00    -0.033 A 
HETATM   14  C12 UNL     1      22.682  -0.368  53.029  1.00  0.00     0.009 A 
HETATM   15  C13 UNL     1      21.750  -1.014  53.842  1.00  0.00     0.001 A 
HETATM   16  C14 UNL     1      20.571  -0.379  54.087  1.00  0.00     0.000 A 
HETATM   17  C15 UNL     1      20.370   0.880  53.507  1.00  0.00     0.001 A 
HETATM   18  C16 UNL     1      21.311   1.480  52.711  1.00  0.00     0.009 A 
ENDBRANCH   4  13
BRANCH   1  19
HETATM   19  C5  UNL     1      23.185   5.134  51.073  1.00  0.00    -0.028 A 
HETATM   20  C4  UNL     1      23.987   6.170  51.149  1.00  0.00     0.010 A 
HETATM   21  C3  UNL     1      23.156   7.348  50.804  1.00  0.00     0.003 A 
HETATM   22  C2  UNL     1      21.911   7.043  50.531  1.00  0.00    -0.080 A 
HETATM   23  C1  UNL     1      20.791   7.941  50.151  1.00  0.00     0.043 C 
HETATM   24  C18 UNL     1      21.822   5.579  50.664  1.00  0.00     0.074 A 
ENDBRANCH   1  19
TORSDOF 4
ENDMDL
