MODEL 1
REMARK VINA RESULT:      -9.7      0.000      0.000
REMARK  6 active torsions:
REMARK  status: ('A' for Active; 'I' for Inactive)
REMARK    1  A    between atoms: C2_2  and  C3_3 
REMARK    2  A    between atoms: C3_3  and  C4_4 
REMARK    3  A    between atoms: C4_4  and  N1_5 
REMARK    4  A    between atoms: C13_19  and  N6_20 
REMARK    5  A    between atoms: N6_20  and  C14_21 
REMARK    6  A    between atoms: C21_30  and  C22_31 
ROOT
HETATM    1  N1  UNL     1      26.366   0.363  53.232  1.00  0.00    -0.402 N 
HETATM    2  C5  UNL     1      25.816  -0.138  54.482  1.00  0.00     0.212 C 
HETATM    3  C6  UNL     1      24.504  -0.580  54.481  1.00  0.00    -0.077 C 
HETATM    4  C7  UNL     1      23.431  -0.920  54.480  1.00  0.00    -0.004 C 
HETATM    5  C8  UNL     1      22.095  -1.316  54.478  1.00  0.00     0.297 C 
HETATM    6  O1  UNL     1      21.382  -2.173  54.945  1.00  0.00    -0.258 OA
HETATM    7  N2  UNL     1      21.007  -0.654  53.761  1.00  0.00    -0.332 N 
HETATM    8  C9  UNL     1      19.894   0.001  53.044  1.00  0.00     0.273 C 
HETATM    9  N3  UNL     1      20.425   1.117  52.205  1.00  0.00    -0.280 NA
HETATM   10  C10 UNL     1      21.610   0.863  51.655  1.00  0.00     0.144 C 
HETATM   11  C11 UNL     1      22.492   1.638  50.784  1.00  0.00     0.085 A 
HETATM   12  N4  UNL     1      21.739   1.833  49.695  1.00  0.00    -0.240 NA
HETATM   13  C12 UNL     1      22.225   2.505  48.637  1.00  0.00     0.236 A 
HETATM   14  N5  UNL     1      23.464   2.941  48.754  1.00  0.00    -0.224 NA
HETATM   15  C13 UNL     1      24.218   2.746  49.845  1.00  0.00     0.138 A 
HETATM   16  C20 UNL     1      23.815   2.078  50.973  1.00  0.00     0.024 A 
HETATM   17  C21 UNL     1      24.603   1.861  52.214  1.00  0.00     0.042 C 
HETATM   18  C24 UNL     1      25.513   0.701  52.213  1.00  0.00     0.127 C 
HETATM   19  H12 UNL     1      21.698   0.059  53.497  1.00  0.00     0.165 HD
ENDROOT
BRANCH  15  20
HETATM   20  N6  UNL     1      25.497   3.284  49.733  1.00  0.00    -0.340 N 
HETATM   21  H17 UNL     1      26.285   2.635  49.837  1.00  0.00     0.167 HD
BRANCH  20  22
HETATM   22  C14 UNL     1      25.988   4.580  49.459  1.00  0.00     0.035 A 
HETATM   23  C15 UNL     1      27.142   4.859  48.741  1.00  0.00     0.032 A 
HETATM   24  C16 UNL     1      27.549   6.157  48.537  1.00  0.00     0.046 A 
HETATM   25  C17 UNL     1      26.855   7.232  49.018  1.00  0.00     0.138 A 
HETATM   26  F1  UNL     1      27.312   8.469  48.776  1.00  0.00    -0.204 F 
HETATM   27  C18 UNL     1      25.712   6.959  49.729  1.00  0.00     0.074 A 
HETATM   28 CL1  UNL     1      24.866   8.403  50.320  1.00  0.00    -0.081 Cl
HETATM   29  C19 UNL     1      25.268   5.671  49.956  1.00  0.00     0.056 A 
ENDBRANCH  20  22
ENDBRANCH  15  20
BRANCH  17  30
HETATM   30  C22 UNL     1      25.031   3.119  52.872  1.00  0.00     0.007 C 
HETATM   31  C23 UNL     1      23.799   4.012  53.064  1.00  0.00     0.006 C 
ENDBRANCH  17  30
BRANCH   1  32
HETATM   32  C4  UNL     1      27.569   1.021  53.556  1.00  0.00     0.117 C 
BRANCH  32  33
HETATM   33  C3  UNL     1      28.488   0.333  54.519  1.00  0.00     0.019 C 
BRANCH  33  34
HETATM   34  C2  UNL     1      29.668  -0.212  53.727  1.00  0.00    -0.003 C 
HETATM   35  C1  UNL     1      29.412  -1.655  53.331  1.00  0.00     0.005 C 
ENDBRANCH  33  34
ENDBRANCH  32  33
ENDBRANCH   1  32
TORSDOF 6
ENDMDL
MODEL 2
REMARK VINA RESULT:      -9.3      3.561      6.597
REMARK  6 active torsions:
REMARK  status: ('A' for Active; 'I' for Inactive)
REMARK    1  A    between atoms: C2_2  and  C3_3 
REMARK    2  A    between atoms: C3_3  and  C4_4 
REMARK    3  A    between atoms: C4_4  and  N1_5 
REMARK    4  A    between atoms: C13_19  and  N6_20 
REMARK    5  A    between atoms: N6_20  and  C14_21 
REMARK    6  A    between atoms: C21_30  and  C22_31 
ROOT
HETATM    1  N1  UNL     1      22.048   4.486  51.678  1.00  0.00    -0.402 N 
HETATM    2  C5  UNL     1      20.936   4.859  50.817  1.00  0.00     0.212 C 
HETATM    3  C6  UNL     1      19.730   4.204  50.997  1.00  0.00    -0.077 C 
HETATM    4  C7  UNL     1      18.757   3.655  51.134  1.00  0.00    -0.004 C 
HETATM    5  C8  UNL     1      17.563   2.954  51.293  1.00  0.00     0.297 C 
HETATM    6  O1  UNL     1      16.369   3.143  51.284  1.00  0.00    -0.258 OA
HETATM    7  N2  UNL     1      17.439   1.522  51.564  1.00  0.00    -0.332 N 
HETATM    8  C9  UNL     1      17.294   0.079  51.837  1.00  0.00     0.273 C 
HETATM    9  N3  UNL     1      18.642  -0.533  52.038  1.00  0.00    -0.280 NA
HETATM   10  C10 UNL     1      19.504   0.257  52.675  1.00  0.00     0.144 C 
HETATM   11  C11 UNL     1      20.899   0.088  53.079  1.00  0.00     0.085 A 
HETATM   12  N4  UNL     1      20.843  -0.958  53.913  1.00  0.00    -0.240 NA
HETATM   13  C12 UNL     1      21.953  -1.410  54.520  1.00  0.00     0.236 A 
HETATM   14  N5  UNL     1      23.066  -0.760  54.239  1.00  0.00    -0.224 NA
HETATM   15  C13 UNL     1      23.121   0.288  53.405  1.00  0.00     0.138 A 
HETATM   16  C20 UNL     1      22.049   0.822  52.737  1.00  0.00     0.024 A 
HETATM   17  C21 UNL     1      22.067   1.961  51.783  1.00  0.00     0.042 C 
HETATM   18  C24 UNL     1      21.988   3.308  52.376  1.00  0.00     0.127 C 
HETATM   19  H12 UNL     1      18.461   1.479  51.465  1.00  0.00     0.165 HD
ENDROOT
BRANCH  15  20
HETATM   20  N6  UNL     1      24.401   0.821  53.275  1.00  0.00    -0.340 N 
HETATM   21  H17 UNL     1      24.475   1.841  53.200  1.00  0.00     0.167 HD
BRANCH  20  22
HETATM   22  C14 UNL     1      25.696   0.253  53.259  1.00  0.00     0.035 A 
HETATM   23  C15 UNL     1      26.012  -0.995  52.742  1.00  0.00     0.032 A 
HETATM   24  C16 UNL     1      27.302  -1.469  52.785  1.00  0.00     0.046 A 
HETATM   25  C17 UNL     1      28.333  -0.756  53.327  1.00  0.00     0.138 A 
HETATM   26  F1  UNL     1      29.566  -1.283  53.331  1.00  0.00    -0.204 F 
HETATM   27  C18 UNL     1      28.023   0.481  53.841  1.00  0.00     0.074 A 
HETATM   28 CL1  UNL     1      29.412   1.347  54.527  1.00  0.00    -0.081 Cl
HETATM   29  C19 UNL     1      26.742   0.995  53.818  1.00  0.00     0.056 A 
ENDBRANCH  20  22
ENDBRANCH  15  20
BRANCH  17  30
HETATM   30  C22 UNL     1      22.940   1.736  50.606  1.00  0.00     0.007 C 
HETATM   31  C23 UNL     1      22.055   1.593  49.362  1.00  0.00     0.006 C 
ENDBRANCH  17  30
BRANCH   1  32
HETATM   32  C4  UNL     1      23.206   5.051  51.106  1.00  0.00     0.117 C 
BRANCH  32  33
HETATM   33  C3  UNL     1      23.095   5.569  49.705  1.00  0.00     0.019 C 
BRANCH  33  34
HETATM   34  C2  UNL     1      24.053   4.765  48.836  1.00  0.00    -0.003 C 
HETATM   35  C1  UNL     1      25.370   4.557  49.563  1.00  0.00     0.005 C 
ENDBRANCH  33  34
ENDBRANCH  32  33
ENDBRANCH   1  32
TORSDOF 6
ENDMDL
MODEL 3
REMARK VINA RESULT:      -9.1      3.733      6.458
REMARK  6 active torsions:
REMARK  status: ('A' for Active; 'I' for Inactive)
REMARK    1  A    between atoms: C2_2  and  C3_3 
REMARK    2  A    between atoms: C3_3  and  C4_4 
REMARK    3  A    between atoms: C4_4  and  N1_5 
REMARK    4  A    between atoms: C13_19  and  N6_20 
REMARK    5  A    between atoms: N6_20  and  C14_21 
REMARK    6  A    between atoms: C21_30  and  C22_31 
ROOT
HETATM    1  N1  UNL     1      21.660   0.349  51.517  1.00  0.00    -0.402 N 
HETATM    2  C5  UNL     1      20.332   0.723  51.056  1.00  0.00     0.212 C 
HETATM    3  C6  UNL     1      20.237   1.471  49.894  1.00  0.00    -0.077 C 
HETATM    4  C7  UNL     1      20.165   2.095  48.960  1.00  0.00    -0.004 C 
HETATM    5  C8  UNL     1      20.084   2.888  47.817  1.00  0.00     0.297 C 
HETATM    6  O1  UNL     1      19.407   3.017  46.825  1.00  0.00    -0.258 OA
HETATM    7  N2  UNL     1      20.988   3.984  47.470  1.00  0.00    -0.332 N 
HETATM    8  C9  UNL     1      21.889   5.094  47.103  1.00  0.00     0.273 C 
HETATM    9  N3  UNL     1      23.001   5.188  48.095  1.00  0.00    -0.280 NA
HETATM   10  C10 UNL     1      23.426   4.009  48.543  1.00  0.00     0.144 C 
HETATM   11  C11 UNL     1      24.463   3.620  49.498  1.00  0.00     0.085 A 
HETATM   12  N4  UNL     1      25.579   4.101  48.939  1.00  0.00    -0.240 NA
HETATM   13  C12 UNL     1      26.774   3.918  49.526  1.00  0.00     0.236 A 
HETATM   14  N5  UNL     1      26.759   3.247  50.662  1.00  0.00    -0.224 NA
HETATM   15  C13 UNL     1      25.640   2.766  51.221  1.00  0.00     0.138 A 
HETATM   16  C20 UNL     1      24.377   2.901  50.704  1.00  0.00     0.024 A 
HETATM   17  C21 UNL     1      23.109   2.410  51.302  1.00  0.00     0.042 C 
HETATM   18  C24 UNL     1      22.753   1.008  51.016  1.00  0.00     0.127 C 
HETATM   19  H12 UNL     1      21.429   3.826  48.385  1.00  0.00     0.165 HD
ENDROOT
BRANCH  15  20
HETATM   20  N6  UNL     1      25.872   2.079  52.410  1.00  0.00    -0.340 N 
HETATM   21  H17 UNL     1      25.120   2.090  53.108  1.00  0.00     0.167 HD
BRANCH  20  22
HETATM   22  C14 UNL     1      26.947   1.297  52.890  1.00  0.00     0.035 A 
HETATM   23  C15 UNL     1      28.045   1.790  53.580  1.00  0.00     0.032 A 
HETATM   24  C16 UNL     1      29.052   0.950  53.994  1.00  0.00     0.046 A 
HETATM   25  C17 UNL     1      29.035  -0.396  53.759  1.00  0.00     0.138 A 
HETATM   26  F1  UNL     1      30.052  -1.152  54.196  1.00  0.00    -0.204 F 
HETATM   27  C18 UNL     1      27.949  -0.887  53.075  1.00  0.00     0.074 A 
HETATM   28 CL1  UNL     1      27.997  -2.641  52.807  1.00  0.00    -0.081 Cl
HETATM   29  C19 UNL     1      26.917  -0.079  52.641  1.00  0.00     0.056 A 
ENDBRANCH  20  22
ENDBRANCH  15  20
BRANCH  17  30
HETATM   30  C22 UNL     1      22.831   2.969  52.647  1.00  0.00     0.007 C 
HETATM   31  C23 UNL     1      21.732   4.031  52.516  1.00  0.00     0.006 C 
ENDBRANCH  17  30
BRANCH   1  32
HETATM   32  C4  UNL     1      21.511  -0.119  52.838  1.00  0.00     0.117 C 
BRANCH  32  33
HETATM   33  C3  UNL     1      22.637  -0.925  53.410  1.00  0.00     0.019 C 
BRANCH  33  34
HETATM   34  C2  UNL     1      22.373  -1.097  54.900  1.00  0.00    -0.003 C 
HETATM   35  C1  UNL     1      23.680  -1.328  55.639  1.00  0.00     0.005 C 
ENDBRANCH  33  34
ENDBRANCH  32  33
ENDBRANCH   1  32
TORSDOF 6
ENDMDL
MODEL 4
REMARK VINA RESULT:      -8.6      1.795      2.203
REMARK  6 active torsions:
REMARK  status: ('A' for Active; 'I' for Inactive)
REMARK    1  A    between atoms: C2_2  and  C3_3 
REMARK    2  A    between atoms: C3_3  and  C4_4 
REMARK    3  A    between atoms: C4_4  and  N1_5 
REMARK    4  A    between atoms: C13_19  and  N6_20 
REMARK    5  A    between atoms: N6_20  and  C14_21 
REMARK    6  A    between atoms: C21_30  and  C22_31 
ROOT
HETATM    1  N1  UNL     1      24.921   0.523  52.578  1.00  0.00    -0.402 N 
HETATM    2  C5  UNL     1      24.104   0.020  53.671  1.00  0.00     0.212 C 
HETATM    3  C6  UNL     1      22.738  -0.075  53.468  1.00  0.00    -0.077 C 
HETATM    4  C7  UNL     1      21.625  -0.133  53.305  1.00  0.00    -0.004 C 
HETATM    5  C8  UNL     1      20.247  -0.178  53.104  1.00  0.00     0.297 C 
HETATM    6  O1  UNL     1      19.297  -0.882  53.356  1.00  0.00    -0.258 OA
HETATM    7  N2  UNL     1      19.451   0.822  52.394  1.00  0.00    -0.332 N 
HETATM    8  C9  UNL     1      18.631   1.821  51.681  1.00  0.00     0.273 C 
HETATM    9  N3  UNL     1      19.517   2.866  51.086  1.00  0.00    -0.280 NA
HETATM   10  C10 UNL     1      20.673   2.396  50.626  1.00  0.00     0.144 C 
HETATM   11  C11 UNL     1      21.822   3.031  49.982  1.00  0.00     0.085 A 
HETATM   12  N4  UNL     1      21.292   3.547  48.867  1.00  0.00    -0.240 NA
HETATM   13  C12 UNL     1      22.060   4.205  47.982  1.00  0.00     0.236 A 
HETATM   14  N5  UNL     1      23.339   4.299  48.292  1.00  0.00    -0.224 NA
HETATM   15  C13 UNL     1      23.870   3.782  49.409  1.00  0.00     0.138 A 
HETATM   16  C20 UNL     1      23.172   3.097  50.371  1.00  0.00     0.024 A 
HETATM   17  C21 UNL     1      23.712   2.533  51.635  1.00  0.00     0.042 C 
HETATM   18  C24 UNL     1      24.318   1.193  51.544  1.00  0.00     0.127 C 
HETATM   19  H12 UNL     1      20.319   1.366  52.317  1.00  0.00     0.165 HD
ENDROOT
BRANCH  15  20
HETATM   20  N6  UNL     1      25.243   3.993  49.514  1.00  0.00    -0.340 N 
HETATM   21  H17 UNL     1      25.791   3.264  49.984  1.00  0.00     0.167 HD
BRANCH  20  22
HETATM   22  C14 UNL     1      26.108   5.016  49.065  1.00  0.00     0.035 A 
HETATM   23  C15 UNL     1      25.749   6.345  48.896  1.00  0.00     0.032 A 
HETATM   24  C16 UNL     1      26.661   7.268  48.438  1.00  0.00     0.046 A 
HETATM   25  C17 UNL     1      27.951   6.941  48.129  1.00  0.00     0.138 A 
HETATM   26  F1  UNL     1      28.783   7.897  47.692  1.00  0.00    -0.204 F 
HETATM   27  C18 UNL     1      28.309   5.625  48.296  1.00  0.00     0.074 A 
HETATM   28 CL1  UNL     1      29.998   5.278  47.875  1.00  0.00    -0.081 Cl
HETATM   29  C19 UNL     1      27.426   4.667  48.752  1.00  0.00     0.056 A 
ENDBRANCH  20  22
ENDBRANCH  15  20
BRANCH  17  30
HETATM   30  C22 UNL     1      24.327   3.549  52.523  1.00  0.00     0.007 C 
HETATM   31  C23 UNL     1      23.258   4.586  52.891  1.00  0.00     0.006 C 
ENDBRANCH  17  30
BRANCH   1  32
HETATM   32  C4  UNL     1      26.188   0.812  53.122  1.00  0.00     0.117 C 
BRANCH  32  33
HETATM   33  C3  UNL     1      26.397   0.504  54.573  1.00  0.00     0.019 C 
BRANCH  33  34
HETATM   34  C2  UNL     1      27.877   0.214  54.778  1.00  0.00    -0.003 C 
HETATM   35  C1  UNL     1      28.424  -0.575  53.601  1.00  0.00     0.005 C 
ENDBRANCH  33  34
ENDBRANCH  32  33
ENDBRANCH   1  32
TORSDOF 6
ENDMDL
MODEL 5
REMARK VINA RESULT:      -8.5      4.267      7.193
REMARK  6 active torsions:
REMARK  status: ('A' for Active; 'I' for Inactive)
REMARK    1  A    between atoms: C2_2  and  C3_3 
REMARK    2  A    between atoms: C3_3  and  C4_4 
REMARK    3  A    between atoms: C4_4  and  N1_5 
REMARK    4  A    between atoms: C13_19  and  N6_20 
REMARK    5  A    between atoms: N6_20  and  C14_21 
REMARK    6  A    between atoms: C21_30  and  C22_31 
ROOT
HETATM    1  N1  UNL     1      24.375   3.272  51.402  1.00  0.00    -0.402 N 
HETATM    2  C5  UNL     1      24.965   4.379  50.665  1.00  0.00     0.212 C 
HETATM    3  C6  UNL     1      24.172   5.487  50.418  1.00  0.00    -0.077 C 
HETATM    4  C7  UNL     1      23.519   6.378  50.202  1.00  0.00    -0.004 C 
HETATM    5  C8  UNL     1      22.696   7.466  49.917  1.00  0.00     0.297 C 
HETATM    6  O1  UNL     1      22.743   8.673  49.859  1.00  0.00    -0.258 OA
HETATM    7  N2  UNL     1      21.285   7.398  49.540  1.00  0.00    -0.332 N 
HETATM    8  C9  UNL     1      19.860   7.350  49.158  1.00  0.00     0.273 C 
HETATM    9  N3  UNL     1      19.369   5.941  49.227  1.00  0.00    -0.280 NA
HETATM   10  C10 UNL     1      19.889   5.236  50.228  1.00  0.00     0.144 C 
HETATM   11  C11 UNL     1      19.711   3.854  50.673  1.00  0.00     0.085 A 
HETATM   12  N4  UNL     1      18.407   3.804  50.973  1.00  0.00    -0.240 NA
HETATM   13  C12 UNL     1      17.856   2.674  51.449  1.00  0.00     0.236 A 
HETATM   14  N5  UNL     1      18.678   1.652  51.593  1.00  0.00    -0.224 NA
HETATM   15  C13 UNL     1      19.983   1.703  51.293  1.00  0.00     0.138 A 
HETATM   16  C20 UNL     1      20.637   2.804  50.801  1.00  0.00     0.024 A 
HETATM   17  C21 UNL     1      22.072   2.899  50.429  1.00  0.00     0.042 C 
HETATM   18  C24 UNL     1      23.012   3.200  51.524  1.00  0.00     0.127 C 
HETATM   19  H12 UNL     1      21.398   6.377  49.544  1.00  0.00     0.165 HD
ENDROOT
BRANCH  15  20
HETATM   20  N6  UNL     1      20.652   0.507  51.542  1.00  0.00    -0.340 N 
HETATM   21  H17 UNL     1      20.756  -0.141  50.753  1.00  0.00     0.167 HD
BRANCH  20  22
HETATM   22  C14 UNL     1      21.288  -0.034  52.682  1.00  0.00     0.035 A 
HETATM   23  C15 UNL     1      20.635  -0.468  53.827  1.00  0.00     0.032 A 
HETATM   24  C16 UNL     1      21.343  -0.968  54.895  1.00  0.00     0.046 A 
HETATM   25  C17 UNL     1      22.705  -1.068  54.895  1.00  0.00     0.138 A 
HETATM   26  F1  UNL     1      23.327  -1.569  55.972  1.00  0.00    -0.204 F 
HETATM   27  C18 UNL     1      23.355  -0.639  53.763  1.00  0.00     0.074 A 
HETATM   28 CL1  UNL     1      25.121  -0.800  53.838  1.00  0.00    -0.081 Cl
HETATM   29  C19 UNL     1      22.683  -0.130  52.669  1.00  0.00     0.056 A 
ENDBRANCH  20  22
ENDBRANCH  15  20
BRANCH  17  30
HETATM   30  C22 UNL     1      22.475   1.941  49.370  1.00  0.00     0.007 C 
HETATM   31  C23 UNL     1      22.693   2.719  48.067  1.00  0.00     0.006 C 
ENDBRANCH  17  30
BRANCH   1  32
HETATM   32  C4  UNL     1      25.251   2.178  51.255  1.00  0.00     0.117 C 
BRANCH  32  33
HETATM   33  C3  UNL     1      26.710   2.434  51.483  1.00  0.00     0.019 C 
BRANCH  33  34
HETATM   34  C2  UNL     1      27.096   1.772  52.799  1.00  0.00    -0.003 C 
HETATM   35  C1  UNL     1      28.358   2.410  53.354  1.00  0.00     0.005 C 
ENDBRANCH  33  34
ENDBRANCH  32  33
ENDBRANCH   1  32
TORSDOF 6
ENDMDL
MODEL 6
REMARK VINA RESULT:      -8.5      2.088      5.199
REMARK  6 active torsions:
REMARK  status: ('A' for Active; 'I' for Inactive)
REMARK    1  A    between atoms: C2_2  and  C3_3 
REMARK    2  A    between atoms: C3_3  and  C4_4 
REMARK    3  A    between atoms: C4_4  and  N1_5 
REMARK    4  A    between atoms: C13_19  and  N6_20 
REMARK    5  A    between atoms: N6_20  and  C14_21 
REMARK    6  A    between atoms: C21_30  and  C22_31 
ROOT
HETATM    1  N1  UNL     1      21.273   4.474  50.700  1.00  0.00    -0.402 N 
HETATM    2  C5  UNL     1      20.115   3.671  51.063  1.00  0.00     0.212 C 
HETATM    3  C6  UNL     1      20.275   2.710  52.047  1.00  0.00    -0.077 C 
HETATM    4  C7  UNL     1      20.415   1.917  52.833  1.00  0.00    -0.004 C 
HETATM    5  C8  UNL     1      20.601   0.921  53.789  1.00  0.00     0.297 C 
HETATM    6  O1  UNL     1      20.029   0.419  54.728  1.00  0.00    -0.258 OA
HETATM    7  N2  UNL     1      21.779   0.063  53.914  1.00  0.00    -0.332 N 
HETATM    8  C9  UNL     1      22.959  -0.812  54.056  1.00  0.00     0.273 C 
HETATM    9  N3  UNL     1      24.009  -0.403  53.076  1.00  0.00    -0.280 NA
HETATM   10  C10 UNL     1      24.084   0.911  52.882  1.00  0.00     0.144 C 
HETATM   11  C11 UNL     1      24.934   1.747  52.036  1.00  0.00     0.085 A 
HETATM   12  N4  UNL     1      26.163   1.485  52.497  1.00  0.00    -0.240 NA
HETATM   13  C12 UNL     1      27.238   2.096  51.971  1.00  0.00     0.236 A 
HETATM   14  N5  UNL     1      26.992   2.950  50.995  1.00  0.00    -0.224 NA
HETATM   15  C13 UNL     1      25.761   3.213  50.535  1.00  0.00     0.138 A 
HETATM   16  C20 UNL     1      24.605   2.642  51.002  1.00  0.00     0.024 A 
HETATM   17  C21 UNL     1      23.226   2.881  50.505  1.00  0.00     0.042 C 
HETATM   18  C24 UNL     1      22.523   4.048  51.067  1.00  0.00     0.127 C 
HETATM   19  H12 UNL     1      22.120   0.513  53.056  1.00  0.00     0.165 HD
ENDROOT
BRANCH  15  20
HETATM   20  N6  UNL     1      25.747   4.159  49.513  1.00  0.00    -0.340 N 
HETATM   21  H17 UNL     1      25.570   3.816  48.563  1.00  0.00     0.167 HD
BRANCH  20  22
HETATM   22  C14 UNL     1      25.891   5.565  49.486  1.00  0.00     0.035 A 
HETATM   23  C15 UNL     1      25.287   6.445  50.372  1.00  0.00     0.032 A 
HETATM   24  C16 UNL     1      25.476   7.803  50.255  1.00  0.00     0.046 A 
HETATM   25  C17 UNL     1      26.256   8.358  49.281  1.00  0.00     0.138 A 
HETATM   26  F1  UNL     1      26.395   9.691  49.232  1.00  0.00    -0.204 F 
HETATM   27  C18 UNL     1      26.855   7.489  48.401  1.00  0.00     0.074 A 
HETATM   28 CL1  UNL     1      27.852   8.284  47.166  1.00  0.00    -0.081 Cl
HETATM   29  C19 UNL     1      26.692   6.120  48.483  1.00  0.00     0.056 A 
ENDBRANCH  20  22
ENDBRANCH  15  20
BRANCH  17  30
HETATM   30  C22 UNL     1      23.045   2.547  49.071  1.00  0.00     0.007 C 
HETATM   31  C23 UNL     1      21.980   1.449  48.957  1.00  0.00     0.006 C 
ENDBRANCH  17  30
BRANCH   1  32
HETATM   32  C4  UNL     1      20.943   5.137  49.501  1.00  0.00     0.117 C 
BRANCH  32  33
HETATM   33  C3  UNL     1      21.810   6.290  49.097  1.00  0.00     0.019 C 
BRANCH  33  34
HETATM   34  C2  UNL     1      22.559   5.888  47.833  1.00  0.00    -0.003 C 
HETATM   35  C1  UNL     1      23.282   7.088  47.248  1.00  0.00     0.005 C 
ENDBRANCH  33  34
ENDBRANCH  32  33
ENDBRANCH   1  32
TORSDOF 6
ENDMDL
MODEL 7
REMARK VINA RESULT:      -8.5      2.395      4.832
REMARK  6 active torsions:
REMARK  status: ('A' for Active; 'I' for Inactive)
REMARK    1  A    between atoms: C2_2  and  C3_3 
REMARK    2  A    between atoms: C3_3  and  C4_4 
REMARK    3  A    between atoms: C4_4  and  N1_5 
REMARK    4  A    between atoms: C13_19  and  N6_20 
REMARK    5  A    between atoms: N6_20  and  C14_21 
REMARK    6  A    between atoms: C21_30  and  C22_31 
ROOT
HETATM    1  N1  UNL     1      25.218   3.160  50.037  1.00  0.00    -0.402 N 
HETATM    2  C5  UNL     1      26.309   2.737  50.903  1.00  0.00     0.212 C 
HETATM    3  C6  UNL     1      26.112   1.618  51.693  1.00  0.00    -0.077 C 
HETATM    4  C7  UNL     1      25.940   0.719  52.348  1.00  0.00    -0.004 C 
HETATM    5  C8  UNL     1      25.712  -0.380  53.174  1.00  0.00     0.297 C 
HETATM    6  O1  UNL     1      26.286  -1.355  53.599  1.00  0.00    -0.258 OA
HETATM    7  N2  UNL     1      24.463  -0.682  53.872  1.00  0.00    -0.332 N 
HETATM    8  C9  UNL     1      23.211  -1.004  54.585  1.00  0.00     0.273 C 
HETATM    9  N3  UNL     1      22.150  -0.023  54.205  1.00  0.00    -0.280 NA
HETATM   10  C10 UNL     1      22.198   0.356  52.931  1.00  0.00     0.144 C 
HETATM   11  C11 UNL     1      21.387   1.276  52.134  1.00  0.00     0.085 A 
HETATM   12  N4  UNL     1      20.168   0.726  52.193  1.00  0.00    -0.240 NA
HETATM   13  C12 UNL     1      19.131   1.286  51.548  1.00  0.00     0.236 A 
HETATM   14  N5  UNL     1      19.402   2.386  50.871  1.00  0.00    -0.224 NA
HETATM   15  C13 UNL     1      20.624   2.935  50.811  1.00  0.00     0.138 A 
HETATM   16  C20 UNL     1      21.742   2.443  51.434  1.00  0.00     0.024 A 
HETATM   17  C21 UNL     1      23.106   3.032  51.419  1.00  0.00     0.042 C 
HETATM   18  C24 UNL     1      23.956   2.678  50.268  1.00  0.00     0.127 C 
HETATM   19  H12 UNL     1      24.118   0.216  53.513  1.00  0.00     0.165 HD
ENDROOT
BRANCH  15  20
HETATM   20  N6  UNL     1      20.672   4.083  50.025  1.00  0.00    -0.340 N 
HETATM   21  H17 UNL     1      20.378   4.962  50.465  1.00  0.00     0.167 HD
BRANCH  20  22
HETATM   22  C14 UNL     1      21.089   4.339  48.698  1.00  0.00     0.035 A 
HETATM   23  C15 UNL     1      20.683   3.620  47.584  1.00  0.00     0.032 A 
HETATM   24  C16 UNL     1      21.156   3.935  46.331  1.00  0.00     0.046 A 
HETATM   25  C17 UNL     1      22.037   4.956  46.111  1.00  0.00     0.138 A 
HETATM   26  F1  UNL     1      22.452   5.206  44.860  1.00  0.00    -0.204 F 
HETATM   27  C18 UNL     1      22.441   5.670  47.213  1.00  0.00     0.074 A 
HETATM   28 CL1  UNL     1      23.583   6.979  46.847  1.00  0.00    -0.081 Cl
HETATM   29  C19 UNL     1      21.990   5.387  48.487  1.00  0.00     0.056 A 
ENDBRANCH  20  22
ENDBRANCH  15  20
BRANCH  17  30
HETATM   30  C22 UNL     1      23.164   4.408  51.969  1.00  0.00     0.007 C 
HETATM   31  C23 UNL     1      23.874   4.361  53.327  1.00  0.00     0.006 C 
ENDBRANCH  17  30
BRANCH   1  32
HETATM   32  C4  UNL     1      25.540   4.456  49.588  1.00  0.00     0.117 C 
BRANCH  32  33
HETATM   33  C3  UNL     1      26.893   4.653  48.976  1.00  0.00     0.019 C 
BRANCH  33  34
HETATM   34  C2  UNL     1      26.999   6.109  48.543  1.00  0.00    -0.003 C 
HETATM   35  C1  UNL     1      28.415   6.418  48.088  1.00  0.00     0.005 C 
ENDBRANCH  33  34
ENDBRANCH  32  33
ENDBRANCH   1  32
TORSDOF 6
ENDMDL
MODEL 8
REMARK VINA RESULT:      -8.0      7.427     10.627
REMARK  6 active torsions:
REMARK  status: ('A' for Active; 'I' for Inactive)
REMARK    1  A    between atoms: C2_2  and  C3_3 
REMARK    2  A    between atoms: C3_3  and  C4_4 
REMARK    3  A    between atoms: C4_4  and  N1_5 
REMARK    4  A    between atoms: C13_19  and  N6_20 
REMARK    5  A    between atoms: N6_20  and  C14_21 
REMARK    6  A    between atoms: C21_30  and  C22_31 
ROOT
HETATM    1  N1  UNL     1      31.404   7.299  46.595  1.00  0.00    -0.402 N 
HETATM    2  C5  UNL     1      30.916   6.038  47.133  1.00  0.00     0.212 C 
HETATM    3  C6  UNL     1      29.644   6.015  47.677  1.00  0.00    -0.077 C 
HETATM    4  C7  UNL     1      28.616   6.006  48.137  1.00  0.00    -0.004 C 
HETATM    5  C8  UNL     1      27.354   6.007  48.726  1.00  0.00     0.297 C 
HETATM    6  O1  UNL     1      26.371   5.310  48.813  1.00  0.00    -0.258 OA
HETATM    7  N2  UNL     1      26.797   7.075  49.555  1.00  0.00    -0.332 N 
HETATM    8  C9  UNL     1      26.217   8.143  50.394  1.00  0.00     0.273 C 
HETATM    9  N3  UNL     1      27.150   9.309  50.440  1.00  0.00    -0.280 NA
HETATM   10  C10 UNL     1      27.789   9.534  49.294  1.00  0.00     0.144 C 
HETATM   11  C11 UNL     1      28.772  10.535  48.881  1.00  0.00     0.085 A 
HETATM   12  N4  UNL     1      28.109  11.687  49.038  1.00  0.00    -0.240 NA
HETATM   13  C12 UNL     1      28.690  12.859  48.732  1.00  0.00     0.236 A 
HETATM   14  N5  UNL     1      29.927  12.785  48.278  1.00  0.00    -0.224 NA
HETATM   15  C13 UNL     1      30.590  11.631  48.120  1.00  0.00     0.138 A 
HETATM   16  C20 UNL     1      30.087  10.387  48.405  1.00  0.00     0.024 A 
HETATM   17  C21 UNL     1      30.793   9.087  48.274  1.00  0.00     0.042 C 
HETATM   18  C24 UNL     1      30.768   8.463  46.938  1.00  0.00     0.127 C 
HETATM   19  H12 UNL     1      27.713   7.532  49.472  1.00  0.00     0.165 HD
ENDROOT
BRANCH  15  20
HETATM   20  N6  UNL     1      31.875  11.801  47.612  1.00  0.00    -0.340 N 
HETATM   21  H17 UNL     1      32.604  12.083  48.276  1.00  0.00     0.167 HD
BRANCH  20  22
HETATM   22  C14 UNL     1      32.447  11.628  46.331  1.00  0.00     0.035 A 
HETATM   23  C15 UNL     1      31.999  12.242  45.170  1.00  0.00     0.032 A 
HETATM   24  C16 UNL     1      32.613  11.999  43.964  1.00  0.00     0.046 A 
HETATM   25  C17 UNL     1      33.681  11.158  43.835  1.00  0.00     0.138 A 
HETATM   26  F1  UNL     1      34.230  10.973  42.626  1.00  0.00    -0.204 F 
HETATM   27  C18 UNL     1      34.128  10.548  44.983  1.00  0.00     0.074 A 
HETATM   28 CL1  UNL     1      35.517   9.472  44.737  1.00  0.00    -0.081 Cl
HETATM   29  C19 UNL     1      33.540  10.764  46.214  1.00  0.00     0.056 A 
ENDBRANCH  20  22
ENDBRANCH  15  20
BRANCH  17  30
HETATM   30  C22 UNL     1      32.025   8.994  49.095  1.00  0.00     0.007 C 
HETATM   31  C23 UNL     1      31.889   7.798  50.044  1.00  0.00     0.006 C 
ENDBRANCH  17  30
BRANCH   1  32
HETATM   32  C4  UNL     1      32.790   7.141  46.394  1.00  0.00     0.117 C 
BRANCH  32  33
HETATM   33  C3  UNL     1      33.474   6.052  47.161  1.00  0.00     0.019 C 
BRANCH  33  34
HETATM   34  C2  UNL     1      34.698   6.656  47.835  1.00  0.00    -0.003 C 
HETATM   35  C1  UNL     1      35.221   5.718  48.909  1.00  0.00     0.005 C 
ENDBRANCH  33  34
ENDBRANCH  32  33
ENDBRANCH   1  32
TORSDOF 6
ENDMDL
MODEL 9
REMARK VINA RESULT:      -7.8      2.516      5.525
REMARK  6 active torsions:
REMARK  status: ('A' for Active; 'I' for Inactive)
REMARK    1  A    between atoms: C2_2  and  C3_3 
REMARK    2  A    between atoms: C3_3  and  C4_4 
REMARK    3  A    between atoms: C4_4  and  N1_5 
REMARK    4  A    between atoms: C13_19  and  N6_20 
REMARK    5  A    between atoms: N6_20  and  C14_21 
REMARK    6  A    between atoms: C21_30  and  C22_31 
ROOT
HETATM    1  N1  UNL     1      20.307   2.620  52.353  1.00  0.00    -0.402 N 
HETATM    2  C5  UNL     1      19.945   1.383  53.029  1.00  0.00     0.212 C 
HETATM    3  C6  UNL     1      20.952   0.667  53.654  1.00  0.00    -0.077 C 
HETATM    4  C7  UNL     1      21.777   0.078  54.143  1.00  0.00    -0.004 C 
HETATM    5  C8  UNL     1      22.807  -0.658  54.726  1.00  0.00     0.297 C 
HETATM    6  O1  UNL     1      23.029  -1.321  55.711  1.00  0.00    -0.258 OA
HETATM    7  N2  UNL     1      24.146  -0.845  54.170  1.00  0.00    -0.332 N 
HETATM    8  C9  UNL     1      25.504  -1.045  53.625  1.00  0.00     0.273 C 
HETATM    9  N3  UNL     1      25.669  -0.238  52.379  1.00  0.00    -0.280 NA
HETATM   10  C10 UNL     1      25.055   0.941  52.415  1.00  0.00     0.144 C 
HETATM   11  C11 UNL     1      24.941   2.036  51.451  1.00  0.00     0.085 A 
HETATM   12  N4  UNL     1      26.213   2.413  51.278  1.00  0.00    -0.240 NA
HETATM   13  C12 UNL     1      26.520   3.434  50.459  1.00  0.00     0.236 A 
HETATM   14  N5  UNL     1      25.499   4.015  49.860  1.00  0.00    -0.224 NA
HETATM   15  C13 UNL     1      24.225   3.637  50.034  1.00  0.00     0.138 A 
HETATM   16  C20 UNL     1      23.810   2.610  50.844  1.00  0.00     0.024 A 
HETATM   17  C21 UNL     1      22.416   2.138  51.046  1.00  0.00     0.042 C 
HETATM   18  C24 UNL     1      21.624   2.859  52.058  1.00  0.00     0.127 C 
HETATM   19  H12 UNL     1      23.808  -0.333  53.346  1.00  0.00     0.165 HD
ENDROOT
BRANCH  15  20
HETATM   20  N6  UNL     1      23.319   4.408  49.310  1.00  0.00    -0.340 N 
HETATM   21  H17 UNL     1      22.793   3.933  48.568  1.00  0.00     0.167 HD
BRANCH  20  22
HETATM   22  C14 UNL     1      22.906   5.757  49.390  1.00  0.00     0.035 A 
HETATM   23  C15 UNL     1      22.231   6.322  50.462  1.00  0.00     0.032 A 
HETATM   24  C16 UNL     1      21.857   7.645  50.441  1.00  0.00     0.046 A 
HETATM   25  C17 UNL     1      22.122   8.470  49.386  1.00  0.00     0.138 A 
HETATM   26  F1  UNL     1      21.728   9.751  49.438  1.00  0.00    -0.204 F 
HETATM   27  C18 UNL     1      22.790   7.914  48.321  1.00  0.00     0.074 A 
HETATM   28 CL1  UNL     1      23.098   9.047  46.990  1.00  0.00    -0.081 Cl
HETATM   29  C19 UNL     1      23.184   6.591  48.302  1.00  0.00     0.056 A 
ENDBRANCH  20  22
ENDBRANCH  15  20
BRANCH  17  30
HETATM   30  C22 UNL     1      21.757   1.684  49.797  1.00  0.00     0.007 C 
HETATM   31  C23 UNL     1      21.338   0.219  49.973  1.00  0.00     0.006 C 
ENDBRANCH  17  30
BRANCH   1  32
HETATM   32  C4  UNL     1      19.202   2.983  51.558  1.00  0.00     0.117 C 
BRANCH  32  33
HETATM   33  C3  UNL     1      19.327   4.233  50.742  1.00  0.00     0.019 C 
BRANCH  33  34
HETATM   34  C2  UNL     1      18.754   3.945  49.361  1.00  0.00    -0.003 C 
HETATM   35  C1  UNL     1      19.704   4.442  48.286  1.00  0.00     0.005 C 
ENDBRANCH  33  34
ENDBRANCH  32  33
ENDBRANCH   1  32
TORSDOF 6
ENDMDL
