MODEL 1
REMARK VINA RESULT:      -7.3      0.000      0.000
REMARK  4 active torsions:
REMARK  status: ('A' for Active; 'I' for Inactive)
REMARK    1  A    between atoms: C3_3  and  C4_4 
REMARK    2  A    between atoms: C5_5  and  N1_6 
REMARK    3  A    between atoms: N1_6  and  C6_7 
REMARK    4  A    between atoms: N2_21  and  N3_22 
ROOT
HETATM    1  C1  UNL     1      17.405  -3.348  53.459  1.00  0.00     0.112 C 
HETATM    2  C2  UNL     1      18.378  -2.249  53.555  1.00  0.00    -0.106 C 
HETATM    3  C3  UNL     1      19.174  -1.358  53.654  1.00  0.00    -0.078 C 
ENDROOT
BRANCH   3   4
HETATM    4  C4  UNL     1      20.114  -0.300  53.770  1.00  0.00     0.081 C 
HETATM    5  C5  UNL     1      21.424  -0.519  53.605  1.00  0.00     0.098 C 
BRANCH   5   6
HETATM    6  N1  UNL     1      22.323   0.601  53.737  1.00  0.00    -0.350 N 
HETATM    7  H6  UNL     1      21.627   1.136  54.286  1.00  0.00     0.166 HD
BRANCH   6   8
HETATM    8  C6  UNL     1      23.646   0.607  53.170  1.00  0.00     0.140 A 
HETATM    9  C7  UNL     1      24.053   1.614  52.381  1.00  0.00     0.045 A 
HETATM   10  C8  UNL     1      25.419   1.429  51.912  1.00  0.00     0.067 A 
HETATM   11  C14 UNL     1      23.090   2.717  52.111  1.00  0.00     0.160 C 
HETATM   12  C9  UNL     1      26.139   2.198  51.141  1.00  0.00     0.164 C 
HETATM   13  N4  UNL     1      26.093   0.254  52.345  1.00  0.00    -0.349 N 
HETATM   14  O1  UNL     1      25.291   3.197  50.898  1.00  0.00    -0.359 OA
HETATM   15  C10 UNL     1      25.371   4.445  50.345  1.00  0.00     0.201 C 
HETATM   16  C11 UNL     1      24.081   5.257  50.444  1.00  0.00     0.121 C 
HETATM   17  C12 UNL     1      23.500   5.221  51.825  1.00  0.00     0.031 C 
HETATM   18  N2  UNL     1      23.194   5.125  49.383  1.00  0.00    -0.335 N 
HETATM   19  C13 UNL     1      23.671   3.969  52.613  1.00  0.00     0.039 C 
HETATM   20  C16 UNL     1      22.198   4.212  49.207  1.00  0.00     0.117 C 
HETATM   21  C15 UNL     1      21.732   3.325  50.307  1.00  0.00     0.194 C 
HETATM   22  C17 UNL     1      22.501   3.310  48.001  1.00  0.00     0.036 C 
HETATM   23  O2  UNL     1      22.796   2.633  50.770  1.00  0.00    -0.379 OA
HETATM   24  C19 UNL     1      25.576  -0.777  53.196  1.00  0.00     0.209 A 
HETATM   25  H26 UNL     1      27.095   0.043  52.047  1.00  0.00     0.167 HD
HETATM   26  N5  UNL     1      24.361  -0.565  53.584  1.00  0.00    -0.226 NA
BRANCH  18  27
HETATM   27  N3  UNL     1      23.065   6.224  48.519  1.00  0.00    -0.246 NA
HETATM   28  C18 UNL     1      24.316   6.769  48.080  1.00  0.00     0.132 C 
HETATM   29  H22 UNL     1      22.441   5.976  47.695  1.00  0.00     0.145 HD
ENDBRANCH  18  27
ENDBRANCH   6   8
ENDBRANCH   5   6
ENDBRANCH   3   4
TORSDOF 4
ENDMDL
MODEL 2
REMARK VINA RESULT:      -7.3      2.322      4.891
REMARK  4 active torsions:
REMARK  status: ('A' for Active; 'I' for Inactive)
REMARK    1  A    between atoms: C3_3  and  C4_4 
REMARK    2  A    between atoms: C5_5  and  N1_6 
REMARK    3  A    between atoms: N1_6  and  C6_7 
REMARK    4  A    between atoms: N2_21  and  N3_22 
ROOT
HETATM    1  C1  UNL     1      29.973  -1.224  53.802  1.00  0.00     0.112 C 
HETATM    2  C2  UNL     1      28.824  -0.369  53.466  1.00  0.00    -0.106 C 
HETATM    3  C3  UNL     1      27.895   0.343  53.206  1.00  0.00    -0.078 C 
ENDROOT
BRANCH   3   4
HETATM    4  C4  UNL     1      26.792   1.183  52.900  1.00  0.00     0.081 C 
HETATM    5  C5  UNL     1      25.952   1.595  53.857  1.00  0.00     0.098 C 
BRANCH   5   6
HETATM    6  N1  UNL     1      24.852   2.448  53.477  1.00  0.00    -0.350 N 
HETATM    7  H6  UNL     1      25.194   3.212  54.085  1.00  0.00     0.166 HD
BRANCH   6   8
HETATM    8  C6  UNL     1      23.831   2.034  52.550  1.00  0.00     0.140 A 
HETATM    9  C7  UNL     1      23.574   2.751  51.443  1.00  0.00     0.045 A 
HETATM   10  C8  UNL     1      22.510   2.164  50.643  1.00  0.00     0.067 A 
HETATM   11  C14 UNL     1      24.376   3.984  51.214  1.00  0.00     0.160 C 
HETATM   12  C9  UNL     1      22.002   2.577  49.513  1.00  0.00     0.164 C 
HETATM   13  N4  UNL     1      21.923   0.965  51.133  1.00  0.00    -0.349 N 
HETATM   14  O1  UNL     1      22.718   3.679  49.290  1.00  0.00    -0.359 OA
HETATM   15  C10 UNL     1      22.905   4.536  48.241  1.00  0.00     0.201 C 
HETATM   16  C11 UNL     1      23.981   5.593  48.482  1.00  0.00     0.121 C 
HETATM   17  C12 UNL     1      25.240   4.997  49.035  1.00  0.00     0.031 C 
HETATM   18  N2  UNL     1      23.548   6.788  49.045  1.00  0.00    -0.335 N 
HETATM   19  C13 UNL     1      25.106   3.829  49.949  1.00  0.00     0.039 C 
HETATM   20  C16 UNL     1      23.418   7.117  50.360  1.00  0.00     0.117 C 
HETATM   21  C15 UNL     1      23.990   6.278  51.448  1.00  0.00     0.194 C 
HETATM   22  C17 UNL     1      21.942   7.363  50.711  1.00  0.00     0.036 C 
HETATM   23  O2  UNL     1      23.489   5.029  51.324  1.00  0.00    -0.379 OA
HETATM   24  C19 UNL     1      22.264   0.263  52.335  1.00  0.00     0.209 A 
HETATM   25  H26 UNL     1      21.138   0.472  50.607  1.00  0.00     0.167 HD
HETATM   26  N5  UNL     1      23.214   0.825  53.009  1.00  0.00    -0.226 NA
BRANCH  18  27
HETATM   27  N3  UNL     1      23.529   7.916  48.211  1.00  0.00    -0.246 NA
HETATM   28  C18 UNL     1      23.538   7.607  46.811  1.00  0.00     0.132 C 
HETATM   29  H22 UNL     1      22.713   8.548  48.461  1.00  0.00     0.145 HD
ENDBRANCH  18  27
ENDBRANCH   6   8
ENDBRANCH   5   6
ENDBRANCH   3   4
TORSDOF 4
ENDMDL
MODEL 3
REMARK VINA RESULT:      -7.3      6.323      9.499
REMARK  4 active torsions:
REMARK  status: ('A' for Active; 'I' for Inactive)
REMARK    1  A    between atoms: C3_3  and  C4_4 
REMARK    2  A    between atoms: C5_5  and  N1_6 
REMARK    3  A    between atoms: N1_6  and  C6_7 
REMARK    4  A    between atoms: N2_21  and  N3_22 
ROOT
HETATM    1  C1  UNL     1      25.662   1.061  51.894  1.00  0.00     0.112 C 
HETATM    2  C2  UNL     1      26.118   2.145  51.010  1.00  0.00    -0.106 C 
HETATM    3  C3  UNL     1      26.469   3.030  50.282  1.00  0.00    -0.078 C 
ENDROOT
BRANCH   3   4
HETATM    4  C4  UNL     1      26.888   4.075  49.417  1.00  0.00     0.081 C 
HETATM    5  C5  UNL     1      26.271   5.262  49.419  1.00  0.00     0.098 C 
BRANCH   5   6
HETATM    6  N1  UNL     1      26.748   6.279  48.515  1.00  0.00    -0.350 N 
HETATM    7  H6  UNL     1      26.437   5.736  47.690  1.00  0.00     0.166 HD
BRANCH   6   8
HETATM    8  C6  UNL     1      27.380   7.490  48.969  1.00  0.00     0.140 A 
HETATM    9  C7  UNL     1      28.592   7.848  48.515  1.00  0.00     0.045 A 
HETATM   10  C8  UNL     1      29.051   9.100  49.098  1.00  0.00     0.067 A 
HETATM   11  C14 UNL     1      29.257   6.948  47.533  1.00  0.00     0.160 C 
HETATM   12  C9  UNL     1      30.165   9.749  48.890  1.00  0.00     0.164 C 
HETATM   13  N4  UNL     1      28.179   9.735  50.025  1.00  0.00    -0.349 N 
HETATM   14  O1  UNL     1      30.769   8.958  48.003  1.00  0.00    -0.359 OA
HETATM   15  C10 UNL     1      31.857   9.052  47.180  1.00  0.00     0.201 C 
HETATM   16  C11 UNL     1      32.028   7.867  46.232  1.00  0.00     0.121 C 
HETATM   17  C12 UNL     1      30.747   7.514  45.538  1.00  0.00     0.031 C 
HETATM   18  N2  UNL     1      32.800   6.813  46.706  1.00  0.00    -0.335 N 
HETATM   19  C13 UNL     1      29.478   7.705  46.293  1.00  0.00     0.039 C 
HETATM   20  C16 UNL     1      32.414   5.730  47.436  1.00  0.00     0.117 C 
HETATM   21  C15 UNL     1      30.983   5.374  47.633  1.00  0.00     0.194 C 
HETATM   22  C17 UNL     1      33.065   5.759  48.828  1.00  0.00     0.036 C 
HETATM   23  O2  UNL     1      30.356   6.437  48.183  1.00  0.00    -0.379 OA
HETATM   24  C19 UNL     1      26.891   9.277  50.455  1.00  0.00     0.209 A 
HETATM   25  H26 UNL     1      28.440  10.655  50.497  1.00  0.00     0.167 HD
HETATM   26  N5  UNL     1      26.531   8.162  49.909  1.00  0.00    -0.226 NA
BRANCH  18  27
HETATM   27  N3  UNL     1      34.066   6.639  46.126  1.00  0.00    -0.246 NA
HETATM   28  C18 UNL     1      34.129   5.570  45.173  1.00  0.00     0.132 C 
HETATM   29  H22 UNL     1      34.410   7.551  45.706  1.00  0.00     0.145 HD
ENDBRANCH  18  27
ENDBRANCH   6   8
ENDBRANCH   5   6
ENDBRANCH   3   4
TORSDOF 4
ENDMDL
MODEL 4
REMARK VINA RESULT:      -7.2      2.136      7.506
REMARK  4 active torsions:
REMARK  status: ('A' for Active; 'I' for Inactive)
REMARK    1  A    between atoms: C3_3  and  C4_4 
REMARK    2  A    between atoms: C5_5  and  N1_6 
REMARK    3  A    between atoms: N1_6  and  C6_7 
REMARK    4  A    between atoms: N2_21  and  N3_22 
ROOT
HETATM    1  C1  UNL     1      29.690   5.797  48.087  1.00  0.00     0.112 C 
HETATM    2  C2  UNL     1      28.306   5.446  48.441  1.00  0.00    -0.106 C 
HETATM    3  C3  UNL     1      27.183   5.161  48.750  1.00  0.00    -0.078 C 
ENDROOT
BRANCH   3   4
HETATM    4  C4  UNL     1      25.854   4.817  49.115  1.00  0.00     0.081 C 
HETATM    5  C5  UNL     1      24.907   5.755  49.234  1.00  0.00     0.098 C 
BRANCH   5   6
HETATM    6  N1  UNL     1      23.578   5.337  49.607  1.00  0.00    -0.350 N 
HETATM    7  H6  UNL     1      23.491   6.113  50.286  1.00  0.00     0.166 HD
BRANCH   6   8
HETATM    8  C6  UNL     1      22.929   4.192  49.022  1.00  0.00     0.140 A 
HETATM    9  C7  UNL     1      22.674   3.096  49.754  1.00  0.00     0.045 A 
HETATM   10  C8  UNL     1      22.015   2.057  48.977  1.00  0.00     0.067 A 
HETATM   11  C14 UNL     1      23.089   3.105  51.184  1.00  0.00     0.160 C 
HETATM   12  C9  UNL     1      21.616   0.871  49.352  1.00  0.00     0.164 C 
HETATM   13  N4  UNL     1      21.750   2.347  47.610  1.00  0.00    -0.349 N 
HETATM   14  O1  UNL     1      21.974   0.868  50.637  1.00  0.00    -0.359 OA
HETATM   15  C10 UNL     1      21.729   0.077  51.725  1.00  0.00     0.201 C 
HETATM   16  C11 UNL     1      22.289   0.626  53.035  1.00  0.00     0.121 C 
HETATM   17  C12 UNL     1      21.955   2.074  53.227  1.00  0.00     0.031 C 
HETATM   18  N2  UNL     1      23.581   0.229  53.361  1.00  0.00    -0.335 N 
HETATM   19  C13 UNL     1      21.887   2.933  52.012  1.00  0.00     0.039 C 
HETATM   20  C16 UNL     1      24.766   0.803  53.014  1.00  0.00     0.117 C 
HETATM   21  C15 UNL     1      24.843   2.159  52.406  1.00  0.00     0.194 C 
HETATM   22  C17 UNL     1      25.578  -0.140  52.113  1.00  0.00     0.036 C 
HETATM   23  O2  UNL     1      24.085   2.163  51.287  1.00  0.00    -0.379 OA
HETATM   24  C19 UNL     1      22.060   3.555  46.906  1.00  0.00     0.209 A 
HETATM   25  H26 UNL     1      21.271   1.640  46.972  1.00  0.00     0.167 HD
HETATM   26  N5  UNL     1      22.644   4.446  47.641  1.00  0.00    -0.226 NA
BRANCH  18  27
HETATM   27  N3  UNL     1      23.721  -0.679  54.422  1.00  0.00    -0.246 NA
HETATM   28  C18 UNL     1      22.477  -1.168  54.938  1.00  0.00     0.132 C 
HETATM   29  H22 UNL     1      24.364  -1.477  54.145  1.00  0.00     0.145 HD
ENDBRANCH  18  27
ENDBRANCH   6   8
ENDBRANCH   5   6
ENDBRANCH   3   4
TORSDOF 4
ENDMDL
MODEL 5
REMARK VINA RESULT:      -7.0      9.083     12.225
REMARK  4 active torsions:
REMARK  status: ('A' for Active; 'I' for Inactive)
REMARK    1  A    between atoms: C3_3  and  C4_4 
REMARK    2  A    between atoms: C5_5  and  N1_6 
REMARK    3  A    between atoms: N1_6  and  C6_7 
REMARK    4  A    between atoms: N2_21  and  N3_22 
ROOT
HETATM    1  C1  UNL     1      24.186   7.767  46.777  1.00  0.00     0.112 C 
HETATM    2  C2  UNL     1      25.580   7.954  47.208  1.00  0.00    -0.106 C 
HETATM    3  C3  UNL     1      26.709   8.110  47.579  1.00  0.00    -0.078 C 
ENDROOT
BRANCH   3   4
HETATM    4  C4  UNL     1      28.047   8.300  48.016  1.00  0.00     0.081 C 
HETATM    5  C5  UNL     1      28.312   8.802  49.227  1.00  0.00     0.098 C 
BRANCH   5   6
HETATM    6  N1  UNL     1      29.693   8.969  49.608  1.00  0.00    -0.350 N 
HETATM    7  H6  UNL     1      29.580   8.334  50.418  1.00  0.00     0.166 HD
BRANCH   6   8
HETATM    8  C6  UNL     1      30.607   9.805  48.875  1.00  0.00     0.140 A 
HETATM    9  C7  UNL     1      31.526   9.270  48.055  1.00  0.00     0.045 A 
HETATM   10  C8  UNL     1      32.348  10.284  47.412  1.00  0.00     0.067 A 
HETATM   11  C14 UNL     1      31.568   7.787  47.936  1.00  0.00     0.160 C 
HETATM   12  C9  UNL     1      33.325  10.137  46.559  1.00  0.00     0.164 C 
HETATM   13  N4  UNL     1      32.065  11.640  47.735  1.00  0.00    -0.349 N 
HETATM   14  O1  UNL     1      33.369   8.810  46.435  1.00  0.00    -0.359 OA
HETATM   15  C10 UNL     1      33.981   7.919  45.598  1.00  0.00     0.201 C 
HETATM   16  C11 UNL     1      33.564   6.467  45.818  1.00  0.00     0.121 C 
HETATM   17  C12 UNL     1      32.075   6.318  45.910  1.00  0.00     0.031 C 
HETATM   18  N2  UNL     1      34.327   5.743  46.726  1.00  0.00    -0.335 N 
HETATM   19  C13 UNL     1      31.308   7.431  46.535  1.00  0.00     0.039 C 
HETATM   20  C16 UNL     1      34.174   5.630  48.075  1.00  0.00     0.117 C 
HETATM   21  C15 UNL     1      32.947   6.096  48.776  1.00  0.00     0.194 C 
HETATM   22  C17 UNL     1      35.373   6.253  48.807  1.00  0.00     0.036 C 
HETATM   23  O2  UNL     1      32.767   7.404  48.488  1.00  0.00    -0.379 OA
HETATM   24  C19 UNL     1      31.056  12.125  48.630  1.00  0.00     0.209 A 
HETATM   25  H26 UNL     1      32.621  12.443  47.308  1.00  0.00     0.167 HD
HETATM   26  N5  UNL     1      30.354  11.184  49.174  1.00  0.00    -0.226 NA
BRANCH  18  27
HETATM   27  N3  UNL     1      35.172   4.752  46.203  1.00  0.00    -0.246 NA
HETATM   28  C18 UNL     1      34.725   3.414  46.453  1.00  0.00     0.132 C 
HETATM   29  H22 UNL     1      35.338   4.916  45.167  1.00  0.00     0.145 HD
ENDBRANCH  18  27
ENDBRANCH   6   8
ENDBRANCH   5   6
ENDBRANCH   3   4
TORSDOF 4
ENDMDL
MODEL 6
REMARK VINA RESULT:      -7.0      2.506      6.710
REMARK  4 active torsions:
REMARK  status: ('A' for Active; 'I' for Inactive)
REMARK    1  A    between atoms: C3_3  and  C4_4 
REMARK    2  A    between atoms: C5_5  and  N1_6 
REMARK    3  A    between atoms: N1_6  and  C6_7 
REMARK    4  A    between atoms: N2_21  and  N3_22 
ROOT
HETATM    1  C1  UNL     1      20.785   8.551  49.727  1.00  0.00     0.112 C 
HETATM    2  C2  UNL     1      21.434   7.256  49.982  1.00  0.00    -0.106 C 
HETATM    3  C3  UNL     1      21.944   6.191  50.193  1.00  0.00    -0.078 C 
ENDROOT
BRANCH   3   4
HETATM    4  C4  UNL     1      22.549   4.932  50.447  1.00  0.00     0.081 C 
HETATM    5  C5  UNL     1      22.084   3.815  49.876  1.00  0.00     0.098 C 
BRANCH   5   6
HETATM    6  N1  UNL     1      22.747   2.570  50.177  1.00  0.00    -0.350 N 
HETATM    7  H6  UNL     1      23.535   2.800  49.547  1.00  0.00     0.166 HD
BRANCH   6   8
HETATM    8  C6  UNL     1      22.199   1.597  51.086  1.00  0.00     0.140 A 
HETATM    9  C7  UNL     1      22.955   1.056  52.055  1.00  0.00     0.045 A 
HETATM   10  C8  UNL     1      22.214   0.098  52.861  1.00  0.00     0.067 A 
HETATM   11  C14 UNL     1      24.375   1.492  52.151  1.00  0.00     0.160 C 
HETATM   12  C9  UNL     1      22.617  -0.611  53.881  1.00  0.00     0.164 C 
HETATM   13  N4  UNL     1      20.850  -0.113  52.517  1.00  0.00    -0.349 N 
HETATM   14  O1  UNL     1      23.888  -0.223  53.985  1.00  0.00    -0.359 OA
HETATM   15  C10 UNL     1      24.889  -0.367  54.906  1.00  0.00     0.201 C 
HETATM   16  C11 UNL     1      26.154   0.426  54.582  1.00  0.00     0.121 C 
HETATM   17  C12 UNL     1      25.847   1.844  54.208  1.00  0.00     0.031 C 
HETATM   18  N2  UNL     1      27.110  -0.235  53.821  1.00  0.00    -0.335 N 
HETATM   19  C13 UNL     1      24.580   2.105  53.470  1.00  0.00     0.039 C 
HETATM   20  C16 UNL     1      27.225  -0.308  52.466  1.00  0.00     0.117 C 
HETATM   21  C15 UNL     1      26.437   0.565  51.554  1.00  0.00     0.194 C 
HETATM   22  C17 UNL     1      27.026  -1.754  51.986  1.00  0.00     0.036 C 
HETATM   23  O2  UNL     1      25.126   0.386  51.828  1.00  0.00    -0.379 OA
HETATM   24  C19 UNL     1      20.118   0.515  51.458  1.00  0.00     0.209 A 
HETATM   25  H26 UNL     1      20.237  -0.798  53.058  1.00  0.00     0.167 HD
HETATM   26  N5  UNL     1      20.821   1.356  50.772  1.00  0.00    -0.226 NA
BRANCH  18  27
HETATM   27  N3  UNL     1      28.290  -0.623  54.475  1.00  0.00    -0.246 NA
HETATM   28  C18 UNL     1      29.286   0.405  54.540  1.00  0.00     0.132 C 
HETATM   29  H22 UNL     1      28.069  -1.008  55.440  1.00  0.00     0.145 HD
ENDBRANCH  18  27
ENDBRANCH   6   8
ENDBRANCH   5   6
ENDBRANCH   3   4
TORSDOF 4
ENDMDL
MODEL 7
REMARK VINA RESULT:      -7.0      1.818      5.073
REMARK  4 active torsions:
REMARK  status: ('A' for Active; 'I' for Inactive)
REMARK    1  A    between atoms: C3_3  and  C4_4 
REMARK    2  A    between atoms: C5_5  and  N1_6 
REMARK    3  A    between atoms: N1_6  and  C6_7 
REMARK    4  A    between atoms: N2_21  and  N3_22 
ROOT
HETATM    1  C1  UNL     1      29.794   1.068  54.159  1.00  0.00     0.112 C 
HETATM    2  C2  UNL     1      28.507   0.612  53.611  1.00  0.00    -0.106 C 
HETATM    3  C3  UNL     1      27.457   0.259  53.154  1.00  0.00    -0.078 C 
ENDROOT
BRANCH   3   4
HETATM    4  C4  UNL     1      26.211  -0.159  52.617  1.00  0.00     0.081 C 
HETATM    5  C5  UNL     1      25.147  -0.344  53.406  1.00  0.00     0.098 C 
BRANCH   5   6
HETATM    6  N1  UNL     1      23.911  -0.768  52.795  1.00  0.00    -0.350 N 
HETATM    7  H6  UNL     1      24.403  -1.468  52.212  1.00  0.00     0.166 HD
BRANCH   6   8
HETATM    8  C6  UNL     1      22.637  -0.189  53.133  1.00  0.00     0.140 A 
HETATM    9  C7  UNL     1      22.159   0.868  52.458  1.00  0.00     0.045 A 
HETATM   10  C8  UNL     1      20.861   1.298  52.956  1.00  0.00     0.067 A 
HETATM   11  C14 UNL     1      22.992   1.421  51.355  1.00  0.00     0.160 C 
HETATM   12  C9  UNL     1      20.101   2.277  52.545  1.00  0.00     0.164 C 
HETATM   13  N4  UNL     1      20.312   0.561  54.042  1.00  0.00    -0.349 N 
HETATM   14  O1  UNL     1      20.832   2.777  51.548  1.00  0.00    -0.359 OA
HETATM   15  C10 UNL     1      20.632   3.670  50.532  1.00  0.00     0.201 C 
HETATM   16  C11 UNL     1      21.801   3.776  49.555  1.00  0.00     0.121 C 
HETATM   17  C12 UNL     1      22.291   2.430  49.117  1.00  0.00     0.031 C 
HETATM   18  N2  UNL     1      22.765   4.731  49.857  1.00  0.00    -0.335 N 
HETATM   19  C13 UNL     1      22.228   1.317  50.105  1.00  0.00     0.039 C 
HETATM   20  C16 UNL     1      23.876   4.609  50.635  1.00  0.00     0.117 C 
HETATM   21  C15 UNL     1      24.377   3.287  51.101  1.00  0.00     0.194 C 
HETATM   22  C17 UNL     1      23.767   5.510  51.875  1.00  0.00     0.036 C 
HETATM   23  O2  UNL     1      23.380   2.671  51.774  1.00  0.00    -0.379 OA
HETATM   24  C19 UNL     1      20.898  -0.565  54.707  1.00  0.00     0.209 A 
HETATM   25  H26 UNL     1      19.366   0.811  54.465  1.00  0.00     0.167 HD
HETATM   26  N5  UNL     1      22.049  -0.906  54.227  1.00  0.00    -0.226 NA
BRANCH  18  27
HETATM   27  N3  UNL     1      22.811   5.872  49.042  1.00  0.00    -0.246 NA
HETATM   28  C18 UNL     1      24.055   6.046  48.353  1.00  0.00     0.132 C 
HETATM   29  H22 UNL     1      21.992   5.878  48.366  1.00  0.00     0.145 HD
ENDBRANCH  18  27
ENDBRANCH   6   8
ENDBRANCH   5   6
ENDBRANCH   3   4
TORSDOF 4
ENDMDL
MODEL 8
REMARK VINA RESULT:      -7.0      3.237      6.823
REMARK  4 active torsions:
REMARK  status: ('A' for Active; 'I' for Inactive)
REMARK    1  A    between atoms: C3_3  and  C4_4 
REMARK    2  A    between atoms: C5_5  and  N1_6 
REMARK    3  A    between atoms: N1_6  and  C6_7 
REMARK    4  A    between atoms: N2_21  and  N3_22 
ROOT
HETATM    1  C1  UNL     1      29.072   9.041  47.771  1.00  0.00     0.112 C 
HETATM    2  C2  UNL     1      28.288   7.837  48.089  1.00  0.00    -0.106 C 
HETATM    3  C3  UNL     1      27.651   6.850  48.328  1.00  0.00    -0.078 C 
ENDROOT
BRANCH   3   4
HETATM    4  C4  UNL     1      26.892   5.684  48.610  1.00  0.00     0.081 C 
HETATM    5  C5  UNL     1      27.492   4.526  48.909  1.00  0.00     0.098 C 
BRANCH   5   6
HETATM    6  N1  UNL     1      26.660   3.380  49.186  1.00  0.00    -0.350 N 
HETATM    7  H6  UNL     1      26.686   3.082  48.195  1.00  0.00     0.166 HD
BRANCH   6   8
HETATM    8  C6  UNL     1      26.161   3.081  50.503  1.00  0.00     0.140 A 
HETATM    9  C7  UNL     1      24.854   3.198  50.787  1.00  0.00     0.045 A 
HETATM   10  C8  UNL     1      24.559   2.850  52.169  1.00  0.00     0.067 A 
HETATM   11  C14 UNL     1      23.945   3.649  49.698  1.00  0.00     0.160 C 
HETATM   12  C9  UNL     1      23.411   2.841  52.792  1.00  0.00     0.164 C 
HETATM   13  N4  UNL     1      25.657   2.453  52.981  1.00  0.00    -0.349 N 
HETATM   14  O1  UNL     1      22.583   3.236  51.824  1.00  0.00    -0.359 OA
HETATM   15  C10 UNL     1      21.228   3.285  51.646  1.00  0.00     0.201 C 
HETATM   16  C11 UNL     1      20.797   3.708  50.244  1.00  0.00     0.121 C 
HETATM   17  C12 UNL     1      21.541   2.963  49.178  1.00  0.00     0.031 C 
HETATM   18  N2  UNL     1      20.612   5.072  50.048  1.00  0.00    -0.335 N 
HETATM   19  C13 UNL     1      22.956   2.590  49.457  1.00  0.00     0.039 C 
HETATM   20  C16 UNL     1      21.523   6.015  49.678  1.00  0.00     0.117 C 
HETATM   21  C15 UNL     1      22.872   5.656  49.162  1.00  0.00     0.194 C 
HETATM   22  C17 UNL     1      21.732   7.035  50.809  1.00  0.00     0.036 C 
HETATM   23  O2  UNL     1      23.486   4.886  50.087  1.00  0.00    -0.379 OA
HETATM   24  C19 UNL     1      27.032   2.357  52.590  1.00  0.00     0.209 A 
HETATM   25  H26 UNL     1      25.526   2.183  54.004  1.00  0.00     0.167 HD
HETATM   26  N5  UNL     1      27.241   2.676  51.354  1.00  0.00    -0.226 NA
BRANCH  18  27
HETATM   27  N3  UNL     1      19.292   5.522  49.897  1.00  0.00    -0.246 NA
HETATM   28  C18 UNL     1      18.982   5.987  48.577  1.00  0.00     0.132 C 
HETATM   29  H22 UNL     1      18.607   4.774  50.213  1.00  0.00     0.145 HD
ENDBRANCH  18  27
ENDBRANCH   6   8
ENDBRANCH   5   6
ENDBRANCH   3   4
TORSDOF 4
ENDMDL
MODEL 9
REMARK VINA RESULT:      -6.8      8.728     12.498
REMARK  4 active torsions:
REMARK  status: ('A' for Active; 'I' for Inactive)
REMARK    1  A    between atoms: C3_3  and  C4_4 
REMARK    2  A    between atoms: C5_5  and  N1_6 
REMARK    3  A    between atoms: N1_6  and  C6_7 
REMARK    4  A    between atoms: N2_21  and  N3_22 
ROOT
HETATM    1  C1  UNL     1      29.836  14.675  45.169  1.00  0.00     0.112 C 
HETATM    2  C2  UNL     1      29.957  13.485  46.027  1.00  0.00    -0.106 C 
HETATM    3  C3  UNL     1      30.056  12.504  46.708  1.00  0.00    -0.078 C 
ENDROOT
BRANCH   3   4
HETATM    4  C4  UNL     1      30.168  11.342  47.516  1.00  0.00     0.081 C 
HETATM    5  C5  UNL     1      30.222  11.432  48.850  1.00  0.00     0.098 C 
BRANCH   5   6
HETATM    6  N1  UNL     1      30.336  10.212  49.611  1.00  0.00    -0.350 N 
HETATM    7  H6  UNL     1      31.047  10.631  50.236  1.00  0.00     0.166 HD
BRANCH   6   8
HETATM    8  C6  UNL     1      29.566   9.033  49.310  1.00  0.00     0.140 A 
HETATM    9  C7  UNL     1      30.153   7.941  48.793  1.00  0.00     0.045 A 
HETATM   10  C8  UNL     1      29.202   6.863  48.563  1.00  0.00     0.067 A 
HETATM   11  C14 UNL     1      31.619   7.995  48.541  1.00  0.00     0.160 C 
HETATM   12  C9  UNL     1      29.410   5.667  48.082  1.00  0.00     0.164 C 
HETATM   13  N4  UNL     1      27.846   7.117  48.907  1.00  0.00    -0.349 N 
HETATM   14  O1  UNL     1      30.724   5.698  47.858  1.00  0.00    -0.359 OA
HETATM   15  C10 UNL     1      31.692   4.782  47.551  1.00  0.00     0.201 C 
HETATM   16  C11 UNL     1      33.109   5.350  47.545  1.00  0.00     0.121 C 
HETATM   17  C12 UNL     1      33.391   6.170  48.767  1.00  0.00     0.031 C 
HETATM   18  N2  UNL     1      33.562   5.852  46.331  1.00  0.00    -0.335 N 
HETATM   19  C13 UNL     1      32.263   6.951  49.348  1.00  0.00     0.039 C 
HETATM   20  C16 UNL     1      33.427   7.107  45.820  1.00  0.00     0.117 C 
HETATM   21  C15 UNL     1      32.964   8.255  46.646  1.00  0.00     0.194 C 
HETATM   22  C17 UNL     1      32.555   7.084  44.555  1.00  0.00     0.036 C 
HETATM   23  O2  UNL     1      31.762   7.936  47.175  1.00  0.00    -0.379 OA
HETATM   24  C19 UNL     1      27.305   8.324  49.458  1.00  0.00     0.209 A 
HETATM   25  H26 UNL     1      27.087   6.381  48.769  1.00  0.00     0.167 HD
HETATM   26  N5  UNL     1      28.189   9.249  49.644  1.00  0.00    -0.226 NA
BRANCH  18  27
HETATM   27  N3  UNL     1      34.543   5.107  45.658  1.00  0.00    -0.246 NA
HETATM   28  C18 UNL     1      34.842   3.848  46.273  1.00  0.00     0.132 C 
HETATM   29  H22 UNL     1      34.279   4.984  44.636  1.00  0.00     0.145 HD
ENDBRANCH  18  27
ENDBRANCH   6   8
ENDBRANCH   5   6
ENDBRANCH   3   4
TORSDOF 4
ENDMDL
