MODEL 1
REMARK VINA RESULT:      -7.9      0.000      0.000
REMARK  6 active torsions:
REMARK  status: ('A' for Active; 'I' for Inactive)
REMARK    1  A    between atoms: S1_2  and  P1_4 
REMARK    2  A    between atoms: S1_2  and  N1_5 
REMARK    3  A    between atoms: N1_5  and  C2_6 
REMARK    4  A    between atoms: C10_15  and  N3_16 
REMARK    5  A    between atoms: N3_16  and  C11_17 
REMARK    6  A    between atoms: C17_24  and  N4_25 
ROOT
HETATM    1  C2  UNL     1      24.843   1.267  53.095  1.00  0.00     0.040 A 
HETATM    2  C3  UNL     1      24.285   2.130  52.182  1.00  0.00     0.033 A 
HETATM    3  C4  UNL     1      23.026   1.984  51.645  1.00  0.00     0.040 A 
HETATM    4  C5  UNL     1      22.241   0.916  52.026  1.00  0.00     0.080 A 
HETATM    5  C6  UNL     1      22.772   0.025  52.943  1.00  0.00    -0.005 A 
HETATM    6  C7  UNL     1      24.038   0.211  53.454  1.00  0.00     0.041 A 
HETATM    7  C8  UNL     1      22.197  -1.195  53.518  1.00  0.00     0.161 C 
HETATM    8  N2  UNL     1      20.783  -1.081  53.784  1.00  0.00    -0.384 N 
HETATM    9  C9  UNL     1      19.682  -0.509  53.092  1.00  0.00     0.080 C 
HETATM   10  C10 UNL     1      18.501  -0.991  53.449  1.00  0.00     0.117 C 
HETATM   11  C17 UNL     1      19.712   0.527  52.051  1.00  0.00     0.411 C 
HETATM   12  O2  UNL     1      20.978   0.777  51.484  1.00  0.00    -0.310 OA
HETATM   13  H11 UNL     1      20.483  -1.521  54.709  1.00  0.00     0.159 HD
ENDROOT
BRANCH  10  14
HETATM   14  N3  UNL     1      17.090  -1.000  53.310  1.00  0.00    -0.364 N 
HETATM   15  H13 UNL     1      16.648  -0.061  53.442  1.00  0.00     0.165 HD
BRANCH  14  16
HETATM   16  C11 UNL     1      16.511  -2.283  53.018  1.00  0.00     0.033 A 
HETATM   17  C12 UNL     1      17.337  -3.225  53.653  1.00  0.00     0.029 A 
HETATM   18  C13 UNL     1      17.042  -4.589  53.571  1.00  0.00     0.004 A 
HETATM   19  C14 UNL     1      15.936  -5.014  52.863  1.00  0.00     0.019 A 
HETATM   20  C15 UNL     1      15.151  -4.065  52.255  1.00  0.00     0.013 A 
HETATM   21 BR1  UNL     1      13.588  -4.498  51.236  1.00  0.00    -0.051 Br
HETATM   22  C16 UNL     1      15.408  -2.717  52.313  1.00  0.00     0.048 A 
ENDBRANCH  14  16
ENDBRANCH  10  14
BRANCH  11  23
HETATM   23  N4  UNL     1      18.768   0.217  50.987  1.00  0.00     0.113 N 
HETATM   24  H19 UNL     1      19.115  -0.450  50.284  1.00  0.00     0.316 HD
HETATM   25  H20 UNL     1      18.436   1.113  50.596  1.00  0.00     0.316 HD
ENDBRANCH  11  23
BRANCH   1  26
HETATM   26  N1  UNL     1      26.134   1.417  53.667  1.00  0.00    -0.314 N 
HETATM   27  H5  UNL     1      26.404   2.402  53.943  1.00  0.00     0.176 HD
BRANCH  26  28
HETATM   28  S1  UNL     1      27.323   0.209  53.977  1.00  0.00     0.045 S 
HETATM   29  C1  UNL     1      27.321  -1.030  52.710  1.00  0.00     0.141 C 
HETATM   30  O1  UNL     1      26.983  -0.441  55.318  1.00  0.00    -0.245 OA
BRANCH  28  31
HETATM   31  P1  UNL     1      29.039   1.030  54.210  1.00  0.00     0.016 P 
HETATM   32  H4  UNL     1      29.364   2.233  53.485  1.00  0.00     0.077 HD
ENDBRANCH  28  31
ENDBRANCH  26  28
ENDBRANCH   1  26
TORSDOF 6
ENDMDL
MODEL 2
REMARK VINA RESULT:      -7.7      6.607      8.748
REMARK  6 active torsions:
REMARK  status: ('A' for Active; 'I' for Inactive)
REMARK    1  A    between atoms: S1_2  and  P1_4 
REMARK    2  A    between atoms: S1_2  and  N1_5 
REMARK    3  A    between atoms: N1_5  and  C2_6 
REMARK    4  A    between atoms: C10_15  and  N3_16 
REMARK    5  A    between atoms: N3_16  and  C11_17 
REMARK    6  A    between atoms: C17_24  and  N4_25 
ROOT
HETATM    1  C2  UNL     1      28.390   7.485  47.740  1.00  0.00     0.040 A 
HETATM    2  C3  UNL     1      27.221   8.182  47.548  1.00  0.00     0.033 A 
HETATM    3  C4  UNL     1      25.971   7.708  47.876  1.00  0.00     0.040 A 
HETATM    4  C5  UNL     1      25.842   6.454  48.438  1.00  0.00     0.080 A 
HETATM    5  C6  UNL     1      27.000   5.723  48.644  1.00  0.00    -0.005 A 
HETATM    6  C7  UNL     1      28.230   6.239  48.300  1.00  0.00     0.041 A 
HETATM    7  C8  UNL     1      27.182   4.377  49.197  1.00  0.00     0.161 C 
HETATM    8  N2  UNL     1      26.280   4.088  50.286  1.00  0.00    -0.384 N 
HETATM    9  C9  UNL     1      24.906   4.350  50.539  1.00  0.00     0.080 C 
HETATM   10  C10 UNL     1      24.353   3.552  51.439  1.00  0.00     0.117 C 
HETATM   11  C17 UNL     1      24.058   5.381  49.924  1.00  0.00     0.411 C 
HETATM   12  O2  UNL     1      24.585   5.985  48.765  1.00  0.00    -0.310 OA
HETATM   13  H11 UNL     1      26.736   3.560  51.093  1.00  0.00     0.159 HD
ENDROOT
BRANCH  10  14
HETATM   14  N3  UNL     1      23.218   3.157  52.192  1.00  0.00    -0.364 N 
HETATM   15  H13 UNL     1      22.459   3.876  52.219  1.00  0.00     0.165 HD
BRANCH  14  16
HETATM   16  C11 UNL     1      23.301   1.849  52.785  1.00  0.00     0.033 A 
HETATM   17  C12 UNL     1      24.673   1.593  52.945  1.00  0.00     0.029 A 
HETATM   18  C13 UNL     1      25.102   0.390  53.513  1.00  0.00     0.004 A 
HETATM   19  C14 UNL     1      24.177  -0.552  53.916  1.00  0.00     0.019 A 
HETATM   20  C15 UNL     1      22.844  -0.267  53.743  1.00  0.00     0.013 A 
HETATM   21 BR1  UNL     1      21.444  -1.472  54.248  1.00  0.00    -0.051 Br
HETATM   22  C16 UNL     1      22.384   0.903  53.190  1.00  0.00     0.048 A 
ENDBRANCH  14  16
ENDBRANCH  10  14
BRANCH  11  23
HETATM   23  N4  UNL     1      22.737   4.848  49.622  1.00  0.00     0.113 N 
HETATM   24  H19 UNL     1      22.676   4.317  48.743  1.00  0.00     0.316 HD
HETATM   25  H20 UNL     1      22.064   5.628  49.694  1.00  0.00     0.316 HD
ENDBRANCH  11  23
BRANCH   1  26
HETATM   26  N1  UNL     1      29.685   7.972  47.421  1.00  0.00    -0.314 N 
HETATM   27  H5  UNL     1      29.988   7.848  46.415  1.00  0.00     0.176 HD
BRANCH  26  28
HETATM   28  S1  UNL     1      30.832   8.742  48.451  1.00  0.00     0.045 S 
HETATM   29  C1  UNL     1      31.691   7.557  49.450  1.00  0.00     0.141 C 
HETATM   30  O1  UNL     1      30.065   9.706  49.357  1.00  0.00    -0.245 OA
BRANCH  28  31
HETATM   31  P1  UNL     1      32.015   9.830  47.407  1.00  0.00     0.016 P 
HETATM   32  H4  UNL     1      32.284  11.189  47.807  1.00  0.00     0.077 HD
ENDBRANCH  28  31
ENDBRANCH  26  28
ENDBRANCH   1  26
TORSDOF 6
ENDMDL
MODEL 3
REMARK VINA RESULT:      -7.5      6.451      8.477
REMARK  6 active torsions:
REMARK  status: ('A' for Active; 'I' for Inactive)
REMARK    1  A    between atoms: S1_2  and  P1_4 
REMARK    2  A    between atoms: S1_2  and  N1_5 
REMARK    3  A    between atoms: N1_5  and  C2_6 
REMARK    4  A    between atoms: C10_15  and  N3_16 
REMARK    5  A    between atoms: N3_16  and  C11_17 
REMARK    6  A    between atoms: C17_24  and  N4_25 
ROOT
HETATM    1  C2  UNL     1      29.421   6.597  47.717  1.00  0.00     0.040 A 
HETATM    2  C3  UNL     1      28.588   7.660  47.464  1.00  0.00     0.033 A 
HETATM    3  C4  UNL     1      27.240   7.675  47.742  1.00  0.00     0.040 A 
HETATM    4  C5  UNL     1      26.649   6.568  48.315  1.00  0.00     0.080 A 
HETATM    5  C6  UNL     1      27.459   5.477  48.583  1.00  0.00    -0.005 A 
HETATM    6  C7  UNL     1      28.804   5.507  48.287  1.00  0.00     0.041 A 
HETATM    7  C8  UNL     1      27.125   4.171  49.162  1.00  0.00     0.161 C 
HETATM    8  N2  UNL     1      26.139   4.257  50.213  1.00  0.00    -0.384 N 
HETATM    9  C9  UNL     1      24.944   5.001  50.401  1.00  0.00     0.080 C 
HETATM   10  C10 UNL     1      24.108   4.480  51.286  1.00  0.00     0.117 C 
HETATM   11  C17 UNL     1      24.545   6.249  49.734  1.00  0.00     0.411 C 
HETATM   12  O2  UNL     1      25.297   6.590  48.592  1.00  0.00    -0.310 OA
HETATM   13  H11 UNL     1      26.345   3.624  51.047  1.00  0.00     0.159 HD
ENDROOT
BRANCH  10  14
HETATM   14  N3  UNL     1      22.880   4.540  51.993  1.00  0.00    -0.364 N 
HETATM   15  H13 UNL     1      22.558   5.514  52.198  1.00  0.00     0.165 HD
BRANCH  14  16
HETATM   16  C11 UNL     1      22.290   3.266  52.306  1.00  0.00     0.033 A 
HETATM   17  C12 UNL     1      20.908   3.432  52.117  1.00  0.00     0.029 A 
HETATM   18  C13 UNL     1      20.036   2.361  52.333  1.00  0.00     0.004 A 
HETATM   19  C14 UNL     1      20.530   1.137  52.734  1.00  0.00     0.019 A 
HETATM   20  C15 UNL     1      21.887   1.012  52.909  1.00  0.00     0.013 A 
HETATM   21 BR1  UNL     1      22.723  -0.619  53.465  1.00  0.00    -0.051 Br
HETATM   22  C16 UNL     1      22.776   2.039  52.708  1.00  0.00     0.048 A 
ENDBRANCH  14  16
ENDBRANCH  10  14
BRANCH  11  23
HETATM   23  N4  UNL     1      23.133   6.216  49.381  1.00  0.00     0.113 N 
HETATM   24  H19 UNL     1      22.932   5.852  48.440  1.00  0.00     0.316 HD
HETATM   25  H20 UNL     1      22.746   7.156  49.565  1.00  0.00     0.316 HD
ENDBRANCH  11  23
BRANCH   1  26
HETATM   26  N1  UNL     1      30.816   6.577  47.450  1.00  0.00    -0.314 N 
HETATM   27  H5  UNL     1      31.148   7.237  46.693  1.00  0.00     0.176 HD
BRANCH  26  28
HETATM   28  S1  UNL     1      32.044   5.626  48.195  1.00  0.00     0.045 S 
HETATM   29  C1  UNL     1      32.141   4.017  47.457  1.00  0.00     0.141 C 
HETATM   30  O1  UNL     1      31.683   5.483  49.674  1.00  0.00    -0.245 OA
BRANCH  28  31
HETATM   31  P1  UNL     1      33.713   6.567  48.148  1.00  0.00     0.016 P 
HETATM   32  H4  UNL     1      34.642   6.437  49.243  1.00  0.00     0.077 HD
ENDBRANCH  28  31
ENDBRANCH  26  28
ENDBRANCH   1  26
TORSDOF 6
ENDMDL
MODEL 4
REMARK VINA RESULT:      -7.4      2.780      3.710
REMARK  6 active torsions:
REMARK  status: ('A' for Active; 'I' for Inactive)
REMARK    1  A    between atoms: S1_2  and  P1_4 
REMARK    2  A    between atoms: S1_2  and  N1_5 
REMARK    3  A    between atoms: N1_5  and  C2_6 
REMARK    4  A    between atoms: C10_15  and  N3_16 
REMARK    5  A    between atoms: N3_16  and  C11_17 
REMARK    6  A    between atoms: C17_24  and  N4_25 
ROOT
HETATM    1  C2  UNL     1      23.865   0.382  53.458  1.00  0.00     0.040 A 
HETATM    2  C3  UNL     1      23.526  -0.849  53.969  1.00  0.00     0.033 A 
HETATM    3  C4  UNL     1      22.234  -1.297  54.124  1.00  0.00     0.040 A 
HETATM    4  C5  UNL     1      21.181  -0.486  53.753  1.00  0.00     0.080 A 
HETATM    5  C6  UNL     1      21.485   0.762  53.236  1.00  0.00    -0.005 A 
HETATM    6  C7  UNL     1      22.795   1.168  53.098  1.00  0.00     0.041 A 
HETATM    7  C8  UNL     1      20.600   1.836  52.776  1.00  0.00     0.161 C 
HETATM    8  N2  UNL     1      19.431   1.346  52.084  1.00  0.00    -0.384 N 
HETATM    9  C9  UNL     1      18.535   0.262  52.286  1.00  0.00     0.080 C 
HETATM   10  C10 UNL     1      17.357   0.410  51.700  1.00  0.00     0.117 C 
HETATM   11  C17 UNL     1      18.768  -0.968  53.056  1.00  0.00     0.411 C 
HETATM   12  O2  UNL     1      19.888  -0.943  53.911  1.00  0.00    -0.310 OA
HETATM   13  H11 UNL     1      19.172   1.918  51.222  1.00  0.00     0.159 HD
ENDROOT
BRANCH  10  14
HETATM   14  N3  UNL     1      16.062  -0.091  51.411  1.00  0.00    -0.364 N 
HETATM   15  H13 UNL     1      16.051  -0.830  50.670  1.00  0.00     0.165 HD
BRANCH  14  16
HETATM   16  C11 UNL     1      14.993   0.495  52.175  1.00  0.00     0.033 A 
HETATM   17  C12 UNL     1      14.950   1.845  51.790  1.00  0.00     0.029 A 
HETATM   18  C13 UNL     1      14.001   2.705  52.350  1.00  0.00     0.004 A 
HETATM   19  C14 UNL     1      13.104   2.229  53.285  1.00  0.00     0.019 A 
HETATM   20  C15 UNL     1      13.176   0.903  53.636  1.00  0.00     0.013 A 
HETATM   21 BR1  UNL     1      12.005   0.097  54.920  1.00  0.00    -0.051 Br
HETATM   22  C16 UNL     1      14.094   0.027  53.109  1.00  0.00     0.048 A 
ENDBRANCH  14  16
ENDBRANCH  10  14
BRANCH  11  23
HETATM   23  N4  UNL     1      17.587  -1.322  53.830  1.00  0.00     0.113 N 
HETATM   24  H19 UNL     1      17.522  -0.866  54.751  1.00  0.00     0.316 HD
HETATM   25  H20 UNL     1      17.534  -2.353  53.862  1.00  0.00     0.316 HD
ENDBRANCH  11  23
BRANCH   1  26
HETATM   26  N1  UNL     1      25.194   0.847  53.278  1.00  0.00    -0.314 N 
HETATM   27  H5  UNL     1      25.291   1.807  52.846  1.00  0.00     0.176 HD
BRANCH  26  28
HETATM   28  S1  UNL     1      26.675   0.059  53.673  1.00  0.00     0.045 S 
HETATM   29  C1  UNL     1      26.892  -1.414  52.712  1.00  0.00     0.141 C 
HETATM   30  O1  UNL     1      26.621  -0.310  55.156  1.00  0.00    -0.245 OA
BRANCH  28  31
HETATM   31  P1  UNL     1      28.134   1.288  53.489  1.00  0.00     0.016 P 
HETATM   32  H4  UNL     1      29.342   0.874  52.821  1.00  0.00     0.077 HD
ENDBRANCH  28  31
ENDBRANCH  26  28
ENDBRANCH   1  26
TORSDOF 6
ENDMDL
MODEL 5
REMARK VINA RESULT:      -7.3      7.792     10.235
REMARK  6 active torsions:
REMARK  status: ('A' for Active; 'I' for Inactive)
REMARK    1  A    between atoms: S1_2  and  P1_4 
REMARK    2  A    between atoms: S1_2  and  N1_5 
REMARK    3  A    between atoms: N1_5  and  C2_6 
REMARK    4  A    between atoms: C10_15  and  N3_16 
REMARK    5  A    between atoms: N3_16  and  C11_17 
REMARK    6  A    between atoms: C17_24  and  N4_25 
ROOT
HETATM    1  C2  UNL     1      28.821   8.898  48.930  1.00  0.00     0.040 A 
HETATM    2  C3  UNL     1      27.722   9.490  49.505  1.00  0.00     0.033 A 
HETATM    3  C4  UNL     1      26.541   8.839  49.776  1.00  0.00     0.040 A 
HETATM    4  C5  UNL     1      26.412   7.501  49.466  1.00  0.00     0.080 A 
HETATM    5  C6  UNL     1      27.499   6.871  48.883  1.00  0.00    -0.005 A 
HETATM    6  C7  UNL     1      28.663   7.564  48.630  1.00  0.00     0.041 A 
HETATM    7  C8  UNL     1      27.659   5.485  48.431  1.00  0.00     0.161 C 
HETATM    8  N2  UNL     1      27.012   4.531  49.300  1.00  0.00    -0.384 N 
HETATM    9  C9  UNL     1      25.773   4.496  49.995  1.00  0.00     0.080 C 
HETATM   10  C10 UNL     1      25.363   3.281  50.323  1.00  0.00     0.117 C 
HETATM   11  C17 UNL     1      24.921   5.632  50.375  1.00  0.00     0.411 C 
HETATM   12  O2  UNL     1      25.224   6.853  49.741  1.00  0.00    -0.310 OA
HETATM   13  H11 UNL     1      27.585   3.647  49.469  1.00  0.00     0.159 HD
ENDROOT
BRANCH  10  14
HETATM   14  N3  UNL     1      24.401   2.435  50.932  1.00  0.00    -0.364 N 
HETATM   15  H13 UNL     1      23.415   2.658  50.664  1.00  0.00     0.165 HD
BRANCH  14  16
HETATM   16  C11 UNL     1      24.937   1.427  51.807  1.00  0.00     0.033 A 
HETATM   17  C12 UNL     1      23.833   0.900  52.497  1.00  0.00     0.029 A 
HETATM   18  C13 UNL     1      24.012  -0.122  53.433  1.00  0.00     0.004 A 
HETATM   19  C14 UNL     1      25.276  -0.616  53.684  1.00  0.00     0.019 A 
HETATM   20  C15 UNL     1      26.331  -0.076  52.990  1.00  0.00     0.013 A 
HETATM   21 BR1  UNL     1      28.143  -0.652  53.229  1.00  0.00    -0.051 Br
HETATM   22  C16 UNL     1      26.197   0.929  52.063  1.00  0.00     0.048 A 
ENDBRANCH  14  16
ENDBRANCH  10  14
BRANCH  11  23
HETATM   23  N4  UNL     1      23.516   5.318  50.156  1.00  0.00     0.113 N 
HETATM   24  H19 UNL     1      23.020   4.960  50.984  1.00  0.00     0.316 HD
HETATM   25  H20 UNL     1      23.461   4.703  49.329  1.00  0.00     0.316 HD
ENDBRANCH  11  23
BRANCH   1  26
HETATM   26  N1  UNL     1      30.050   9.556  48.662  1.00  0.00    -0.314 N 
HETATM   27  H5  UNL     1      30.921   9.062  49.002  1.00  0.00     0.176 HD
BRANCH  26  28
HETATM   28  S1  UNL     1      30.316  11.054  47.851  1.00  0.00     0.045 S 
HETATM   29  C1  UNL     1      30.110  12.424  48.956  1.00  0.00     0.141 C 
HETATM   30  O1  UNL     1      29.291  11.157  46.722  1.00  0.00    -0.245 OA
BRANCH  28  31
HETATM   31  P1  UNL     1      32.035  11.036  47.002  1.00  0.00     0.016 P 
HETATM   32  H4  UNL     1      32.380  12.068  46.057  1.00  0.00     0.077 HD
ENDBRANCH  28  31
ENDBRANCH  26  28
ENDBRANCH   1  26
TORSDOF 6
ENDMDL
MODEL 6
REMARK VINA RESULT:      -7.2      3.233      4.246
REMARK  6 active torsions:
REMARK  status: ('A' for Active; 'I' for Inactive)
REMARK    1  A    between atoms: S1_2  and  P1_4 
REMARK    2  A    between atoms: S1_2  and  N1_5 
REMARK    3  A    between atoms: N1_5  and  C2_6 
REMARK    4  A    between atoms: C10_15  and  N3_16 
REMARK    5  A    between atoms: N3_16  and  C11_17 
REMARK    6  A    between atoms: C17_24  and  N4_25 
ROOT
HETATM    1  C2  UNL     1      24.785   3.187  50.598  1.00  0.00     0.040 A 
HETATM    2  C3  UNL     1      25.585   2.279  51.250  1.00  0.00     0.033 A 
HETATM    3  C4  UNL     1      25.139   1.397  52.209  1.00  0.00     0.040 A 
HETATM    4  C5  UNL     1      23.806   1.394  52.566  1.00  0.00     0.080 A 
HETATM    5  C6  UNL     1      22.971   2.298  51.931  1.00  0.00    -0.005 A 
HETATM    6  C7  UNL     1      23.462   3.161  50.977  1.00  0.00     0.041 A 
HETATM    7  C8  UNL     1      21.535   2.542  52.105  1.00  0.00     0.161 C 
HETATM    8  N2  UNL     1      20.782   1.332  52.335  1.00  0.00    -0.384 N 
HETATM    9  C9  UNL     1      20.997   0.153  53.098  1.00  0.00     0.080 C 
HETATM   10  C10 UNL     1      19.894  -0.517  53.393  1.00  0.00     0.117 C 
HETATM   11  C17 UNL     1      22.275  -0.384  53.585  1.00  0.00     0.411 C 
HETATM   12  O2  UNL     1      23.366   0.507  53.528  1.00  0.00    -0.310 OA
HETATM   13  H11 UNL     1      19.850   1.302  51.816  1.00  0.00     0.159 HD
ENDROOT
BRANCH  10  14
HETATM   14  N3  UNL     1      19.264  -1.626  54.013  1.00  0.00    -0.364 N 
HETATM   15  H13 UNL     1      19.813  -2.033  54.805  1.00  0.00     0.165 HD
BRANCH  14  16
HETATM   16  C11 UNL     1      17.992  -1.999  53.455  1.00  0.00     0.033 A 
HETATM   17  C12 UNL     1      17.793  -3.338  53.833  1.00  0.00     0.029 A 
HETATM   18  C13 UNL     1      16.627  -4.009  53.452  1.00  0.00     0.004 A 
HETATM   19  C14 UNL     1      15.669  -3.358  52.701  1.00  0.00     0.019 A 
HETATM   20  C15 UNL     1      15.899  -2.050  52.351  1.00  0.00     0.013 A 
HETATM   21 BR1  UNL     1      14.667  -1.016  51.310  1.00  0.00    -0.051 Br
HETATM   22  C16 UNL     1      17.030  -1.357  52.705  1.00  0.00     0.048 A 
ENDBRANCH  14  16
ENDBRANCH  10  14
BRANCH  11  23
HETATM   23  N4  UNL     1      22.140  -0.883  54.946  1.00  0.00     0.113 N 
HETATM   24  H19 UNL     1      21.747  -1.831  55.020  1.00  0.00     0.316 HD
HETATM   25  H20 UNL     1      21.632  -0.168  55.490  1.00  0.00     0.316 HD
ENDBRANCH  11  23
BRANCH   1  26
HETATM   26  N1  UNL     1      25.231   4.088  49.597  1.00  0.00    -0.314 N 
HETATM   27  H5  UNL     1      25.821   3.665  48.827  1.00  0.00     0.176 HD
BRANCH  26  28
HETATM   28  S1  UNL     1      24.938   5.781  49.461  1.00  0.00     0.045 S 
HETATM   29  C1  UNL     1      24.483   6.478  51.025  1.00  0.00     0.141 C 
HETATM   30  O1  UNL     1      23.791   5.973  48.469  1.00  0.00    -0.245 OA
BRANCH  28  31
HETATM   31  P1  UNL     1      26.461   6.643  48.678  1.00  0.00     0.016 P 
HETATM   32  H4  UNL     1      27.667   5.891  48.438  1.00  0.00     0.077 HD
ENDBRANCH  28  31
ENDBRANCH  26  28
ENDBRANCH   1  26
TORSDOF 6
ENDMDL
MODEL 7
REMARK VINA RESULT:      -7.2      3.138      3.935
REMARK  6 active torsions:
REMARK  status: ('A' for Active; 'I' for Inactive)
REMARK    1  A    between atoms: S1_2  and  P1_4 
REMARK    2  A    between atoms: S1_2  and  N1_5 
REMARK    3  A    between atoms: N1_5  and  C2_6 
REMARK    4  A    between atoms: C10_15  and  N3_16 
REMARK    5  A    between atoms: N3_16  and  C11_17 
REMARK    6  A    between atoms: C17_24  and  N4_25 
ROOT
HETATM    1  C2  UNL     1      24.215   1.151  52.956  1.00  0.00     0.040 A 
HETATM    2  C3  UNL     1      24.173   1.848  51.772  1.00  0.00     0.033 A 
HETATM    3  C4  UNL     1      23.096   1.860  50.914  1.00  0.00     0.040 A 
HETATM    4  C5  UNL     1      21.964   1.137  51.230  1.00  0.00     0.080 A 
HETATM    5  C6  UNL     1      21.971   0.421  52.415  1.00  0.00    -0.005 A 
HETATM    6  C7  UNL     1      23.073   0.439  53.242  1.00  0.00     0.041 A 
HETATM    7  C8  UNL     1      20.942  -0.441  53.005  1.00  0.00     0.161 C 
HETATM    8  N2  UNL     1      19.604   0.059  52.801  1.00  0.00    -0.384 N 
HETATM    9  C9  UNL     1      18.921   0.666  51.713  1.00  0.00     0.080 C 
HETATM   10  C10 UNL     1      17.602   0.579  51.777  1.00  0.00     0.117 C 
HETATM   11  C17 UNL     1      19.506   1.359  50.556  1.00  0.00     0.411 C 
HETATM   12  O2  UNL     1      20.888   1.155  50.365  1.00  0.00    -0.310 OA
HETATM   13  H11 UNL     1      18.973  -0.042  53.656  1.00  0.00     0.159 HD
ENDROOT
BRANCH  10  14
HETATM   14  N3  UNL     1      16.328   0.857  51.220  1.00  0.00    -0.364 N 
HETATM   15  H13 UNL     1      16.125   0.323  50.343  1.00  0.00     0.165 HD
BRANCH  14  16
HETATM   16  C11 UNL     1      15.538   1.817  51.944  1.00  0.00     0.033 A 
HETATM   17  C12 UNL     1      16.248   3.026  51.867  1.00  0.00     0.029 A 
HETATM   18  C13 UNL     1      15.739   4.180  52.471  1.00  0.00     0.004 A 
HETATM   19  C14 UNL     1      14.537   4.132  53.147  1.00  0.00     0.019 A 
HETATM   20  C15 UNL     1      13.871   2.932  53.202  1.00  0.00     0.013 A 
HETATM   21 BR1  UNL     1      12.197   2.706  54.105  1.00  0.00    -0.051 Br
HETATM   22  C16 UNL     1      14.338   1.778  52.622  1.00  0.00     0.048 A 
ENDBRANCH  14  16
ENDBRANCH  10  14
BRANCH  11  23
HETATM   23  N4  UNL     1      18.800   1.006  49.333  1.00  0.00     0.113 N 
HETATM   24  H19 UNL     1      18.932   1.666  48.554  1.00  0.00     0.316 HD
HETATM   25  H20 UNL     1      17.814   0.834  49.583  1.00  0.00     0.316 HD
ENDBRANCH  11  23
BRANCH   1  26
HETATM   26  N1  UNL     1      25.313   1.145  53.855  1.00  0.00    -0.314 N 
HETATM   27  H5  UNL     1      25.173   1.682  54.755  1.00  0.00     0.176 HD
BRANCH  26  28
HETATM   28  S1  UNL     1      26.846   0.377  53.680  1.00  0.00     0.045 S 
HETATM   29  C1  UNL     1      26.808  -0.838  52.391  1.00  0.00     0.141 C 
HETATM   30  O1  UNL     1      27.174  -0.306  55.008  1.00  0.00    -0.245 OA
BRANCH  28  31
HETATM   31  P1  UNL     1      28.209   1.698  53.417  1.00  0.00     0.016 P 
HETATM   32  H4  UNL     1      27.881   2.952  52.786  1.00  0.00     0.077 HD
ENDBRANCH  28  31
ENDBRANCH  26  28
ENDBRANCH   1  26
TORSDOF 6
ENDMDL
MODEL 8
REMARK VINA RESULT:      -7.0      7.749     12.486
REMARK  6 active torsions:
REMARK  status: ('A' for Active; 'I' for Inactive)
REMARK    1  A    between atoms: S1_2  and  P1_4 
REMARK    2  A    between atoms: S1_2  and  N1_5 
REMARK    3  A    between atoms: N1_5  and  C2_6 
REMARK    4  A    between atoms: C10_15  and  N3_16 
REMARK    5  A    between atoms: N3_16  and  C11_17 
REMARK    6  A    between atoms: C17_24  and  N4_25 
ROOT
HETATM    1  C2  UNL     1      22.378   3.331  50.518  1.00  0.00     0.040 A 
HETATM    2  C3  UNL     1      22.113   4.679  50.489  1.00  0.00     0.033 A 
HETATM    3  C4  UNL     1      23.073   5.656  50.343  1.00  0.00     0.040 A 
HETATM    4  C5  UNL     1      24.398   5.297  50.213  1.00  0.00     0.080 A 
HETATM    5  C6  UNL     1      24.701   3.946  50.240  1.00  0.00    -0.005 A 
HETATM    6  C7  UNL     1      23.708   3.004  50.388  1.00  0.00     0.041 A 
HETATM    7  C8  UNL     1      25.997   3.266  50.146  1.00  0.00     0.161 C 
HETATM    8  N2  UNL     1      26.900   3.901  49.216  1.00  0.00    -0.384 N 
HETATM    9  C9  UNL     1      27.228   5.249  48.907  1.00  0.00     0.080 C 
HETATM   10  C10 UNL     1      28.402   5.405  48.316  1.00  0.00     0.117 C 
HETATM   11  C17 UNL     1      26.427   6.453  49.168  1.00  0.00     0.411 C 
HETATM   12  O2  UNL     1      25.355   6.282  50.067  1.00  0.00    -0.310 OA
HETATM   13  H11 UNL     1      27.453   3.213  48.616  1.00  0.00     0.159 HD
ENDROOT
BRANCH  10  14
HETATM   14  N3  UNL     1      29.380   6.257  47.741  1.00  0.00    -0.364 N 
HETATM   15  H13 UNL     1      28.979   7.098  47.265  1.00  0.00     0.165 HD
BRANCH  14  16
HETATM   16  C11 UNL     1      30.742   5.826  47.906  1.00  0.00     0.033 A 
HETATM   17  C12 UNL     1      31.399   6.888  48.548  1.00  0.00     0.029 A 
HETATM   18  C13 UNL     1      32.757   6.784  48.867  1.00  0.00     0.004 A 
HETATM   19  C14 UNL     1      33.455   5.637  48.549  1.00  0.00     0.019 A 
HETATM   20  C15 UNL     1      32.779   4.620  47.921  1.00  0.00     0.013 A 
HETATM   21 BR1  UNL     1      33.610   2.970  47.413  1.00  0.00    -0.051 Br
HETATM   22  C16 UNL     1      31.447   4.684  47.591  1.00  0.00     0.048 A 
ENDBRANCH  14  16
ENDBRANCH  10  14
BRANCH  11  23
HETATM   23  N4  UNL     1      27.271   7.542  49.638  1.00  0.00     0.113 N 
HETATM   24  H19 UNL     1      27.423   8.296  48.954  1.00  0.00     0.316 HD
HETATM   25  H20 UNL     1      28.139   7.124  50.009  1.00  0.00     0.316 HD
ENDBRANCH  11  23
BRANCH   1  26
HETATM   26  N1  UNL     1      21.395   2.315  50.651  1.00  0.00    -0.314 N 
HETATM   27  H5  UNL     1      21.622   1.391  50.189  1.00  0.00     0.176 HD
BRANCH  26  28
HETATM   28  S1  UNL     1      19.879   2.381  51.469  1.00  0.00     0.045 S 
HETATM   29  C1  UNL     1      18.715   3.377  50.578  1.00  0.00     0.141 C 
HETATM   30  O1  UNL     1      20.124   3.000  52.845  1.00  0.00    -0.245 OA
BRANCH  28  31
HETATM   31  P1  UNL     1      19.240   0.604  51.797  1.00  0.00     0.016 P 
HETATM   32  H4  UNL     1      20.057  -0.329  52.531  1.00  0.00     0.077 HD
ENDBRANCH  28  31
ENDBRANCH  26  28
ENDBRANCH   1  26
TORSDOF 6
ENDMDL
MODEL 9
REMARK VINA RESULT:      -6.9      5.959      7.360
REMARK  6 active torsions:
REMARK  status: ('A' for Active; 'I' for Inactive)
REMARK    1  A    between atoms: S1_2  and  P1_4 
REMARK    2  A    between atoms: S1_2  and  N1_5 
REMARK    3  A    between atoms: N1_5  and  C2_6 
REMARK    4  A    between atoms: C10_15  and  N3_16 
REMARK    5  A    between atoms: N3_16  and  C11_17 
REMARK    6  A    between atoms: C17_24  and  N4_25 
ROOT
HETATM    1  C2  UNL     1      26.360   7.088  49.220  1.00  0.00     0.040 A 
HETATM    2  C3  UNL     1      25.242   7.647  48.649  1.00  0.00     0.033 A 
HETATM    3  C4  UNL     1      24.121   6.937  48.281  1.00  0.00     0.040 A 
HETATM    4  C5  UNL     1      24.079   5.574  48.484  1.00  0.00     0.080 A 
HETATM    5  C6  UNL     1      25.189   4.977  49.056  1.00  0.00    -0.005 A 
HETATM    6  C7  UNL     1      26.289   5.727  49.408  1.00  0.00     0.041 A 
HETATM    7  C8  UNL     1      25.447   3.569  49.375  1.00  0.00     0.161 C 
HETATM    8  N2  UNL     1      24.277   2.878  49.862  1.00  0.00    -0.384 N 
HETATM    9  C9  UNL     1      22.901   2.875  49.507  1.00  0.00     0.080 C 
HETATM   10  C10 UNL     1      22.238   1.797  49.894  1.00  0.00     0.117 C 
HETATM   11  C17 UNL     1      22.158   3.909  48.773  1.00  0.00     0.411 C 
HETATM   12  O2  UNL     1      22.950   4.869  48.112  1.00  0.00    -0.310 OA
HETATM   13  H11 UNL     1      24.475   2.218  50.676  1.00  0.00     0.159 HD
ENDROOT
BRANCH  10  14
HETATM   14  N3  UNL     1      21.026   1.064  49.964  1.00  0.00    -0.364 N 
HETATM   15  H13 UNL     1      20.484   1.059  49.068  1.00  0.00     0.165 HD
BRANCH  14  16
HETATM   16  C11 UNL     1      20.747   0.458  51.238  1.00  0.00     0.033 A 
HETATM   17  C12 UNL     1      19.353   0.290  51.280  1.00  0.00     0.029 A 
HETATM   18  C13 UNL     1      18.749  -0.291  52.399  1.00  0.00     0.004 A 
HETATM   19  C14 UNL     1      19.521  -0.699  53.467  1.00  0.00     0.019 A 
HETATM   20  C15 UNL     1      20.881  -0.519  53.390  1.00  0.00     0.013 A 
HETATM   21 BR1  UNL     1      22.083  -1.030  54.791  1.00  0.00    -0.051 Br
HETATM   22  C16 UNL     1      21.512   0.048  52.309  1.00  0.00     0.048 A 
ENDBRANCH  14  16
ENDBRANCH  10  14
BRANCH  11  23
HETATM   23  N4  UNL     1      21.245   3.305  47.813  1.00  0.00     0.113 N 
HETATM   24  H19 UNL     1      20.626   2.581  48.204  1.00  0.00     0.316 HD
HETATM   25  H20 UNL     1      21.806   2.993  47.005  1.00  0.00     0.316 HD
ENDBRANCH  11  23
BRANCH   1  26
HETATM   26  N1  UNL     1      27.515   7.812  49.619  1.00  0.00    -0.314 N 
HETATM   27  H5  UNL     1      28.064   7.397  50.422  1.00  0.00     0.176 HD
BRANCH  26  28
HETATM   28  S1  UNL     1      28.146   9.278  48.968  1.00  0.00     0.045 S 
HETATM   29  C1  UNL     1      29.791   9.580  49.554  1.00  0.00     0.141 C 
HETATM   30  O1  UNL     1      27.232  10.416  49.421  1.00  0.00    -0.245 OA
BRANCH  28  31
HETATM   31  P1  UNL     1      28.034   9.240  47.055  1.00  0.00     0.016 P 
HETATM   32  H4  UNL     1      26.774   8.956  46.415  1.00  0.00     0.077 HD
ENDBRANCH  28  31
ENDBRANCH  26  28
ENDBRANCH   1  26
TORSDOF 6
ENDMDL
