MODEL 1
REMARK VINA RESULT:      -7.6      0.000      0.000
REMARK  9 active torsions:
REMARK  status: ('A' for Active; 'I' for Inactive)
REMARK    1  A    between atoms: C3_3  and  C4_4 
REMARK    2  A    between atoms: C3_3  and  C17_24 
REMARK    3  A    between atoms: C4_4  and  N1_5 
REMARK    4  A    between atoms: N1_5  and  C6_7 
REMARK    5  A    between atoms: C6_7  and  C7_8 
REMARK    6  A    between atoms: C7_8  and  C8_9 
REMARK    7  A    between atoms: C9_11  and  C10_12 
REMARK    8  A    between atoms: C10_12  and  O1_13 
REMARK    9  A    between atoms: O1_13  and  C11_14 
ROOT
HETATM    1  C8  UNL     1      23.473   3.436  52.624  1.00  0.00     0.174 A 
HETATM    2  N2  UNL     1      24.648   2.818  52.911  1.00  0.00    -0.206 NA
HETATM    3  C9  UNL     1      24.411   1.504  53.071  1.00  0.00     0.180 A 
HETATM    4  N3  UNL     1      23.093   1.325  52.883  1.00  0.00    -0.109 NA
HETATM    5  O2  UNL     1      22.569   2.475  52.623  1.00  0.00    -0.196 OA
ENDROOT
BRANCH   1   6
HETATM    6  C7  UNL     1      23.325   4.895  52.380  1.00  0.00     0.108 C 
BRANCH   6   7
HETATM    7  C6  UNL     1      22.933   5.091  50.933  1.00  0.00     0.124 C 
BRANCH   7   8
HETATM    8  N1  UNL     1      23.835   5.878  50.190  1.00  0.00    -0.412 N 
HETATM    9  C5  UNL     1      24.599   6.861  50.856  1.00  0.00     0.143 C 
BRANCH   8  10
HETATM   10  C4  UNL     1      24.311   5.382  48.952  1.00  0.00     0.159 C 
BRANCH  10  11
HETATM   11  C3  UNL     1      25.790   5.269  49.001  1.00  0.00     0.039 C 
HETATM   12  C2  UNL     1      26.851   6.049  48.760  1.00  0.00    -0.018 C 
HETATM   13  C1  UNL     1      27.377   7.350  48.348  1.00  0.00     0.036 C 
BRANCH  11  14
HETATM   14  C17 UNL     1      26.011   3.867  49.462  1.00  0.00     0.415 C 
HETATM   15  F1  UNL     1      27.141   3.390  48.839  1.00  0.00    -0.166 F 
HETATM   16  F2  UNL     1      24.938   3.048  49.301  1.00  0.00    -0.166 F 
HETATM   17  F3  UNL     1      26.292   3.949  50.810  1.00  0.00    -0.166 F 
ENDBRANCH  11  14
ENDBRANCH  10  11
ENDBRANCH   8  10
ENDBRANCH   7   8
ENDBRANCH   6   7
ENDBRANCH   1   6
BRANCH   3  18
HETATM   18  C10 UNL     1      25.307   0.373  53.387  1.00  0.00     0.258 C 
BRANCH  18  19
HETATM   19  O1  UNL     1      26.414   0.437  52.508  1.00  0.00    -0.340 OA
BRANCH  19  20
HETATM   20  C11 UNL     1      27.593  -0.177  52.907  1.00  0.00     0.112 A 
HETATM   21  C12 UNL     1      28.474   0.761  53.418  1.00  0.00     0.069 A 
HETATM   22 CL1  UNL     1      28.175   2.500  53.560  1.00  0.00    -0.081 Cl
HETATM   23  C13 UNL     1      29.730   0.387  53.885  1.00  0.00     0.027 A 
HETATM   24  C14 UNL     1      30.105  -0.935  53.839  1.00  0.00     0.003 A 
HETATM   25  C15 UNL     1      29.219  -1.863  53.327  1.00  0.00     0.027 A 
HETATM   26  C16 UNL     1      27.984  -1.491  52.868  1.00  0.00     0.069 A 
HETATM   27 CL2  UNL     1      26.765  -2.562  52.197  1.00  0.00    -0.081 Cl
ENDBRANCH  19  20
ENDBRANCH  18  19
ENDBRANCH   3  18
TORSDOF 9
ENDMDL
MODEL 2
REMARK VINA RESULT:      -7.5      4.602      7.541
REMARK  9 active torsions:
REMARK  status: ('A' for Active; 'I' for Inactive)
REMARK    1  A    between atoms: C3_3  and  C4_4 
REMARK    2  A    between atoms: C3_3  and  C17_24 
REMARK    3  A    between atoms: C4_4  and  N1_5 
REMARK    4  A    between atoms: N1_5  and  C6_7 
REMARK    5  A    between atoms: C6_7  and  C7_8 
REMARK    6  A    between atoms: C7_8  and  C8_9 
REMARK    7  A    between atoms: C9_11  and  C10_12 
REMARK    8  A    between atoms: C10_12  and  O1_13 
REMARK    9  A    between atoms: O1_13  and  C11_14 
ROOT
HETATM    1  C8  UNL     1      26.553   4.307  49.368  1.00  0.00     0.174 A 
HETATM    2  N2  UNL     1      27.844   4.211  48.957  1.00  0.00    -0.206 NA
HETATM    3  C9  UNL     1      28.223   5.402  48.462  1.00  0.00     0.180 A 
HETATM    4  N3  UNL     1      27.163   6.220  48.572  1.00  0.00    -0.109 NA
HETATM    5  O2  UNL     1      26.198   5.550  49.106  1.00  0.00    -0.196 OA
ENDROOT
BRANCH   1   6
HETATM    6  C7  UNL     1      25.776   3.193  49.974  1.00  0.00     0.108 C 
BRANCH   6   7
HETATM    7  C6  UNL     1      26.617   2.574  51.066  1.00  0.00     0.124 C 
BRANCH   7   8
HETATM    8  N1  UNL     1      25.896   2.222  52.225  1.00  0.00    -0.412 N 
HETATM    9  C5  UNL     1      24.626   1.619  52.086  1.00  0.00     0.143 C 
BRANCH   8  10
HETATM   10  C4  UNL     1      26.603   2.025  53.435  1.00  0.00     0.159 C 
BRANCH  10  11
HETATM   11  C3  UNL     1      27.500   0.851  53.297  1.00  0.00     0.039 C 
HETATM   12  C2  UNL     1      27.408  -0.423  52.898  1.00  0.00    -0.018 C 
HETATM   13  C1  UNL     1      26.582  -1.513  52.380  1.00  0.00     0.036 C 
BRANCH  11  14
HETATM   14  C17 UNL     1      28.821   1.374  53.753  1.00  0.00     0.415 C 
HETATM   15  F1  UNL     1      28.789   2.746  53.656  1.00  0.00    -0.166 F 
HETATM   16  F2  UNL     1      29.891   0.828  53.118  1.00  0.00    -0.166 F 
HETATM   17  F3  UNL     1      28.912   1.062  55.094  1.00  0.00    -0.166 F 
ENDBRANCH  11  14
ENDBRANCH  10  11
ENDBRANCH   8  10
ENDBRANCH   7   8
ENDBRANCH   6   7
ENDBRANCH   1   6
BRANCH   3  18
HETATM   18  C10 UNL     1      29.502   5.867  47.885  1.00  0.00     0.258 C 
BRANCH  18  19
HETATM   19  O1  UNL     1      30.550   5.186  48.548  1.00  0.00    -0.340 OA
BRANCH  19  20
HETATM   20  C11 UNL     1      31.853   5.566  48.259  1.00  0.00     0.112 A 
HETATM   21  C12 UNL     1      32.435   4.660  47.389  1.00  0.00     0.069 A 
HETATM   22 CL1  UNL     1      31.662   3.215  46.721  1.00  0.00    -0.081 Cl
HETATM   23  C13 UNL     1      33.745   4.826  46.950  1.00  0.00     0.027 A 
HETATM   24  C14 UNL     1      34.475   5.907  47.385  1.00  0.00     0.003 A 
HETATM   25  C15 UNL     1      33.885   6.805  48.254  1.00  0.00     0.027 A 
HETATM   26  C16 UNL     1      32.597   6.638  48.683  1.00  0.00     0.069 A 
HETATM   27 CL2  UNL     1      31.726   7.699  49.779  1.00  0.00    -0.081 Cl
ENDBRANCH  19  20
ENDBRANCH  18  19
ENDBRANCH   3  18
TORSDOF 9
ENDMDL
MODEL 3
REMARK VINA RESULT:      -7.5      1.715      2.318
REMARK  9 active torsions:
REMARK  status: ('A' for Active; 'I' for Inactive)
REMARK    1  A    between atoms: C3_3  and  C4_4 
REMARK    2  A    between atoms: C3_3  and  C17_24 
REMARK    3  A    between atoms: C4_4  and  N1_5 
REMARK    4  A    between atoms: N1_5  and  C6_7 
REMARK    5  A    between atoms: C6_7  and  C7_8 
REMARK    6  A    between atoms: C7_8  and  C8_9 
REMARK    7  A    between atoms: C9_11  and  C10_12 
REMARK    8  A    between atoms: C10_12  and  O1_13 
REMARK    9  A    between atoms: O1_13  and  C11_14 
ROOT
HETATM    1  C8  UNL     1      22.842   2.969  51.986  1.00  0.00     0.174 A 
HETATM    2  N2  UNL     1      23.359   1.720  52.113  1.00  0.00    -0.206 NA
HETATM    3  C9  UNL     1      24.428   1.781  52.926  1.00  0.00     0.180 A 
HETATM    4  N3  UNL     1      24.561   3.067  53.292  1.00  0.00    -0.109 NA
HETATM    5  O2  UNL     1      23.617   3.740  52.725  1.00  0.00    -0.196 OA
ENDROOT
BRANCH   1   6
HETATM    6  C7  UNL     1      21.651   3.310  51.164  1.00  0.00     0.108 C 
BRANCH   6   7
HETATM    7  C6  UNL     1      21.970   4.557  50.371  1.00  0.00     0.124 C 
BRANCH   7   8
HETATM    8  N1  UNL     1      22.793   4.336  49.249  1.00  0.00    -0.412 N 
HETATM    9  C5  UNL     1      22.417   3.355  48.304  1.00  0.00     0.143 C 
BRANCH   8  10
HETATM   10  C4  UNL     1      23.670   5.367  48.834  1.00  0.00     0.159 C 
BRANCH  10  11
HETATM   11  C3  UNL     1      24.896   5.339  49.670  1.00  0.00     0.039 C 
HETATM   12  C2  UNL     1      25.843   4.457  50.008  1.00  0.00    -0.018 C 
HETATM   13  C1  UNL     1      26.386   3.104  49.898  1.00  0.00     0.036 C 
BRANCH  11  14
HETATM   14  C17 UNL     1      24.973   6.729  50.209  1.00  0.00     0.415 C 
HETATM   15  F1  UNL     1      24.233   7.544  49.383  1.00  0.00    -0.166 F 
HETATM   16  F2  UNL     1      26.238   7.187  50.401  1.00  0.00    -0.166 F 
HETATM   17  F3  UNL     1      24.335   6.700  51.432  1.00  0.00    -0.166 F 
ENDBRANCH  11  14
ENDBRANCH  10  11
ENDBRANCH   8  10
ENDBRANCH   7   8
ENDBRANCH   6   7
ENDBRANCH   1   6
BRANCH   3  18
HETATM   18  C10 UNL     1      25.360   0.741  53.410  1.00  0.00     0.258 C 
BRANCH  18  19
HETATM   19  O1  UNL     1      26.417   0.639  52.475  1.00  0.00    -0.340 OA
BRANCH  19  20
HETATM   20  C11 UNL     1      27.563  -0.040  52.867  1.00  0.00     0.112 A 
HETATM   21  C12 UNL     1      28.496   0.847  53.377  1.00  0.00     0.069 A 
HETATM   22 CL1  UNL     1      28.293   2.599  53.524  1.00  0.00    -0.081 Cl
HETATM   23  C13 UNL     1      29.732   0.403  53.838  1.00  0.00     0.027 A 
HETATM   24  C14 UNL     1      30.034  -0.937  53.787  1.00  0.00     0.003 A 
HETATM   25  C15 UNL     1      29.096  -1.814  53.277  1.00  0.00     0.027 A 
HETATM   26  C16 UNL     1      27.882  -1.374  52.825  1.00  0.00     0.069 A 
HETATM   27 CL2  UNL     1      26.602  -2.374  52.157  1.00  0.00    -0.081 Cl
ENDBRANCH  19  20
ENDBRANCH  18  19
ENDBRANCH   3  18
TORSDOF 9
ENDMDL
MODEL 4
REMARK VINA RESULT:      -7.4      4.818      7.392
REMARK  9 active torsions:
REMARK  status: ('A' for Active; 'I' for Inactive)
REMARK    1  A    between atoms: C3_3  and  C4_4 
REMARK    2  A    between atoms: C3_3  and  C17_24 
REMARK    3  A    between atoms: C4_4  and  N1_5 
REMARK    4  A    between atoms: N1_5  and  C6_7 
REMARK    5  A    between atoms: C6_7  and  C7_8 
REMARK    6  A    between atoms: C7_8  and  C8_9 
REMARK    7  A    between atoms: C9_11  and  C10_12 
REMARK    8  A    between atoms: C10_12  and  O1_13 
REMARK    9  A    between atoms: O1_13  and  C11_14 
ROOT
HETATM    1  C8  UNL     1      26.532   4.811  49.073  1.00  0.00     0.174 A 
HETATM    2  N2  UNL     1      27.838   4.568  48.789  1.00  0.00    -0.206 NA
HETATM    3  C9  UNL     1      28.376   5.684  48.267  1.00  0.00     0.180 A 
HETATM    4  N3  UNL     1      27.397   6.604  48.233  1.00  0.00    -0.109 NA
HETATM    5  O2  UNL     1      26.328   6.064  48.711  1.00  0.00    -0.196 OA
ENDROOT
BRANCH   1   6
HETATM    6  C7  UNL     1      25.598   3.817  49.664  1.00  0.00     0.108 C 
BRANCH   6   7
HETATM    7  C6  UNL     1      26.399   2.889  50.548  1.00  0.00     0.124 C 
BRANCH   7   8
HETATM    8  N1  UNL     1      25.678   2.361  51.638  1.00  0.00    -0.412 N 
HETATM    9  C5  UNL     1      24.521   3.035  52.087  1.00  0.00     0.143 C 
BRANCH   8  10
HETATM   10  C4  UNL     1      25.815   0.985  51.942  1.00  0.00     0.159 C 
BRANCH  10  11
HETATM   11  C3  UNL     1      26.645   0.830  53.163  1.00  0.00     0.039 C 
HETATM   12  C2  UNL     1      27.704   1.426  53.722  1.00  0.00    -0.018 C 
HETATM   13  C1  UNL     1      28.722   2.474  53.664  1.00  0.00     0.036 C 
BRANCH  11  14
HETATM   14  C17 UNL     1      26.014  -0.330  53.860  1.00  0.00     0.415 C 
HETATM   15  F1  UNL     1      26.310  -0.230  55.200  1.00  0.00    -0.166 F 
HETATM   16  F2  UNL     1      26.339  -1.542  53.339  1.00  0.00    -0.166 F 
HETATM   17  F3  UNL     1      24.651  -0.157  53.730  1.00  0.00    -0.166 F 
ENDBRANCH  11  14
ENDBRANCH  10  11
ENDBRANCH   8  10
ENDBRANCH   7   8
ENDBRANCH   6   7
ENDBRANCH   1   6
BRANCH   3  18
HETATM   18  C10 UNL     1      29.740   5.989  47.786  1.00  0.00     0.258 C 
BRANCH  18  19
HETATM   19  O1  UNL     1      30.637   5.120  48.450  1.00  0.00    -0.340 OA
BRANCH  19  20
HETATM   20  C11 UNL     1      31.997   5.367  48.314  1.00  0.00     0.112 A 
HETATM   21  C12 UNL     1      32.574   4.426  47.478  1.00  0.00     0.069 A 
HETATM   22 CL1  UNL     1      31.734   3.089  46.679  1.00  0.00    -0.081 Cl
HETATM   23  C13 UNL     1      33.934   4.464  47.186  1.00  0.00     0.027 A 
HETATM   24  C14 UNL     1      34.719   5.450  47.736  1.00  0.00     0.003 A 
HETATM   25  C15 UNL     1      34.133   6.383  48.569  1.00  0.00     0.027 A 
HETATM   26  C16 UNL     1      32.795   6.343  48.854  1.00  0.00     0.069 A 
HETATM   27 CL2  UNL     1      31.924   7.462  49.890  1.00  0.00    -0.081 Cl
ENDBRANCH  19  20
ENDBRANCH  18  19
ENDBRANCH   3  18
TORSDOF 9
ENDMDL
MODEL 5
REMARK VINA RESULT:      -7.4      4.840      7.234
REMARK  9 active torsions:
REMARK  status: ('A' for Active; 'I' for Inactive)
REMARK    1  A    between atoms: C3_3  and  C4_4 
REMARK    2  A    between atoms: C3_3  and  C17_24 
REMARK    3  A    between atoms: C4_4  and  N1_5 
REMARK    4  A    between atoms: N1_5  and  C6_7 
REMARK    5  A    between atoms: C6_7  and  C7_8 
REMARK    6  A    between atoms: C7_8  and  C8_9 
REMARK    7  A    between atoms: C9_11  and  C10_12 
REMARK    8  A    between atoms: C10_12  and  O1_13 
REMARK    9  A    between atoms: O1_13  and  C11_14 
ROOT
HETATM    1  C8  UNL     1      26.586   4.863  49.079  1.00  0.00     0.174 A 
HETATM    2  N2  UNL     1      27.862   4.549  48.736  1.00  0.00    -0.206 NA
HETATM    3  C9  UNL     1      28.458   5.653  48.252  1.00  0.00     0.180 A 
HETATM    4  N3  UNL     1      27.543   6.637  48.301  1.00  0.00    -0.109 NA
HETATM    5  O2  UNL     1      26.456   6.143  48.790  1.00  0.00    -0.196 OA
ENDROOT
BRANCH   1   6
HETATM    6  C7  UNL     1      25.607   3.902  49.652  1.00  0.00     0.108 C 
BRANCH   6   7
HETATM    7  C6  UNL     1      26.370   2.886  50.471  1.00  0.00     0.124 C 
BRANCH   7   8
HETATM    8  N1  UNL     1      25.656   2.374  51.572  1.00  0.00    -0.412 N 
HETATM    9  C5  UNL     1      24.480   3.032  51.995  1.00  0.00     0.143 C 
BRANCH   8  10
HETATM   10  C4  UNL     1      25.823   1.011  51.919  1.00  0.00     0.159 C 
BRANCH  10  11
HETATM   11  C3  UNL     1      26.573   0.915  53.196  1.00  0.00     0.039 C 
HETATM   12  C2  UNL     1      27.636   1.495  53.765  1.00  0.00    -0.018 C 
HETATM   13  C1  UNL     1      28.722   2.471  53.679  1.00  0.00     0.036 C 
BRANCH  11  14
HETATM   14  C17 UNL     1      25.832  -0.139  53.949  1.00  0.00     0.415 C 
HETATM   15  F1  UNL     1      24.488   0.138  53.851  1.00  0.00    -0.166 F 
HETATM   16  F2  UNL     1      26.241  -0.303  55.234  1.00  0.00    -0.166 F 
HETATM   17  F3  UNL     1      26.056  -1.320  53.272  1.00  0.00    -0.166 F 
ENDBRANCH  11  14
ENDBRANCH  10  11
ENDBRANCH   8  10
ENDBRANCH   7   8
ENDBRANCH   6   7
ENDBRANCH   1   6
BRANCH   3  18
HETATM   18  C10 UNL     1      29.822   5.893  47.739  1.00  0.00     0.258 C 
BRANCH  18  19
HETATM   19  O1  UNL     1      30.720   5.129  48.522  1.00  0.00    -0.340 OA
BRANCH  19  20
HETATM   20  C11 UNL     1      32.067   5.171  48.188  1.00  0.00     0.112 A 
HETATM   21  C12 UNL     1      32.678   6.254  48.796  1.00  0.00     0.069 A 
HETATM   22 CL1  UNL     1      31.891   7.435  49.853  1.00  0.00    -0.081 Cl
HETATM   23  C13 UNL     1      34.034   6.509  48.612  1.00  0.00     0.027 A 
HETATM   24  C14 UNL     1      34.780   5.674  47.814  1.00  0.00     0.003 A 
HETATM   25  C15 UNL     1      34.159   4.597  47.211  1.00  0.00     0.027 A 
HETATM   26  C16 UNL     1      32.827   4.348  47.394  1.00  0.00     0.069 A 
HETATM   27 CL2  UNL     1      31.916   3.020  46.694  1.00  0.00    -0.081 Cl
ENDBRANCH  19  20
ENDBRANCH  18  19
ENDBRANCH   3  18
TORSDOF 9
ENDMDL
MODEL 6
REMARK VINA RESULT:      -7.3      2.688      6.874
REMARK  9 active torsions:
REMARK  status: ('A' for Active; 'I' for Inactive)
REMARK    1  A    between atoms: C3_3  and  C4_4 
REMARK    2  A    between atoms: C3_3  and  C17_24 
REMARK    3  A    between atoms: C4_4  and  N1_5 
REMARK    4  A    between atoms: N1_5  and  C6_7 
REMARK    5  A    between atoms: C6_7  and  C7_8 
REMARK    6  A    between atoms: C7_8  and  C8_9 
REMARK    7  A    between atoms: C9_11  and  C10_12 
REMARK    8  A    between atoms: C10_12  and  O1_13 
REMARK    9  A    between atoms: O1_13  and  C11_14 
ROOT
HETATM    1  C8  UNL     1      24.051   1.934  52.225  1.00  0.00     0.174 A 
HETATM    2  N2  UNL     1      23.826   2.611  51.070  1.00  0.00    -0.206 NA
HETATM    3  C9  UNL     1      23.703   3.919  51.359  1.00  0.00     0.180 A 
HETATM    4  N3  UNL     1      23.853   4.035  52.690  1.00  0.00    -0.109 NA
HETATM    5  O2  UNL     1      24.055   2.854  53.170  1.00  0.00    -0.196 OA
ENDROOT
BRANCH   1   6
HETATM    6  C7  UNL     1      24.239   0.462  52.317  1.00  0.00     0.108 C 
BRANCH   6   7
HETATM    7  C6  UNL     1      24.613   0.125  53.742  1.00  0.00     0.124 C 
BRANCH   7   8
HETATM    8  N1  UNL     1      25.933  -0.343  53.900  1.00  0.00    -0.412 N 
HETATM    9  C5  UNL     1      26.468  -1.229  52.939  1.00  0.00     0.143 C 
BRANCH   8  10
HETATM   10  C4  UNL     1      26.832   0.411  54.692  1.00  0.00     0.159 C 
BRANCH  10  11
HETATM   11  C3  UNL     1      28.064   0.689  53.912  1.00  0.00     0.039 C 
HETATM   12  C2  UNL     1      29.203   0.059  53.603  1.00  0.00    -0.018 C 
HETATM   13  C1  UNL     1      30.041  -1.134  53.717  1.00  0.00     0.036 C 
BRANCH  11  14
HETATM   14  C17 UNL     1      27.829   2.064  53.382  1.00  0.00     0.415 C 
HETATM   15  F1  UNL     1      27.357   1.947  52.095  1.00  0.00    -0.166 F 
HETATM   16  F2  UNL     1      28.904   2.892  53.473  1.00  0.00    -0.166 F 
HETATM   17  F3  UNL     1      26.810   2.598  54.144  1.00  0.00    -0.166 F 
ENDBRANCH  11  14
ENDBRANCH  10  11
ENDBRANCH   8  10
ENDBRANCH   7   8
ENDBRANCH   6   7
ENDBRANCH   1   6
BRANCH   3  18
HETATM   18  C10 UNL     1      23.457   5.098  50.504  1.00  0.00     0.258 C 
BRANCH  18  19
HETATM   19  O1  UNL     1      23.998   4.827  49.226  1.00  0.00    -0.340 OA
BRANCH  19  20
HETATM   20  C11 UNL     1      25.131   5.532  48.840  1.00  0.00     0.112 A 
HETATM   21  C12 UNL     1      24.775   6.758  48.305  1.00  0.00     0.069 A 
HETATM   22 CL1  UNL     1      23.126   7.374  48.123  1.00  0.00    -0.081 Cl
HETATM   23  C13 UNL     1      25.741   7.648  47.846  1.00  0.00     0.027 A 
HETATM   24  C14 UNL     1      27.070   7.306  47.923  1.00  0.00     0.003 A 
HETATM   25  C15 UNL     1      27.415   6.080  48.458  1.00  0.00     0.027 A 
HETATM   26  C16 UNL     1      26.463   5.207  48.909  1.00  0.00     0.069 A 
HETATM   27 CL2  UNL     1      26.759   3.625  49.611  1.00  0.00    -0.081 Cl
ENDBRANCH  19  20
ENDBRANCH  18  19
ENDBRANCH   3  18
TORSDOF 9
ENDMDL
MODEL 7
REMARK VINA RESULT:      -7.1      4.507      7.383
REMARK  9 active torsions:
REMARK  status: ('A' for Active; 'I' for Inactive)
REMARK    1  A    between atoms: C3_3  and  C4_4 
REMARK    2  A    between atoms: C3_3  and  C17_24 
REMARK    3  A    between atoms: C4_4  and  N1_5 
REMARK    4  A    between atoms: N1_5  and  C6_7 
REMARK    5  A    between atoms: C6_7  and  C7_8 
REMARK    6  A    between atoms: C7_8  and  C8_9 
REMARK    7  A    between atoms: C9_11  and  C10_12 
REMARK    8  A    between atoms: C10_12  and  O1_13 
REMARK    9  A    between atoms: O1_13  and  C11_14 
ROOT
HETATM    1  C8  UNL     1      26.487   4.620  49.341  1.00  0.00     0.174 A 
HETATM    2  N2  UNL     1      27.754   4.397  48.906  1.00  0.00    -0.206 NA
HETATM    3  C9  UNL     1      28.246   5.548  48.416  1.00  0.00     0.180 A 
HETATM    4  N3  UNL     1      27.278   6.470  48.552  1.00  0.00    -0.109 NA
HETATM    5  O2  UNL     1      26.258   5.897  49.097  1.00  0.00    -0.196 OA
ENDROOT
BRANCH   1   6
HETATM    6  C7  UNL     1      25.609   3.586  49.950  1.00  0.00     0.108 C 
BRANCH   6   7
HETATM    7  C6  UNL     1      26.491   2.488  50.499  1.00  0.00     0.124 C 
BRANCH   7   8
HETATM    8  N1  UNL     1      26.333   2.254  51.880  1.00  0.00    -0.412 N 
HETATM    9  C5  UNL     1      27.481   2.171  52.698  1.00  0.00     0.143 C 
BRANCH   8  10
HETATM   10  C4  UNL     1      25.097   2.579  52.489  1.00  0.00     0.159 C 
BRANCH  10  11
HETATM   11  C3  UNL     1      24.309   1.339  52.700  1.00  0.00     0.039 C 
HETATM   12  C2  UNL     1      24.450   0.175  53.345  1.00  0.00    -0.018 C 
HETATM   13  C1  UNL     1      25.270  -0.695  54.188  1.00  0.00     0.036 C 
BRANCH  11  14
HETATM   14  C17 UNL     1      23.049   1.601  51.945  1.00  0.00     0.415 C 
HETATM   15  F1  UNL     1      22.030   0.921  52.572  1.00  0.00    -0.166 F 
HETATM   16  F2  UNL     1      23.123   1.325  50.616  1.00  0.00    -0.166 F 
HETATM   17  F3  UNL     1      22.790   2.949  52.091  1.00  0.00    -0.166 F 
ENDBRANCH  11  14
ENDBRANCH  10  11
ENDBRANCH   8  10
ENDBRANCH   7   8
ENDBRANCH   6   7
ENDBRANCH   1   6
BRANCH   3  18
HETATM   18  C10 UNL     1      29.556   5.886  47.821  1.00  0.00     0.258 C 
BRANCH  18  19
HETATM   19  O1  UNL     1      30.549   5.158  48.518  1.00  0.00    -0.340 OA
BRANCH  19  20
HETATM   20  C11 UNL     1      31.877   5.485  48.281  1.00  0.00     0.112 A 
HETATM   21  C12 UNL     1      32.455   4.561  47.428  1.00  0.00     0.069 A 
HETATM   22 CL1  UNL     1      31.649   3.153  46.721  1.00  0.00    -0.081 Cl
HETATM   23  C13 UNL     1      33.786   4.676  47.040  1.00  0.00     0.027 A 
HETATM   24  C14 UNL     1      34.542   5.723  47.510  1.00  0.00     0.003 A 
HETATM   25  C15 UNL     1      33.956   6.640  48.361  1.00  0.00     0.027 A 
HETATM   26  C16 UNL     1      32.646   6.525  48.740  1.00  0.00     0.069 A 
HETATM   27 CL2  UNL     1      31.778   7.614  49.809  1.00  0.00    -0.081 Cl
ENDBRANCH  19  20
ENDBRANCH  18  19
ENDBRANCH   3  18
TORSDOF 9
ENDMDL
MODEL 8
REMARK VINA RESULT:      -7.1      5.093      6.968
REMARK  9 active torsions:
REMARK  status: ('A' for Active; 'I' for Inactive)
REMARK    1  A    between atoms: C3_3  and  C4_4 
REMARK    2  A    between atoms: C3_3  and  C17_24 
REMARK    3  A    between atoms: C4_4  and  N1_5 
REMARK    4  A    between atoms: N1_5  and  C6_7 
REMARK    5  A    between atoms: C6_7  and  C7_8 
REMARK    6  A    between atoms: C7_8  and  C8_9 
REMARK    7  A    between atoms: C9_11  and  C10_12 
REMARK    8  A    between atoms: C10_12  and  O1_13 
REMARK    9  A    between atoms: O1_13  and  C11_14 
ROOT
HETATM    1  C8  UNL     1      28.708   5.942  48.188  1.00  0.00     0.174 A 
HETATM    2  N2  UNL     1      28.535   4.649  48.562  1.00  0.00    -0.206 NA
HETATM    3  C9  UNL     1      27.254   4.481  48.936  1.00  0.00     0.180 A 
HETATM    4  N3  UNL     1      26.650   5.672  48.789  1.00  0.00    -0.109 NA
HETATM    5  O2  UNL     1      27.528   6.510  48.349  1.00  0.00    -0.196 OA
ENDROOT
BRANCH   1   6
HETATM    6  C7  UNL     1      29.994   6.517  47.711  1.00  0.00     0.108 C 
BRANCH   6   7
HETATM    7  C6  UNL     1      31.043   6.259  48.768  1.00  0.00     0.124 C 
BRANCH   7   8
HETATM    8  N1  UNL     1      32.223   5.664  48.280  1.00  0.00    -0.412 N 
HETATM    9  C5  UNL     1      33.472   6.205  48.657  1.00  0.00     0.143 C 
BRANCH   8  10
HETATM   10  C4  UNL     1      32.179   4.316  47.850  1.00  0.00     0.159 C 
BRANCH  10  11
HETATM   11  C3  UNL     1      33.021   4.156  46.638  1.00  0.00     0.039 C 
HETATM   12  C2  UNL     1      33.193   4.773  45.464  1.00  0.00    -0.018 C 
HETATM   13  C1  UNL     1      32.818   5.858  44.556  1.00  0.00     0.036 C 
BRANCH  11  14
HETATM   14  C17 UNL     1      33.851   2.957  46.955  1.00  0.00     0.415 C 
HETATM   15  F1  UNL     1      33.035   1.850  46.893  1.00  0.00    -0.166 F 
HETATM   16  F2  UNL     1      34.534   3.040  48.126  1.00  0.00    -0.166 F 
HETATM   17  F3  UNL     1      34.767   2.845  45.929  1.00  0.00    -0.166 F 
ENDBRANCH  11  14
ENDBRANCH  10  11
ENDBRANCH   8  10
ENDBRANCH   7   8
ENDBRANCH   6   7
ENDBRANCH   1   6
BRANCH   3  18
HETATM   18  C10 UNL     1      26.517   3.297  49.426  1.00  0.00     0.258 C 
BRANCH  18  19
HETATM   19  O1  UNL     1      26.017   3.600  50.714  1.00  0.00    -0.340 OA
BRANCH  19  20
HETATM   20  C11 UNL     1      25.224   2.649  51.341  1.00  0.00     0.112 A 
HETATM   21  C12 UNL     1      25.947   1.991  52.321  1.00  0.00     0.069 A 
HETATM   22 CL1  UNL     1      27.640   2.293  52.743  1.00  0.00    -0.081 Cl
HETATM   23  C13 UNL     1      25.367   0.989  53.091  1.00  0.00     0.027 A 
HETATM   24  C14 UNL     1      24.053   0.643  52.876  1.00  0.00     0.003 A 
HETATM   25  C15 UNL     1      23.340   1.305  51.895  1.00  0.00     0.027 A 
HETATM   26  C16 UNL     1      23.914   2.291  51.140  1.00  0.00     0.069 A 
HETATM   27 CL2  UNL     1      23.128   3.211  49.869  1.00  0.00    -0.081 Cl
ENDBRANCH  19  20
ENDBRANCH  18  19
ENDBRANCH   3  18
TORSDOF 9
ENDMDL
MODEL 9
REMARK VINA RESULT:      -7.1      3.484      6.909
REMARK  9 active torsions:
REMARK  status: ('A' for Active; 'I' for Inactive)
REMARK    1  A    between atoms: C3_3  and  C4_4 
REMARK    2  A    between atoms: C3_3  and  C17_24 
REMARK    3  A    between atoms: C4_4  and  N1_5 
REMARK    4  A    between atoms: N1_5  and  C6_7 
REMARK    5  A    between atoms: C6_7  and  C7_8 
REMARK    6  A    between atoms: C7_8  and  C8_9 
REMARK    7  A    between atoms: C9_11  and  C10_12 
REMARK    8  A    between atoms: C10_12  and  O1_13 
REMARK    9  A    between atoms: O1_13  and  C11_14 
ROOT
HETATM    1  C8  UNL     1      21.751   4.197  51.818  1.00  0.00     0.174 A 
HETATM    2  N2  UNL     1      22.166   5.058  50.853  1.00  0.00    -0.206 NA
HETATM    3  C9  UNL     1      23.401   5.486  51.166  1.00  0.00     0.180 A 
HETATM    4  N3  UNL     1      23.736   4.887  52.321  1.00  0.00    -0.109 NA
HETATM    5  O2  UNL     1      22.748   4.137  52.680  1.00  0.00    -0.196 OA
ENDROOT
BRANCH   1   6
HETATM    6  C7  UNL     1      20.431   3.512  51.826  1.00  0.00     0.108 C 
BRANCH   6   7
HETATM    7  C6  UNL     1      20.541   2.295  52.716  1.00  0.00     0.124 C 
BRANCH   7   8
HETATM    8  N1  UNL     1      20.649   1.075  52.020  1.00  0.00    -0.412 N 
HETATM    9  C5  UNL     1      19.505   0.543  51.385  1.00  0.00     0.143 C 
BRANCH   8  10
HETATM   10  C4  UNL     1      21.924   0.662  51.562  1.00  0.00     0.159 C 
BRANCH  10  11
HETATM   11  C3  UNL     1      22.749   0.233  52.718  1.00  0.00     0.039 C 
HETATM   12  C2  UNL     1      22.601  -0.521  53.814  1.00  0.00    -0.018 C 
HETATM   13  C1  UNL     1      21.742  -1.368  54.641  1.00  0.00     0.036 C 
BRANCH  11  14
HETATM   14  C17 UNL     1      24.068   0.881  52.456  1.00  0.00     0.415 C 
HETATM   15  F1  UNL     1      24.329   1.744  53.496  1.00  0.00    -0.166 F 
HETATM   16  F2  UNL     1      24.167   1.479  51.240  1.00  0.00    -0.166 F 
HETATM   17  F3  UNL     1      25.007  -0.128  52.518  1.00  0.00    -0.166 F 
ENDBRANCH  11  14
ENDBRANCH  10  11
ENDBRANCH   8  10
ENDBRANCH   7   8
ENDBRANCH   6   7
ENDBRANCH   1   6
BRANCH   3  18
HETATM   18  C10 UNL     1      24.324   6.417  50.484  1.00  0.00     0.258 C 
BRANCH  18  19
HETATM   19  O1  UNL     1      24.694   5.833  49.249  1.00  0.00    -0.340 OA
BRANCH  19  20
HETATM   20  C11 UNL     1      25.972   6.087  48.771  1.00  0.00     0.112 A 
HETATM   21  C12 UNL     1      26.786   4.986  48.968  1.00  0.00     0.069 A 
HETATM   22 CL1  UNL     1      26.304   3.456  49.717  1.00  0.00    -0.081 Cl
HETATM   23  C13 UNL     1      28.119   4.997  48.569  1.00  0.00     0.027 A 
HETATM   24  C14 UNL     1      28.638   6.121  47.970  1.00  0.00     0.003 A 
HETATM   25  C15 UNL     1      27.817   7.215  47.778  1.00  0.00     0.027 A 
HETATM   26  C16 UNL     1      26.507   7.200  48.171  1.00  0.00     0.069 A 
HETATM   27 CL2  UNL     1      25.356   8.513  47.987  1.00  0.00    -0.081 Cl
ENDBRANCH  19  20
ENDBRANCH  18  19
ENDBRANCH   3  18
TORSDOF 9
ENDMDL
