MODEL 1
REMARK VINA RESULT:      -7.9      0.000      0.000
REMARK  9 active torsions:
REMARK  status: ('A' for Active; 'I' for Inactive)
REMARK    1  A    between atoms: C3_4  and  C4_5 
REMARK    2  A    between atoms: C5_6  and  C6_7 
REMARK    3  A    between atoms: C6_7  and  C7_8 
REMARK    4  A    between atoms: C7_8  and  C8_9 
REMARK    5  A    between atoms: C8_9  and  C20_24 
REMARK    6  A    between atoms: C9_10  and  C10_11 
REMARK    7  A    between atoms: C11_12  and  N1_13 
REMARK    8  A    between atoms: N1_13  and  C12_14 
REMARK    9  A    between atoms: C20_24  and  O1_25 
ROOT
HETATM    1  C10 UNL     1      25.680   3.894  49.317  1.00  0.00     0.017 C 
HETATM    2  C11 UNL     1      26.450   3.037  49.944  1.00  0.00     0.090 C 
ENDROOT
BRANCH   1   3
HETATM    3  C9  UNL     1      25.192   5.087  49.989  1.00  0.00     0.006 C 
HETATM    4  C8  UNL     1      23.979   5.226  50.557  1.00  0.00    -0.056 C 
BRANCH   4   5
HETATM    5  C7  UNL     1      22.985   4.124  50.549  1.00  0.00     0.040 C 
BRANCH   5   6
HETATM    6  C6  UNL     1      23.014   3.264  51.779  1.00  0.00     0.031 C 
BRANCH   6   7
HETATM    7  C5  UNL     1      23.127   1.839  51.312  1.00  0.00    -0.026 C 
HETATM    8  C4  UNL     1      22.893   0.733  51.994  1.00  0.00    -0.001 C 
BRANCH   8   9
HETATM    9  C3  UNL     1      22.465   0.733  53.383  1.00  0.00     0.037 C 
HETATM   10  C2  UNL     1      21.221   0.458  53.713  1.00  0.00     0.090 C 
HETATM   11  C1  UNL     1      20.055   0.113  52.864  1.00  0.00     0.082 C 
HETATM   12  F1  UNL     1      20.774   0.445  54.994  1.00  0.00    -0.211 F 
ENDBRANCH   8   9
ENDBRANCH   6   7
ENDBRANCH   5   6
ENDBRANCH   4   5
BRANCH   4  13
HETATM   13  C20 UNL     1      23.634   6.512  51.190  1.00  0.00     0.198 C 
BRANCH  13  14
HETATM   14  O1  UNL     1      24.409   6.703  52.308  1.00  0.00    -0.397 OA
HETATM   15  H26 UNL     1      24.212   7.596  52.680  1.00  0.00     0.209 HD
ENDBRANCH  13  14
ENDBRANCH   4  13
ENDBRANCH   1   3
BRANCH   2  16
HETATM   16  N1  UNL     1      26.824   3.268  51.318  1.00  0.00    -0.351 N 
HETATM   17  H14 UNL     1      27.206   4.086  51.840  1.00  0.00     0.166 HD
BRANCH  16  18
HETATM   18  C12 UNL     1      26.674   2.179  52.255  1.00  0.00     0.124 A 
HETATM   19  C13 UNL     1      27.084   0.907  52.116  1.00  0.00     0.044 A 
HETATM   20  C14 UNL     1      26.712   0.130  53.343  1.00  0.00     0.055 A 
HETATM   21  C15 UNL     1      26.059   1.146  54.139  1.00  0.00     0.111 A 
HETATM   22  C16 UNL     1      25.925  -1.102  53.034  1.00  0.00     0.026 C 
HETATM   23  C19 UNL     1      27.958  -0.435  53.906  1.00  0.00     0.021 C 
HETATM   24  N2  UNL     1      26.043   2.290  53.521  1.00  0.00    -0.246 NA
HETATM   25  C17 UNL     1      26.984  -2.106  52.583  1.00  0.00     0.007 C 
HETATM   26  C18 UNL     1      28.312  -1.557  52.980  1.00  0.00     0.056 C 
HETATM   27  N3  UNL     1      28.686  -0.160  54.918  1.00  0.00    -0.308 NA
HETATM   28  H23 UNL     1      28.419   0.627  55.548  1.00  0.00     0.186 HD
ENDBRANCH  16  18
ENDBRANCH   2  16
TORSDOF 9
ENDMDL
MODEL 2
REMARK VINA RESULT:      -7.2      3.381      5.832
REMARK  9 active torsions:
REMARK  status: ('A' for Active; 'I' for Inactive)
REMARK    1  A    between atoms: C3_4  and  C4_5 
REMARK    2  A    between atoms: C5_6  and  C6_7 
REMARK    3  A    between atoms: C6_7  and  C7_8 
REMARK    4  A    between atoms: C7_8  and  C8_9 
REMARK    5  A    between atoms: C8_9  and  C20_24 
REMARK    6  A    between atoms: C9_10  and  C10_11 
REMARK    7  A    between atoms: C11_12  and  N1_13 
REMARK    8  A    between atoms: N1_13  and  C12_14 
REMARK    9  A    between atoms: C20_24  and  O1_25 
ROOT
HETATM    1  C10 UNL     1      23.406   4.733  52.361  1.00  0.00     0.017 C 
HETATM    2  C11 UNL     1      22.151   4.351  52.351  1.00  0.00     0.090 C 
ENDROOT
BRANCH   1   3
HETATM    3  C9  UNL     1      24.326   4.292  51.325  1.00  0.00     0.006 C 
HETATM    4  C8  UNL     1      25.211   3.283  51.441  1.00  0.00    -0.056 C 
BRANCH   4   5
HETATM    5  C7  UNL     1      25.333   2.494  52.692  1.00  0.00     0.040 C 
BRANCH   5   6
HETATM    6  C6  UNL     1      25.909   1.122  52.496  1.00  0.00     0.031 C 
BRANCH   6   7
HETATM    7  C5  UNL     1      25.994   0.486  53.856  1.00  0.00    -0.026 C 
HETATM    8  C4  UNL     1      27.067   0.277  54.597  1.00  0.00    -0.001 C 
BRANCH   8   9
HETATM    9  C3  UNL     1      28.407   0.656  54.178  1.00  0.00     0.037 C 
HETATM   10  C2  UNL     1      29.230  -0.225  53.652  1.00  0.00     0.090 C 
HETATM   11  C1  UNL     1      29.044  -1.670  53.373  1.00  0.00     0.082 C 
HETATM   12  F1  UNL     1      30.489   0.080  53.246  1.00  0.00    -0.211 F 
ENDBRANCH   8   9
ENDBRANCH   6   7
ENDBRANCH   5   6
ENDBRANCH   4   5
BRANCH   4  13
HETATM   13  C20 UNL     1      26.083   2.970  50.295  1.00  0.00     0.198 C 
BRANCH  13  14
HETATM   14  O1  UNL     1      27.216   3.746  50.345  1.00  0.00    -0.397 OA
HETATM   15  H26 UNL     1      27.996   3.158  50.478  1.00  0.00     0.209 HD
ENDBRANCH  13  14
ENDBRANCH   4  13
ENDBRANCH   1   3
BRANCH   2  16
HETATM   16  N1  UNL     1      21.664   3.483  51.307  1.00  0.00    -0.351 N 
HETATM   17  H14 UNL     1      21.362   3.631  50.320  1.00  0.00     0.166 HD
BRANCH  16  18
HETATM   18  C12 UNL     1      21.527   2.076  51.603  1.00  0.00     0.124 A 
HETATM   19  C13 UNL     1      21.832   1.438  52.746  1.00  0.00     0.044 A 
HETATM   20  C14 UNL     1      21.524  -0.021  52.597  1.00  0.00     0.055 A 
HETATM   21  C15 UNL     1      21.023  -0.071  51.240  1.00  0.00     0.111 A 
HETATM   22  C16 UNL     1      22.691  -0.897  52.924  1.00  0.00     0.026 C 
HETATM   23  C19 UNL     1      20.561  -0.384  53.659  1.00  0.00     0.021 C 
HETATM   24  N2  UNL     1      21.029   1.108  50.693  1.00  0.00    -0.246 NA
HETATM   25  C17 UNL     1      22.695  -0.940  54.450  1.00  0.00     0.007 C 
HETATM   26  C18 UNL     1      21.379  -0.413  54.912  1.00  0.00     0.056 C 
HETATM   27  N3  UNL     1      19.310  -0.641  53.681  1.00  0.00    -0.308 NA
HETATM   28  H23 UNL     1      18.761  -0.613  52.795  1.00  0.00     0.186 HD
ENDBRANCH  16  18
ENDBRANCH   2  16
TORSDOF 9
ENDMDL
MODEL 3
REMARK VINA RESULT:      -7.1      2.750      4.315
REMARK  9 active torsions:
REMARK  status: ('A' for Active; 'I' for Inactive)
REMARK    1  A    between atoms: C3_4  and  C4_5 
REMARK    2  A    between atoms: C5_6  and  C6_7 
REMARK    3  A    between atoms: C6_7  and  C7_8 
REMARK    4  A    between atoms: C7_8  and  C8_9 
REMARK    5  A    between atoms: C8_9  and  C20_24 
REMARK    6  A    between atoms: C9_10  and  C10_11 
REMARK    7  A    between atoms: C11_12  and  N1_13 
REMARK    8  A    between atoms: N1_13  and  C12_14 
REMARK    9  A    between atoms: C20_24  and  O1_25 
ROOT
HETATM    1  C10 UNL     1      25.934   4.200  49.240  1.00  0.00     0.017 C 
HETATM    2  C11 UNL     1      25.669   3.637  50.395  1.00  0.00     0.090 C 
ENDROOT
BRANCH   1   3
HETATM    3  C9  UNL     1      27.300   4.544  48.877  1.00  0.00     0.006 C 
HETATM    4  C8  UNL     1      27.714   5.747  48.437  1.00  0.00    -0.056 C 
BRANCH   4   5
HETATM    5  C7  UNL     1      26.773   6.884  48.276  1.00  0.00     0.040 C 
BRANCH   5   6
HETATM    6  C6  UNL     1      26.653   7.755  49.492  1.00  0.00     0.031 C 
BRANCH   6   7
HETATM    7  C5  UNL     1      25.330   8.463  49.392  1.00  0.00    -0.026 C 
HETATM    8  C4  UNL     1      24.225   8.236  50.079  1.00  0.00    -0.001 C 
BRANCH   8   9
HETATM    9  C3  UNL     1      24.122   7.203  51.097  1.00  0.00     0.037 C 
HETATM   10  C2  UNL     1      23.271   6.207  50.972  1.00  0.00     0.090 C 
HETATM   11  C1  UNL     1      22.301   5.899  49.893  1.00  0.00     0.082 C 
HETATM   12  F1  UNL     1      23.138   5.220  51.894  1.00  0.00    -0.211 F 
ENDBRANCH   8   9
ENDBRANCH   6   7
ENDBRANCH   5   6
ENDBRANCH   4   5
BRANCH   4  13
HETATM   13  C20 UNL     1      29.137   5.928  48.098  1.00  0.00     0.198 C 
BRANCH  13  14
HETATM   14  O1  UNL     1      29.783   6.574  49.124  1.00  0.00    -0.397 OA
HETATM   15  H26 UNL     1      29.304   6.385  49.966  1.00  0.00     0.209 HD
ENDBRANCH  13  14
ENDBRANCH   4  13
ENDBRANCH   1   3
BRANCH   2  16
HETATM   16  N1  UNL     1      26.733   3.350  51.325  1.00  0.00    -0.351 N 
HETATM   17  H14 UNL     1      27.664   3.779  51.520  1.00  0.00     0.166 HD
BRANCH  16  18
HETATM   18  C12 UNL     1      26.564   2.236  52.228  1.00  0.00     0.124 A 
HETATM   19  C13 UNL     1      27.060   0.993  52.110  1.00  0.00     0.044 A 
HETATM   20  C14 UNL     1      26.625   0.171  53.286  1.00  0.00     0.055 A 
HETATM   21  C15 UNL     1      25.843   1.132  54.033  1.00  0.00     0.111 A 
HETATM   22  C16 UNL     1      25.944  -1.098  52.888  1.00  0.00     0.026 C 
HETATM   23  C19 UNL     1      27.846  -0.331  53.953  1.00  0.00     0.021 C 
HETATM   24  N2  UNL     1      25.814   2.285  53.432  1.00  0.00    -0.246 NA
HETATM   25  C17 UNL     1      27.098  -2.029  52.523  1.00  0.00     0.007 C 
HETATM   26  C18 UNL     1      28.349  -1.412  53.048  1.00  0.00     0.056 C 
HETATM   27  N3  UNL     1      28.461  -0.034  55.032  1.00  0.00    -0.308 NA
HETATM   28  H23 UNL     1      28.091   0.723  55.646  1.00  0.00     0.186 HD
ENDBRANCH  16  18
ENDBRANCH   2  16
TORSDOF 9
ENDMDL
MODEL 4
REMARK VINA RESULT:      -7.1      4.064      6.199
REMARK  9 active torsions:
REMARK  status: ('A' for Active; 'I' for Inactive)
REMARK    1  A    between atoms: C3_4  and  C4_5 
REMARK    2  A    between atoms: C5_6  and  C6_7 
REMARK    3  A    between atoms: C6_7  and  C7_8 
REMARK    4  A    between atoms: C7_8  and  C8_9 
REMARK    5  A    between atoms: C8_9  and  C20_24 
REMARK    6  A    between atoms: C9_10  and  C10_11 
REMARK    7  A    between atoms: C11_12  and  N1_13 
REMARK    8  A    between atoms: N1_13  and  C12_14 
REMARK    9  A    between atoms: C20_24  and  O1_25 
ROOT
HETATM    1  C10 UNL     1      25.406   3.914  49.424  1.00  0.00     0.017 C 
HETATM    2  C11 UNL     1      26.220   3.010  49.914  1.00  0.00     0.090 C 
ENDROOT
BRANCH   1   3
HETATM    3  C9  UNL     1      25.073   5.107  50.187  1.00  0.00     0.006 C 
HETATM    4  C8  UNL     1      25.313   6.375  49.803  1.00  0.00    -0.056 C 
BRANCH   4   5
HETATM    5  C7  UNL     1      25.969   6.685  48.508  1.00  0.00     0.040 C 
BRANCH   5   6
HETATM    6  C6  UNL     1      27.421   7.045  48.627  1.00  0.00     0.031 C 
BRANCH   6   7
HETATM    7  C5  UNL     1      28.207   5.835  48.204  1.00  0.00    -0.026 C 
HETATM    8  C4  UNL     1      29.517   5.669  48.200  1.00  0.00    -0.001 C 
BRANCH   8   9
HETATM    9  C3  UNL     1      30.448   6.699  48.631  1.00  0.00     0.037 C 
HETATM   10  C2  UNL     1      31.049   7.482  47.760  1.00  0.00     0.090 C 
HETATM   11  C1  UNL     1      30.954   7.526  46.280  1.00  0.00     0.082 C 
HETATM   12  F1  UNL     1      31.925   8.456  48.114  1.00  0.00    -0.211 F 
ENDBRANCH   8   9
ENDBRANCH   6   7
ENDBRANCH   5   6
ENDBRANCH   4   5
BRANCH   4  13
HETATM   13  C20 UNL     1      24.922   7.475  50.702  1.00  0.00     0.198 C 
BRANCH  13  14
HETATM   14  O1  UNL     1      24.500   6.966  51.906  1.00  0.00    -0.397 OA
HETATM   15  H26 UNL     1      23.546   7.188  52.026  1.00  0.00     0.209 HD
ENDBRANCH  13  14
ENDBRANCH   4  13
ENDBRANCH   1   3
BRANCH   2  16
HETATM   16  N1  UNL     1      26.799   3.186  51.224  1.00  0.00    -0.351 N 
HETATM   17  H14 UNL     1      27.334   3.953  51.685  1.00  0.00     0.166 HD
BRANCH  16  18
HETATM   18  C12 UNL     1      26.659   2.111  52.178  1.00  0.00     0.124 A 
HETATM   19  C13 UNL     1      27.138   0.859  52.089  1.00  0.00     0.044 A 
HETATM   20  C14 UNL     1      26.748   0.091  53.316  1.00  0.00     0.055 A 
HETATM   21  C15 UNL     1      26.007   1.089  54.056  1.00  0.00     0.111 A 
HETATM   22  C16 UNL     1      26.038  -1.187  52.999  1.00  0.00     0.026 C 
HETATM   23  C19 UNL     1      27.992  -0.398  53.949  1.00  0.00     0.021 C 
HETATM   24  N2  UNL     1      25.963   2.217  53.410  1.00  0.00    -0.246 NA
HETATM   25  C17 UNL     1      27.167  -2.144  52.623  1.00  0.00     0.007 C 
HETATM   26  C18 UNL     1      28.445  -1.519  53.068  1.00  0.00     0.056 C 
HETATM   27  N3  UNL     1      28.656  -0.064  54.987  1.00  0.00    -0.308 NA
HETATM   28  H23 UNL     1      28.320   0.721  55.585  1.00  0.00     0.186 HD
ENDBRANCH  16  18
ENDBRANCH   2  16
TORSDOF 9
ENDMDL
MODEL 5
REMARK VINA RESULT:      -7.0      4.780      7.065
REMARK  9 active torsions:
REMARK  status: ('A' for Active; 'I' for Inactive)
REMARK    1  A    between atoms: C3_4  and  C4_5 
REMARK    2  A    between atoms: C5_6  and  C6_7 
REMARK    3  A    between atoms: C6_7  and  C7_8 
REMARK    4  A    between atoms: C7_8  and  C8_9 
REMARK    5  A    between atoms: C8_9  and  C20_24 
REMARK    6  A    between atoms: C9_10  and  C10_11 
REMARK    7  A    between atoms: C11_12  and  N1_13 
REMARK    8  A    between atoms: N1_13  and  C12_14 
REMARK    9  A    between atoms: C20_24  and  O1_25 
ROOT
HETATM    1  C10 UNL     1      26.072   4.651  49.046  1.00  0.00     0.017 C 
HETATM    2  C11 UNL     1      25.705   4.011  50.130  1.00  0.00     0.090 C 
ENDROOT
BRANCH   1   3
HETATM    3  C9  UNL     1      27.480   4.850  48.740  1.00  0.00     0.006 C 
HETATM    4  C8  UNL     1      28.037   6.006  48.333  1.00  0.00    -0.056 C 
BRANCH   4   5
HETATM    5  C7  UNL     1      27.230   7.238  48.151  1.00  0.00     0.040 C 
BRANCH   5   6
HETATM    6  C6  UNL     1      27.215   8.142  49.349  1.00  0.00     0.031 C 
BRANCH   6   7
HETATM    7  C5  UNL     1      27.562   9.521  48.860  1.00  0.00    -0.026 C 
HETATM    8  C4  UNL     1      28.729  10.138  48.907  1.00  0.00    -0.001 C 
BRANCH   8   9
HETATM    9  C3  UNL     1      29.923   9.533  49.474  1.00  0.00     0.037 C 
HETATM   10  C2  UNL     1      30.944   9.200  48.714  1.00  0.00     0.090 C 
HETATM   11  C1  UNL     1      31.137   9.333  47.249  1.00  0.00     0.082 C 
HETATM   12  F1  UNL     1      32.079   8.634  49.196  1.00  0.00    -0.211 F 
ENDBRANCH   8   9
ENDBRANCH   6   7
ENDBRANCH   5   6
ENDBRANCH   4   5
BRANCH   4  13
HETATM   13  C20 UNL     1      29.484   6.036  48.052  1.00  0.00     0.198 C 
BRANCH  13  14
HETATM   14  O1  UNL     1      30.187   5.744  49.196  1.00  0.00    -0.397 OA
HETATM   15  H26 UNL     1      29.869   4.880  49.550  1.00  0.00     0.209 HD
ENDBRANCH  13  14
ENDBRANCH   4  13
ENDBRANCH   1   3
BRANCH   2  16
HETATM   16  N1  UNL     1      26.698   3.493  51.040  1.00  0.00    -0.351 N 
HETATM   17  H14 UNL     1      27.652   3.800  51.326  1.00  0.00     0.166 HD
BRANCH  16  18
HETATM   18  C12 UNL     1      26.392   2.279  51.759  1.00  0.00     0.124 A 
HETATM   19  C13 UNL     1      27.247   1.339  52.196  1.00  0.00     0.044 A 
HETATM   20  C14 UNL     1      26.479   0.256  52.893  1.00  0.00     0.055 A 
HETATM   21  C15 UNL     1      25.122   0.741  52.768  1.00  0.00     0.111 A 
HETATM   22  C16 UNL     1      26.769  -1.105  52.347  1.00  0.00     0.026 C 
HETATM   23  C19 UNL     1      27.008   0.153  54.271  1.00  0.00     0.021 C 
HETATM   24  N2  UNL     1      25.084   1.874  52.131  1.00  0.00    -0.246 NA
HETATM   25  C17 UNL     1      28.101  -1.479  52.993  1.00  0.00     0.007 C 
HETATM   26  C18 UNL     1      28.334  -0.523  54.113  1.00  0.00     0.056 C 
HETATM   27  N3  UNL     1      26.576   0.500  55.422  1.00  0.00    -0.308 NA
HETATM   28  H23 UNL     1      25.649   0.969  55.506  1.00  0.00     0.186 HD
ENDBRANCH  16  18
ENDBRANCH   2  16
TORSDOF 9
ENDMDL
MODEL 6
REMARK VINA RESULT:      -6.8      4.003      7.069
REMARK  9 active torsions:
REMARK  status: ('A' for Active; 'I' for Inactive)
REMARK    1  A    between atoms: C3_4  and  C4_5 
REMARK    2  A    between atoms: C5_6  and  C6_7 
REMARK    3  A    between atoms: C6_7  and  C7_8 
REMARK    4  A    between atoms: C7_8  and  C8_9 
REMARK    5  A    between atoms: C8_9  and  C20_24 
REMARK    6  A    between atoms: C9_10  and  C10_11 
REMARK    7  A    between atoms: C11_12  and  N1_13 
REMARK    8  A    between atoms: N1_13  and  C12_14 
REMARK    9  A    between atoms: C20_24  and  O1_25 
ROOT
HETATM    1  C10 UNL     1      25.858   3.164  50.157  1.00  0.00     0.017 C 
HETATM    2  C11 UNL     1      26.653   3.703  49.263  1.00  0.00     0.090 C 
ENDROOT
BRANCH   1   3
HETATM    3  C9  UNL     1      24.972   3.991  50.960  1.00  0.00     0.006 C 
HETATM    4  C8  UNL     1      23.982   3.538  51.752  1.00  0.00    -0.056 C 
BRANCH   4   5
HETATM    5  C7  UNL     1      23.692   2.088  51.885  1.00  0.00     0.040 C 
BRANCH   5   6
HETATM    6  C6  UNL     1      24.379   1.431  53.047  1.00  0.00     0.031 C 
BRANCH   6   7
HETATM    7  C5  UNL     1      25.252   0.346  52.480  1.00  0.00    -0.026 C 
HETATM    8  C4  UNL     1      26.488   0.028  52.820  1.00  0.00    -0.001 C 
BRANCH   8   9
HETATM    9  C3  UNL     1      27.229   0.725  53.858  1.00  0.00     0.037 C 
HETATM   10  C2  UNL     1      28.466   0.387  54.155  1.00  0.00     0.090 C 
HETATM   11  C1  UNL     1      29.339  -0.668  53.584  1.00  0.00     0.082 C 
HETATM   12  F1  UNL     1      29.199   1.007  55.115  1.00  0.00    -0.211 F 
ENDBRANCH   8   9
ENDBRANCH   6   7
ENDBRANCH   5   6
ENDBRANCH   4   5
BRANCH   4  13
HETATM   13  C20 UNL     1      23.163   4.514  52.494  1.00  0.00     0.198 C 
BRANCH  13  14
HETATM   14  O1  UNL     1      23.965   5.514  52.989  1.00  0.00    -0.397 OA
HETATM   15  H26 UNL     1      24.900   5.318  52.745  1.00  0.00     0.209 HD
ENDBRANCH  13  14
ENDBRANCH   4  13
ENDBRANCH   1   3
BRANCH   2  16
HETATM   16  N1  UNL     1      26.658   5.132  49.064  1.00  0.00    -0.351 N 
HETATM   17  H14 UNL     1      25.948   5.886  49.186  1.00  0.00     0.166 HD
BRANCH  16  18
HETATM   18  C12 UNL     1      27.875   5.746  48.587  1.00  0.00     0.124 A 
HETATM   19  C13 UNL     1      28.074   7.030  48.245  1.00  0.00     0.044 A 
HETATM   20  C14 UNL     1      29.497   7.212  47.808  1.00  0.00     0.055 A 
HETATM   21  C15 UNL     1      30.018   5.871  47.963  1.00  0.00     0.111 A 
HETATM   22  C16 UNL     1      29.614   7.836  46.455  1.00  0.00     0.026 C 
HETATM   23  C19 UNL     1      30.100   8.247  48.677  1.00  0.00     0.021 C 
HETATM   24  N2  UNL     1      29.102   5.058  48.399  1.00  0.00    -0.246 NA
HETATM   25  C17 UNL     1      29.389   9.322  46.720  1.00  0.00     0.007 C 
HETATM   26  C18 UNL     1      29.508   9.533  48.192  1.00  0.00     0.056 C 
HETATM   27  N3  UNL     1      30.932   8.227  49.645  1.00  0.00    -0.308 NA
HETATM   28  H23 UNL     1      31.330   7.318  49.965  1.00  0.00     0.186 HD
ENDBRANCH  16  18
ENDBRANCH   2  16
TORSDOF 9
ENDMDL
MODEL 7
REMARK VINA RESULT:      -6.8      2.081      2.463
REMARK  9 active torsions:
REMARK  status: ('A' for Active; 'I' for Inactive)
REMARK    1  A    between atoms: C3_4  and  C4_5 
REMARK    2  A    between atoms: C5_6  and  C6_7 
REMARK    3  A    between atoms: C6_7  and  C7_8 
REMARK    4  A    between atoms: C7_8  and  C8_9 
REMARK    5  A    between atoms: C8_9  and  C20_24 
REMARK    6  A    between atoms: C9_10  and  C10_11 
REMARK    7  A    between atoms: C11_12  and  N1_13 
REMARK    8  A    between atoms: N1_13  and  C12_14 
REMARK    9  A    between atoms: C20_24  and  O1_25 
ROOT
HETATM    1  C10 UNL     1      24.182   4.538  49.740  1.00  0.00     0.017 C 
HETATM    2  C11 UNL     1      25.300   4.370  50.404  1.00  0.00     0.090 C 
ENDROOT
BRANCH   1   3
HETATM    3  C9  UNL     1      23.642   3.474  48.909  1.00  0.00     0.006 C 
HETATM    4  C8  UNL     1      22.464   2.850  49.102  1.00  0.00    -0.056 C 
BRANCH   4   5
HETATM    5  C7  UNL     1      21.569   3.208  50.230  1.00  0.00     0.040 C 
BRANCH   5   6
HETATM    6  C6  UNL     1      21.783   2.384  51.466  1.00  0.00     0.031 C 
BRANCH   6   7
HETATM    7  C5  UNL     1      20.854   1.205  51.371  1.00  0.00    -0.026 C 
HETATM    8  C4  UNL     1      21.016  -0.008  51.868  1.00  0.00    -0.001 C 
BRANCH   8   9
HETATM    9  C3  UNL     1      22.190  -0.403  52.629  1.00  0.00     0.037 C 
HETATM   10  C2  UNL     1      22.179  -0.403  53.945  1.00  0.00     0.090 C 
HETATM   11  C1  UNL     1      21.101  -0.045  54.899  1.00  0.00     0.082 C 
HETATM   12  F1  UNL     1      23.249  -0.763  54.699  1.00  0.00    -0.211 F 
ENDBRANCH   8   9
ENDBRANCH   6   7
ENDBRANCH   5   6
ENDBRANCH   4   5
BRANCH   4  13
HETATM   13  C20 UNL     1      22.067   1.779  48.170  1.00  0.00     0.198 C 
BRANCH  13  14
HETATM   14  O1  UNL     1      22.917   1.761  47.091  1.00  0.00    -0.397 OA
HETATM   15  H26 UNL     1      23.795   1.423  47.387  1.00  0.00     0.209 HD
ENDBRANCH  13  14
ENDBRANCH   4  13
ENDBRANCH   1   3
BRANCH   2  16
HETATM   16  N1  UNL     1      26.015   3.119  50.318  1.00  0.00    -0.351 N 
HETATM   17  H14 UNL     1      26.579   2.654  49.574  1.00  0.00     0.166 HD
BRANCH  16  18
HETATM   18  C12 UNL     1      26.000   2.248  51.469  1.00  0.00     0.124 A 
HETATM   19  C13 UNL     1      26.698   1.115  51.658  1.00  0.00     0.044 A 
HETATM   20  C14 UNL     1      26.363   0.546  53.004  1.00  0.00     0.055 A 
HETATM   21  C15 UNL     1      25.407   1.514  53.496  1.00  0.00     0.111 A 
HETATM   22  C16 UNL     1      25.916  -0.879  52.936  1.00  0.00     0.026 C 
HETATM   23  C19 UNL     1      27.626   0.435  53.767  1.00  0.00     0.021 C 
HETATM   24  N2  UNL     1      25.210   2.462  52.629  1.00  0.00    -0.246 NA
HETATM   25  C17 UNL     1      27.220  -1.663  52.805  1.00  0.00     0.007 C 
HETATM   26  C18 UNL     1      28.332  -0.733  53.154  1.00  0.00     0.056 C 
HETATM   27  N3  UNL     1      28.145   1.086  54.734  1.00  0.00    -0.308 NA
HETATM   28  H23 UNL     1      27.634   1.897  55.145  1.00  0.00     0.186 HD
ENDBRANCH  16  18
ENDBRANCH   2  16
TORSDOF 9
ENDMDL
MODEL 8
REMARK VINA RESULT:      -6.7      2.922      5.116
REMARK  9 active torsions:
REMARK  status: ('A' for Active; 'I' for Inactive)
REMARK    1  A    between atoms: C3_4  and  C4_5 
REMARK    2  A    between atoms: C5_6  and  C6_7 
REMARK    3  A    between atoms: C6_7  and  C7_8 
REMARK    4  A    between atoms: C7_8  and  C8_9 
REMARK    5  A    between atoms: C8_9  and  C20_24 
REMARK    6  A    between atoms: C9_10  and  C10_11 
REMARK    7  A    between atoms: C11_12  and  N1_13 
REMARK    8  A    between atoms: N1_13  and  C12_14 
REMARK    9  A    between atoms: C20_24  and  O1_25 
ROOT
HETATM    1  C10 UNL     1      20.491   0.249  54.151  1.00  0.00     0.017 C 
HETATM    2  C11 UNL     1      21.509  -0.346  54.726  1.00  0.00     0.090 C 
ENDROOT
BRANCH   1   3
HETATM    3  C9  UNL     1      20.291   0.158  52.714  1.00  0.00     0.006 C 
HETATM    4  C8  UNL     1      20.455   1.164  51.835  1.00  0.00    -0.056 C 
BRANCH   4   5
HETATM    5  C7  UNL     1      20.875   2.519  52.271  1.00  0.00     0.040 C 
BRANCH   5   6
HETATM    6  C6  UNL     1      22.353   2.762  52.178  1.00  0.00     0.031 C 
BRANCH   6   7
HETATM    7  C5  UNL     1      22.543   3.963  51.294  1.00  0.00    -0.026 C 
HETATM    8  C4  UNL     1      22.887   3.997  50.020  1.00  0.00    -0.001 C 
BRANCH   8   9
HETATM    9  C3  UNL     1      23.148   2.800  49.237  1.00  0.00     0.037 C 
HETATM   10  C2  UNL     1      22.555   2.601  48.079  1.00  0.00     0.090 C 
HETATM   11  C1  UNL     1      21.578   3.440  47.341  1.00  0.00     0.082 C 
HETATM   12  F1  UNL     1      22.766   1.502  47.312  1.00  0.00    -0.211 F 
ENDBRANCH   8   9
ENDBRANCH   6   7
ENDBRANCH   5   6
ENDBRANCH   4   5
BRANCH   4  13
HETATM   13  C20 UNL     1      20.198   0.908  50.406  1.00  0.00     0.198 C 
BRANCH  13  14
HETATM   14  O1  UNL     1      19.484   1.951  49.866  1.00  0.00    -0.397 OA
HETATM   15  H26 UNL     1      20.102   2.702  49.699  1.00  0.00     0.209 HD
ENDBRANCH  13  14
ENDBRANCH   4  13
ENDBRANCH   1   3
BRANCH   2  16
HETATM   16  N1  UNL     1      22.450  -1.102  53.935  1.00  0.00    -0.351 N 
HETATM   17  H14 UNL     1      22.388  -1.975  53.369  1.00  0.00     0.166 HD
BRANCH  16  18
HETATM   18  C12 UNL     1      23.809  -0.619  53.852  1.00  0.00     0.124 A 
HETATM   19  C13 UNL     1      24.360   0.136  52.887  1.00  0.00     0.044 A 
HETATM   20  C14 UNL     1      25.799   0.394  53.221  1.00  0.00     0.055 A 
HETATM   21  C15 UNL     1      25.935  -0.316  54.474  1.00  0.00     0.111 A 
HETATM   22  C16 UNL     1      26.729   0.010  52.116  1.00  0.00     0.026 C 
HETATM   23  C19 UNL     1      25.985   1.861  53.283  1.00  0.00     0.021 C 
HETATM   24  N2  UNL     1      24.815  -0.881  54.818  1.00  0.00    -0.246 NA
HETATM   25  C17 UNL     1      26.631   1.177  51.136  1.00  0.00     0.007 C 
HETATM   26  C18 UNL     1      25.962   2.301  51.852  1.00  0.00     0.056 C 
HETATM   27  N3  UNL     1      26.141   2.703  54.230  1.00  0.00    -0.308 NA
HETATM   28  H23 UNL     1      26.152   2.371  55.219  1.00  0.00     0.186 HD
ENDBRANCH  16  18
ENDBRANCH   2  16
TORSDOF 9
ENDMDL
MODEL 9
REMARK VINA RESULT:      -6.6      5.357      7.320
REMARK  9 active torsions:
REMARK  status: ('A' for Active; 'I' for Inactive)
REMARK    1  A    between atoms: C3_4  and  C4_5 
REMARK    2  A    between atoms: C5_6  and  C6_7 
REMARK    3  A    between atoms: C6_7  and  C7_8 
REMARK    4  A    between atoms: C7_8  and  C8_9 
REMARK    5  A    between atoms: C8_9  and  C20_24 
REMARK    6  A    between atoms: C9_10  and  C10_11 
REMARK    7  A    between atoms: C11_12  and  N1_13 
REMARK    8  A    between atoms: N1_13  and  C12_14 
REMARK    9  A    between atoms: C20_24  and  O1_25 
ROOT
HETATM    1  C10 UNL     1      27.724   6.205  48.072  1.00  0.00     0.017 C 
HETATM    2  C11 UNL     1      28.812   6.921  48.226  1.00  0.00     0.090 C 
ENDROOT
BRANCH   1   3
HETATM    3  C9  UNL     1      27.594   4.902  48.706  1.00  0.00     0.006 C 
HETATM    4  C8  UNL     1      26.508   4.456  49.365  1.00  0.00    -0.056 C 
BRANCH   4   5
HETATM    5  C7  UNL     1      25.290   5.290  49.513  1.00  0.00     0.040 C 
BRANCH   5   6
HETATM    6  C6  UNL     1      24.057   4.686  48.906  1.00  0.00     0.031 C 
BRANCH   6   7
HETATM    7  C5  UNL     1      22.946   4.866  49.904  1.00  0.00    -0.026 C 
HETATM    8  C4  UNL     1      22.431   3.972  50.727  1.00  0.00    -0.001 C 
BRANCH   8   9
HETATM    9  C3  UNL     1      22.893   2.595  50.793  1.00  0.00     0.037 C 
HETATM   10  C2  UNL     1      23.655   2.180  51.783  1.00  0.00     0.090 C 
HETATM   11  C1  UNL     1      24.186   2.909  52.961  1.00  0.00     0.082 C 
HETATM   12  F1  UNL     1      24.111   0.906  51.889  1.00  0.00    -0.211 F 
ENDBRANCH   8   9
ENDBRANCH   6   7
ENDBRANCH   5   6
ENDBRANCH   4   5
BRANCH   4  13
HETATM   13  C20 UNL     1      26.544   3.109  49.962  1.00  0.00     0.198 C 
BRANCH  13  14
HETATM   14  O1  UNL     1      27.203   3.150  51.167  1.00  0.00    -0.397 OA
HETATM   15  H26 UNL     1      26.548   3.347  51.878  1.00  0.00     0.209 HD
ENDBRANCH  13  14
ENDBRANCH   4  13
ENDBRANCH   1   3
BRANCH   2  16
HETATM   16  N1  UNL     1      29.902   6.422  49.029  1.00  0.00    -0.351 N 
HETATM   17  H14 UNL     1      30.085   6.370  50.054  1.00  0.00     0.166 HD
BRANCH  16  18
HETATM   18  C12 UNL     1      31.041   5.853  48.348  1.00  0.00     0.124 A 
HETATM   19  C13 UNL     1      31.531   6.180  47.141  1.00  0.00     0.044 A 
HETATM   20  C14 UNL     1      32.725   5.324  46.842  1.00  0.00     0.055 A 
HETATM   21  C15 UNL     1      32.801   4.510  48.036  1.00  0.00     0.111 A 
HETATM   22  C16 UNL     1      32.613   4.606  45.535  1.00  0.00     0.026 C 
HETATM   23  C19 UNL     1      33.871   6.228  46.598  1.00  0.00     0.021 C 
HETATM   24  N2  UNL     1      31.853   4.814  48.873  1.00  0.00    -0.246 NA
HETATM   25  C17 UNL     1      32.979   5.672  44.504  1.00  0.00     0.007 C 
HETATM   26  C18 UNL     1      33.611   6.803  45.241  1.00  0.00     0.056 C 
HETATM   27  N3  UNL     1      34.908   6.556  47.267  1.00  0.00    -0.308 NA
HETATM   28  H23 UNL     1      35.066   6.142  48.211  1.00  0.00     0.186 HD
ENDBRANCH  16  18
ENDBRANCH   2  16
TORSDOF 9
ENDMDL
