MODEL 1
REMARK VINA RESULT:      -7.2      0.000      0.000
REMARK  6 active torsions:
REMARK  status: ('A' for Active; 'I' for Inactive)
REMARK    1  A    between atoms: C3_3  and  C4_5 
REMARK    2  A    between atoms: C8_11  and  C9_12 
REMARK    3  A    between atoms: C9_12  and  C10_13 
REMARK    4  A    between atoms: C13_18  and  N4_19 
REMARK    5  A    between atoms: N4_19  and  C14_20 
REMARK    6  A    between atoms: C14_20  and  C15_21 
ROOT
HETATM    1  C10 UNL     1      28.577  -0.145  54.575  1.00  0.00     0.129 C 
HETATM    2  C11 UNL     1      29.021   1.226  54.600  1.00  0.00     0.059 C 
HETATM    3  N2  UNL     1      29.379   2.316  54.610  1.00  0.00    -0.197 NA
ENDROOT
BRANCH   1   4
HETATM    4  C9  UNL     1      28.250  -0.671  53.198  1.00  0.00     0.068 C 
BRANCH   4   5
HETATM    5  C8  UNL     1      26.908  -0.140  52.823  1.00  0.00     0.014 C 
HETATM    6  C7  UNL     1      26.959   0.740  51.652  1.00  0.00     0.074 C 
HETATM    7  C6  UNL     1      26.689   2.172  51.827  1.00  0.00     0.126 C 
HETATM    8  N1  UNL     1      25.287   2.534  51.846  1.00  0.00    -0.386 N 
HETATM    9  C5  UNL     1      24.131   1.902  52.385  1.00  0.00     0.081 C 
HETATM   10  H5  UNL     1      25.131   3.444  51.358  1.00  0.00     0.159 HD
HETATM   11  C4  UNL     1      23.100   2.661  52.140  1.00  0.00     0.101 C 
HETATM   12  C13 UNL     1      23.770   0.686  53.112  1.00  0.00     0.074 C 
HETATM   13 CL1  UNL     1      21.372   2.730  52.390  1.00  0.00    -0.079 Cl
HETATM   14  C12 UNL     1      24.555  -0.285  53.585  1.00  0.00     0.148 C 
HETATM   15  N3  UNL     1      25.954  -0.548  53.593  1.00  0.00    -0.267 NA
BRANCH  11  16
HETATM   16  C3  UNL     1      23.196   3.921  51.433  1.00  0.00     0.136 C 
HETATM   17  C2  UNL     1      23.091   4.061  50.120  1.00  0.00     0.013 C 
HETATM   18  C1  UNL     1      22.858   2.915  49.205  1.00  0.00     0.039 C 
HETATM   19  F1  UNL     1      23.414   4.965  52.301  1.00  0.00    -0.205 F 
ENDBRANCH  11  16
BRANCH  12  20
HETATM   20  N4  UNL     1      22.408   0.503  53.355  1.00  0.00    -0.381 N 
HETATM   21  H15 UNL     1      21.862   1.355  53.631  1.00  0.00     0.160 HD
BRANCH  20  22
HETATM   22  C14 UNL     1      22.119  -0.909  53.140  1.00  0.00     0.189 C 
BRANCH  22  23
HETATM   23  C15 UNL     1      21.395  -1.467  54.331  1.00  0.00     0.250 C 
HETATM   24  O1  UNL     1      21.925  -2.036  55.273  1.00  0.00    -0.305 OA
ENDBRANCH  22  23
ENDBRANCH  20  22
ENDBRANCH  12  20
ENDBRANCH   4   5
ENDBRANCH   1   4
TORSDOF 6
ENDMDL
MODEL 2
REMARK VINA RESULT:      -7.1      1.626      2.095
REMARK  6 active torsions:
REMARK  status: ('A' for Active; 'I' for Inactive)
REMARK    1  A    between atoms: C3_3  and  C4_5 
REMARK    2  A    between atoms: C8_11  and  C9_12 
REMARK    3  A    between atoms: C9_12  and  C10_13 
REMARK    4  A    between atoms: C13_18  and  N4_19 
REMARK    5  A    between atoms: N4_19  and  C14_20 
REMARK    6  A    between atoms: C14_20  and  C15_21 
ROOT
HETATM    1  C10 UNL     1      29.589  -0.603  53.693  1.00  0.00     0.129 C 
HETATM    2  C11 UNL     1      29.247  -1.993  53.524  1.00  0.00     0.059 C 
HETATM    3  N2  UNL     1      28.970  -3.099  53.400  1.00  0.00    -0.197 NA
ENDROOT
BRANCH   1   4
HETATM    4  C9  UNL     1      28.593   0.191  54.505  1.00  0.00     0.068 C 
BRANCH   4   5
HETATM    5  C8  UNL     1      27.312   0.216  53.743  1.00  0.00     0.014 C 
HETATM    6  C7  UNL     1      27.447   0.869  52.438  1.00  0.00     0.074 C 
HETATM    7  C6  UNL     1      26.778   2.157  52.216  1.00  0.00     0.126 C 
HETATM    8  N1  UNL     1      25.380   2.066  51.852  1.00  0.00    -0.386 N 
HETATM    9  C5  UNL     1      24.326   1.203  52.266  1.00  0.00     0.081 C 
HETATM   10  H5  UNL     1      25.130   2.794  51.146  1.00  0.00     0.159 HD
HETATM   11  C4  UNL     1      23.239   1.557  51.640  1.00  0.00     0.101 C 
HETATM   12  C13 UNL     1      24.110   0.067  53.161  1.00  0.00     0.074 C 
HETATM   13 CL1  UNL     1      21.551   1.128  51.495  1.00  0.00    -0.079 Cl
HETATM   14  C12 UNL     1      24.962  -0.526  54.001  1.00  0.00     0.148 C 
HETATM   15  N3  UNL     1      26.326  -0.339  54.366  1.00  0.00    -0.267 NA
BRANCH  11  16
HETATM   16  C3  UNL     1      23.192   2.655  50.697  1.00  0.00     0.136 C 
HETATM   17  C2  UNL     1      22.908   3.910  51.011  1.00  0.00     0.013 C 
HETATM   18  C1  UNL     1      22.597   4.342  52.397  1.00  0.00     0.039 C 
HETATM   19  F1  UNL     1      23.482   2.231  49.422  1.00  0.00    -0.205 F 
ENDBRANCH  11  16
BRANCH  12  20
HETATM   20  N4  UNL     1      22.829  -0.486  53.145  1.00  0.00    -0.381 N 
HETATM   21  H15 UNL     1      22.312  -0.447  52.233  1.00  0.00     0.160 HD
BRANCH  20  22
HETATM   22  C14 UNL     1      22.562  -0.991  54.486  1.00  0.00     0.189 C 
BRANCH  22  23
HETATM   23  C15 UNL     1      21.180  -1.573  54.545  1.00  0.00     0.250 C 
HETATM   24  O1  UNL     1      20.247  -1.244  53.828  1.00  0.00    -0.305 OA
ENDBRANCH  22  23
ENDBRANCH  20  22
ENDBRANCH  12  20
ENDBRANCH   4   5
ENDBRANCH   1   4
TORSDOF 6
ENDMDL
MODEL 3
REMARK VINA RESULT:      -6.8      2.868      4.488
REMARK  6 active torsions:
REMARK  status: ('A' for Active; 'I' for Inactive)
REMARK    1  A    between atoms: C3_3  and  C4_5 
REMARK    2  A    between atoms: C8_11  and  C9_12 
REMARK    3  A    between atoms: C9_12  and  C10_13 
REMARK    4  A    between atoms: C13_18  and  N4_19 
REMARK    5  A    between atoms: N4_19  and  C14_20 
REMARK    6  A    between atoms: C14_20  and  C15_21 
ROOT
HETATM    1  C10 UNL     1      29.538  -0.068  53.455  1.00  0.00     0.129 C 
HETATM    2  C11 UNL     1      29.259  -1.481  53.413  1.00  0.00     0.059 C 
HETATM    3  N2  UNL     1      29.036  -2.606  53.391  1.00  0.00    -0.197 NA
ENDROOT
BRANCH   1   4
HETATM    4  C9  UNL     1      28.841   0.674  54.570  1.00  0.00     0.068 C 
BRANCH   4   5
HETATM    5  C8  UNL     1      27.416   0.849  54.169  1.00  0.00     0.014 C 
HETATM    6  C7  UNL     1      26.484   0.261  55.134  1.00  0.00     0.074 C 
HETATM    7  C6  UNL     1      25.707  -0.921  54.742  1.00  0.00     0.126 C 
HETATM    8  N1  UNL     1      24.505  -0.640  53.985  1.00  0.00    -0.386 N 
HETATM    9  C5  UNL     1      24.195   0.319  52.980  1.00  0.00     0.081 C 
HETATM   10  H5  UNL     1      23.733  -1.291  54.257  1.00  0.00     0.159 HD
HETATM   11  C4  UNL     1      22.959   0.135  52.609  1.00  0.00     0.101 C 
HETATM   12  C13 UNL     1      24.837   1.418  52.262  1.00  0.00     0.074 C 
HETATM   13 CL1  UNL     1      21.759   0.773  51.509  1.00  0.00    -0.079 Cl
HETATM   14  C12 UNL     1      26.097   1.854  52.328  1.00  0.00     0.148 C 
HETATM   15  N3  UNL     1      27.265   1.483  53.053  1.00  0.00    -0.267 NA
BRANCH  11  16
HETATM   16  C3  UNL     1      22.109  -0.893  53.172  1.00  0.00     0.136 C 
HETATM   17  C2  UNL     1      21.174  -0.684  54.087  1.00  0.00     0.013 C 
HETATM   18  C1  UNL     1      20.887   0.659  54.651  1.00  0.00     0.039 C 
HETATM   19  F1  UNL     1      22.394  -2.126  52.635  1.00  0.00    -0.205 F 
ENDBRANCH  11  16
BRANCH  12  20
HETATM   20  N4  UNL     1      24.023   2.123  51.373  1.00  0.00    -0.381 N 
HETATM   21  H15 UNL     1      23.220   1.594  50.953  1.00  0.00     0.160 HD
BRANCH  20  22
HETATM   22  C14 UNL     1      24.558   3.475  51.280  1.00  0.00     0.189 C 
BRANCH  22  23
HETATM   23  C15 UNL     1      23.432   4.467  51.259  1.00  0.00     0.250 C 
HETATM   24  O1  UNL     1      23.521   5.640  51.590  1.00  0.00    -0.305 OA
ENDBRANCH  22  23
ENDBRANCH  20  22
ENDBRANCH  12  20
ENDBRANCH   4   5
ENDBRANCH   1   4
TORSDOF 6
ENDMDL
MODEL 4
REMARK VINA RESULT:      -6.4      3.523      6.860
REMARK  6 active torsions:
REMARK  status: ('A' for Active; 'I' for Inactive)
REMARK    1  A    between atoms: C3_3  and  C4_5 
REMARK    2  A    between atoms: C8_11  and  C9_12 
REMARK    3  A    between atoms: C9_12  and  C10_13 
REMARK    4  A    between atoms: C13_18  and  N4_19 
REMARK    5  A    between atoms: N4_19  and  C14_20 
REMARK    6  A    between atoms: C14_20  and  C15_21 
ROOT
HETATM    1  C10 UNL     1      19.294  -0.093  52.026  1.00  0.00     0.129 C 
HETATM    2  C11 UNL     1      18.130  -0.587  52.716  1.00  0.00     0.059 C 
HETATM    3  N2  UNL     1      17.206  -0.976  53.275  1.00  0.00    -0.197 NA
ENDROOT
BRANCH   1   4
HETATM    4  C9  UNL     1      19.744   1.281  52.465  1.00  0.00     0.068 C 
BRANCH   4   5
HETATM    5  C8  UNL     1      21.230   1.323  52.346  1.00  0.00     0.014 C 
HETATM    6  C7  UNL     1      21.846   0.006  52.528  1.00  0.00     0.074 C 
HETATM    7  C6  UNL     1      22.660  -0.238  53.725  1.00  0.00     0.126 C 
HETATM    8  N1  UNL     1      24.031   0.220  53.637  1.00  0.00    -0.386 N 
HETATM    9  C5  UNL     1      24.633   1.366  53.045  1.00  0.00     0.081 C 
HETATM   10  H5  UNL     1      24.678  -0.447  54.115  1.00  0.00     0.159 HD
HETATM   11  C4  UNL     1      25.916   1.312  53.267  1.00  0.00     0.101 C 
HETATM   12  C13 UNL     1      24.246   2.552  52.283  1.00  0.00     0.074 C 
HETATM   13 CL1  UNL     1      27.389   2.200  52.955  1.00  0.00    -0.079 Cl
HETATM   14  C12 UNL     1      23.031   2.973  51.926  1.00  0.00     0.148 C 
HETATM   15  N3  UNL     1      21.699   2.503  52.107  1.00  0.00    -0.267 NA
BRANCH  11  16
HETATM   16  C3  UNL     1      26.548   0.235  54.000  1.00  0.00     0.136 C 
HETATM   17  C2  UNL     1      27.011  -0.880  53.455  1.00  0.00     0.013 C 
HETATM   18  C1  UNL     1      26.933  -1.158  51.999  1.00  0.00     0.039 C 
HETATM   19  F1  UNL     1      26.607   0.514  55.344  1.00  0.00    -0.205 F 
ENDBRANCH  11  16
BRANCH  12  20
HETATM   20  N4  UNL     1      25.293   3.374  51.863  1.00  0.00    -0.381 N 
HETATM   21  H15 UNL     1      26.057   3.555  52.559  1.00  0.00     0.160 HD
BRANCH  20  22
HETATM   22  C14 UNL     1      25.005   3.768  50.490  1.00  0.00     0.189 C 
BRANCH  22  23
HETATM   23  C15 UNL     1      26.160   3.404  49.603  1.00  0.00     0.250 C 
HETATM   24  O1  UNL     1      27.265   3.925  49.636  1.00  0.00    -0.305 OA
ENDBRANCH  22  23
ENDBRANCH  20  22
ENDBRANCH  12  20
ENDBRANCH   4   5
ENDBRANCH   1   4
TORSDOF 6
ENDMDL
MODEL 5
REMARK VINA RESULT:      -6.3      3.581      5.080
REMARK  6 active torsions:
REMARK  status: ('A' for Active; 'I' for Inactive)
REMARK    1  A    between atoms: C3_3  and  C4_5 
REMARK    2  A    between atoms: C8_11  and  C9_12 
REMARK    3  A    between atoms: C9_12  and  C10_13 
REMARK    4  A    between atoms: C13_18  and  N4_19 
REMARK    5  A    between atoms: N4_19  and  C14_20 
REMARK    6  A    between atoms: C14_20  and  C15_21 
ROOT
HETATM    1  C10 UNL     1      26.343  -0.387  54.045  1.00  0.00     0.129 C 
HETATM    2  C11 UNL     1      27.531   0.192  54.620  1.00  0.00     0.059 C 
HETATM    3  N2  UNL     1      28.483   0.650  55.068  1.00  0.00    -0.197 NA
ENDROOT
BRANCH   1   4
HETATM    4  C9  UNL     1      26.308  -0.373  52.535  1.00  0.00     0.068 C 
BRANCH   4   5
HETATM    5  C8  UNL     1      25.834   0.975  52.112  1.00  0.00     0.014 C 
HETATM    6  C7  UNL     1      24.460   1.248  52.541  1.00  0.00     0.074 C 
HETATM    7  C6  UNL     1      23.404   1.342  51.525  1.00  0.00     0.126 C 
HETATM    8  N1  UNL     1      23.293   2.631  50.874  1.00  0.00    -0.386 N 
HETATM    9  C5  UNL     1      24.258   3.589  50.451  1.00  0.00     0.081 C 
HETATM   10  H5  UNL     1      22.292   2.873  50.695  1.00  0.00     0.159 HD
HETATM   11  C4  UNL     1      23.626   4.585  49.897  1.00  0.00     0.101 C 
HETATM   12  C13 UNL     1      25.707   3.777  50.455  1.00  0.00     0.074 C 
HETATM   13 CL1  UNL     1      23.925   6.127  49.129  1.00  0.00    -0.079 Cl
HETATM   14  C12 UNL     1      26.670   2.953  50.875  1.00  0.00     0.148 C 
HETATM   15  N3  UNL     1      26.714   1.651  51.449  1.00  0.00    -0.267 NA
BRANCH  11  16
HETATM   16  C3  UNL     1      22.185   4.636  49.771  1.00  0.00     0.136 C 
HETATM   17  C2  UNL     1      21.501   4.205  48.722  1.00  0.00     0.013 C 
HETATM   18  C1  UNL     1      22.152   3.606  47.529  1.00  0.00     0.039 C 
HETATM   19  F1  UNL     1      21.606   5.195  50.886  1.00  0.00    -0.205 F 
ENDBRANCH  11  16
BRANCH  12  20
HETATM   20  N4  UNL     1      26.164   4.994  49.946  1.00  0.00    -0.381 N 
HETATM   21  H15 UNL     1      25.708   5.861  50.322  1.00  0.00     0.160 HD
BRANCH  20  22
HETATM   22  C14 UNL     1      27.210   4.690  48.979  1.00  0.00     0.189 C 
BRANCH  22  23
HETATM   23  C15 UNL     1      27.625   5.945  48.267  1.00  0.00     0.250 C 
HETATM   24  O1  UNL     1      27.774   7.037  48.795  1.00  0.00    -0.305 OA
ENDBRANCH  22  23
ENDBRANCH  20  22
ENDBRANCH  12  20
ENDBRANCH   4   5
ENDBRANCH   1   4
TORSDOF 6
ENDMDL
MODEL 6
REMARK VINA RESULT:      -6.1      2.689      5.672
REMARK  6 active torsions:
REMARK  status: ('A' for Active; 'I' for Inactive)
REMARK    1  A    between atoms: C3_3  and  C4_5 
REMARK    2  A    between atoms: C8_11  and  C9_12 
REMARK    3  A    between atoms: C9_12  and  C10_13 
REMARK    4  A    between atoms: C13_18  and  N4_19 
REMARK    5  A    between atoms: N4_19  and  C14_20 
REMARK    6  A    between atoms: C14_20  and  C15_21 
ROOT
HETATM    1  C10 UNL     1      22.277   3.769  48.756  1.00  0.00     0.129 C 
HETATM    2  C11 UNL     1      21.850   4.371  47.519  1.00  0.00     0.059 C 
HETATM    3  N2  UNL     1      21.518   4.858  46.534  1.00  0.00    -0.197 NA
ENDROOT
BRANCH   1   4
HETATM    4  C9  UNL     1      23.772   3.785  48.976  1.00  0.00     0.068 C 
BRANCH   4   5
HETATM    5  C8  UNL     1      24.041   3.091  50.268  1.00  0.00     0.014 C 
HETATM    6  C7  UNL     1      25.386   3.363  50.783  1.00  0.00     0.074 C 
HETATM    7  C6  UNL     1      26.369   2.274  50.811  1.00  0.00     0.126 C 
HETATM    8  N1  UNL     1      26.276   1.395  51.958  1.00  0.00    -0.386 N 
HETATM    9  C5  UNL     1      25.173   0.876  52.694  1.00  0.00     0.081 C 
HETATM   10  H5  UNL     1      27.226   1.102  52.282  1.00  0.00     0.159 HD
HETATM   11  C4  UNL     1      25.639   0.107  53.637  1.00  0.00     0.101 C 
HETATM   12  C13 UNL     1      23.713   0.950  52.702  1.00  0.00     0.074 C 
HETATM   13 CL1  UNL     1      25.101  -0.903  54.958  1.00  0.00    -0.079 Cl
HETATM   14  C12 UNL     1      22.890   1.581  51.860  1.00  0.00     0.148 C 
HETATM   15  N3  UNL     1      23.048   2.383  50.695  1.00  0.00    -0.267 NA
BRANCH  11  16
HETATM   16  C3  UNL     1      27.053  -0.130  53.839  1.00  0.00     0.136 C 
HETATM   17  C2  UNL     1      27.740  -1.119  53.288  1.00  0.00     0.013 C 
HETATM   18  C1  UNL     1      27.124  -2.119  52.380  1.00  0.00     0.039 C 
HETATM   19  F1  UNL     1      27.600   0.807  54.683  1.00  0.00    -0.205 F 
ENDBRANCH  11  16
BRANCH  12  20
HETATM   20  N4  UNL     1      23.074   0.265  53.736  1.00  0.00    -0.381 N 
HETATM   21  H15 UNL     1      23.428   0.445  54.707  1.00  0.00     0.160 HD
BRANCH  20  22
HETATM   22  C14 UNL     1      22.034  -0.555  53.129  1.00  0.00     0.189 C 
BRANCH  22  23
HETATM   23  C15 UNL     1      21.069  -1.014  54.184  1.00  0.00     0.250 C 
HETATM   24  O1  UNL     1      21.220  -1.995  54.897  1.00  0.00    -0.305 OA
ENDBRANCH  22  23
ENDBRANCH  20  22
ENDBRANCH  12  20
ENDBRANCH   4   5
ENDBRANCH   1   4
TORSDOF 6
ENDMDL
MODEL 7
REMARK VINA RESULT:      -6.1     10.527     12.701
REMARK  6 active torsions:
REMARK  status: ('A' for Active; 'I' for Inactive)
REMARK    1  A    between atoms: C3_3  and  C4_5 
REMARK    2  A    between atoms: C8_11  and  C9_12 
REMARK    3  A    between atoms: C9_12  and  C10_13 
REMARK    4  A    between atoms: C13_18  and  N4_19 
REMARK    5  A    between atoms: N4_19  and  C14_20 
REMARK    6  A    between atoms: C14_20  and  C15_21 
ROOT
HETATM    1  C10 UNL     1      31.169  10.485  48.197  1.00  0.00     0.129 C 
HETATM    2  C11 UNL     1      30.873  11.728  48.865  1.00  0.00     0.059 C 
HETATM    3  N2  UNL     1      30.630  12.712  49.403  1.00  0.00    -0.197 NA
ENDROOT
BRANCH   1   4
HETATM    4  C9  UNL     1      31.044   9.260  49.072  1.00  0.00     0.068 C 
BRANCH   4   5
HETATM    5  C8  UNL     1      31.603   8.108  48.310  1.00  0.00     0.014 C 
HETATM    6  C7  UNL     1      31.055   6.823  48.751  1.00  0.00     0.074 C 
HETATM    7  C6  UNL     1      31.936   5.875  49.444  1.00  0.00     0.126 C 
HETATM    8  N1  UNL     1      32.753   5.052  48.577  1.00  0.00    -0.386 N 
HETATM    9  C5  UNL     1      33.431   5.312  47.351  1.00  0.00     0.081 C 
HETATM   10  H5  UNL     1      32.844   4.084  48.957  1.00  0.00     0.159 HD
HETATM   11  C4  UNL     1      34.046   4.223  46.987  1.00  0.00     0.101 C 
HETATM   12  C13 UNL     1      33.632   6.411  46.408  1.00  0.00     0.074 C 
HETATM   13 CL1  UNL     1      35.066   3.598  45.713  1.00  0.00    -0.079 Cl
HETATM   14  C12 UNL     1      33.215   7.677  46.477  1.00  0.00     0.148 C 
HETATM   15  N3  UNL     1      32.462   8.450  47.406  1.00  0.00    -0.267 NA
BRANCH  11  16
HETATM   16  C3  UNL     1      34.000   2.995  47.753  1.00  0.00     0.136 C 
HETATM   17  C2  UNL     1      33.094   2.041  47.600  1.00  0.00     0.013 C 
HETATM   18  C1  UNL     1      31.998   2.125  46.602  1.00  0.00     0.039 C 
HETATM   19  F1  UNL     1      35.023   2.941  48.670  1.00  0.00    -0.205 F 
ENDBRANCH  11  16
BRANCH  12  20
HETATM   20  N4  UNL     1      34.369   6.103  45.263  1.00  0.00    -0.381 N 
HETATM   21  H15 UNL     1      35.244   5.541  45.405  1.00  0.00     0.160 HD
BRANCH  20  22
HETATM   22  C14 UNL     1      33.666   6.688  44.129  1.00  0.00     0.189 C 
BRANCH  22  23
HETATM   23  C15 UNL     1      33.225   5.603  43.190  1.00  0.00     0.250 C 
HETATM   24  O1  UNL     1      32.625   5.782  42.140  1.00  0.00    -0.305 OA
ENDBRANCH  22  23
ENDBRANCH  20  22
ENDBRANCH  12  20
ENDBRANCH   4   5
ENDBRANCH   1   4
TORSDOF 6
ENDMDL
MODEL 8
REMARK VINA RESULT:      -5.9      2.658      5.377
REMARK  6 active torsions:
REMARK  status: ('A' for Active; 'I' for Inactive)
REMARK    1  A    between atoms: C3_3  and  C4_5 
REMARK    2  A    between atoms: C8_11  and  C9_12 
REMARK    3  A    between atoms: C9_12  and  C10_13 
REMARK    4  A    between atoms: C13_18  and  N4_19 
REMARK    5  A    between atoms: N4_19  and  C14_20 
REMARK    6  A    between atoms: C14_20  and  C15_21 
ROOT
HETATM    1  C10 UNL     1      23.033   5.521  49.781  1.00  0.00     0.129 C 
HETATM    2  C11 UNL     1      23.624   6.641  50.468  1.00  0.00     0.059 C 
HETATM    3  N2  UNL     1      24.103   7.527  51.019  1.00  0.00    -0.197 NA
ENDROOT
BRANCH   1   4
HETATM    4  C9  UNL     1      24.026   4.489  49.300  1.00  0.00     0.068 C 
BRANCH   4   5
HETATM    5  C8  UNL     1      24.308   3.573  50.441  1.00  0.00     0.014 C 
HETATM    6  C7  UNL     1      25.741   3.454  50.725  1.00  0.00     0.074 C 
HETATM    7  C6  UNL     1      26.414   2.177  50.460  1.00  0.00     0.126 C 
HETATM    8  N1  UNL     1      26.282   1.186  51.508  1.00  0.00    -0.386 N 
HETATM    9  C5  UNL     1      25.211   0.831  52.376  1.00  0.00     0.081 C 
HETATM   10  H5  UNL     1      27.167   0.641  51.620  1.00  0.00     0.159 HD
HETATM   11  C4  UNL     1      25.609  -0.151  53.133  1.00  0.00     0.101 C 
HETATM   12  C13 UNL     1      23.835   1.235  52.660  1.00  0.00     0.074 C 
HETATM   13 CL1  UNL     1      25.045  -1.192  54.420  1.00  0.00    -0.079 Cl
HETATM   14  C12 UNL     1      23.076   2.151  52.053  1.00  0.00     0.148 C 
HETATM   15  N3  UNL     1      23.248   3.056  50.968  1.00  0.00    -0.267 NA
BRANCH  11  16
HETATM   16  C3  UNL     1      26.933  -0.731  53.047  1.00  0.00     0.136 C 
HETATM   17  C2  UNL     1      27.978  -0.340  53.761  1.00  0.00     0.013 C 
HETATM   18  C1  UNL     1      27.907   0.761  54.754  1.00  0.00     0.039 C 
HETATM   19  F1  UNL     1      26.973  -1.746  52.121  1.00  0.00    -0.205 F 
ENDBRANCH  11  16
BRANCH  12  20
HETATM   20  N4  UNL     1      23.211   0.571  53.718  1.00  0.00    -0.381 N 
HETATM   21  H15 UNL     1      23.819   0.312  54.533  1.00  0.00     0.160 HD
BRANCH  20  22
HETATM   22  C14 UNL     1      21.806   0.420  53.362  1.00  0.00     0.189 C 
BRANCH  22  23
HETATM   23  C15 UNL     1      21.144  -0.543  54.304  1.00  0.00     0.250 C 
HETATM   24  O1  UNL     1      21.725  -1.238  55.124  1.00  0.00    -0.305 OA
ENDBRANCH  22  23
ENDBRANCH  20  22
ENDBRANCH  12  20
ENDBRANCH   4   5
ENDBRANCH   1   4
TORSDOF 6
ENDMDL
MODEL 9
REMARK VINA RESULT:      -5.9      2.924      5.876
REMARK  6 active torsions:
REMARK  status: ('A' for Active; 'I' for Inactive)
REMARK    1  A    between atoms: C3_3  and  C4_5 
REMARK    2  A    between atoms: C8_11  and  C9_12 
REMARK    3  A    between atoms: C9_12  and  C10_13 
REMARK    4  A    between atoms: C13_18  and  N4_19 
REMARK    5  A    between atoms: N4_19  and  C14_20 
REMARK    6  A    between atoms: C14_20  and  C15_21 
ROOT
HETATM    1  C10 UNL     1      22.773   5.542  50.217  1.00  0.00     0.129 C 
HETATM    2  C11 UNL     1      23.223   6.888  50.468  1.00  0.00     0.059 C 
HETATM    3  N2  UNL     1      23.592   7.956  50.669  1.00  0.00    -0.197 NA
ENDROOT
BRANCH   1   4
HETATM    4  C9  UNL     1      23.784   4.667  49.514  1.00  0.00     0.068 C 
BRANCH   4   5
HETATM    5  C8  UNL     1      23.969   3.443  50.344  1.00  0.00     0.014 C 
HETATM    6  C7  UNL     1      23.164   2.314  49.870  1.00  0.00     0.074 C 
HETATM    7  C6  UNL     1      22.047   1.841  50.697  1.00  0.00     0.126 C 
HETATM    8  N1  UNL     1      22.415   0.931  51.761  1.00  0.00    -0.386 N 
HETATM    9  C5  UNL     1      23.536   0.868  52.637  1.00  0.00     0.081 C 
HETATM   10  H5  UNL     1      21.691   0.189  51.884  1.00  0.00     0.159 HD
HETATM   11  C4  UNL     1      23.373  -0.150  53.434  1.00  0.00     0.101 C 
HETATM   12  C13 UNL     1      24.782   1.588  52.896  1.00  0.00     0.074 C 
HETATM   13 CL1  UNL     1      24.158  -0.983  54.755  1.00  0.00    -0.079 Cl
HETATM   14  C12 UNL     1      25.252   2.702  52.330  1.00  0.00     0.148 C 
HETATM   15  N3  UNL     1      24.800   3.599  51.322  1.00  0.00    -0.267 NA
BRANCH  11  16
HETATM   16  C3  UNL     1      22.219  -1.022  53.377  1.00  0.00     0.136 C 
HETATM   17  C2  UNL     1      21.081  -0.814  54.022  1.00  0.00     0.013 C 
HETATM   18  C1  UNL     1      20.856   0.365  54.897  1.00  0.00     0.039 C 
HETATM   19  F1  UNL     1      22.451  -2.106  52.563  1.00  0.00    -0.205 F 
ENDBRANCH  11  16
BRANCH  12  20
HETATM   20  N4  UNL     1      25.608   1.040  53.879  1.00  0.00    -0.381 N 
HETATM   21  H15 UNL     1      25.170   0.335  54.521  1.00  0.00     0.160 HD
BRANCH  20  22
HETATM   22  C14 UNL     1      26.925   1.644  53.719  1.00  0.00     0.189 C 
BRANCH  22  23
HETATM   23  C15 UNL     1      27.981   0.698  54.209  1.00  0.00     0.250 C 
HETATM   24  O1  UNL     1      27.798  -0.211  55.005  1.00  0.00    -0.305 OA
ENDBRANCH  22  23
ENDBRANCH  20  22
ENDBRANCH  12  20
ENDBRANCH   4   5
ENDBRANCH   1   4
TORSDOF 6
ENDMDL
