MODEL 1
REMARK VINA RESULT:      -6.2      0.000      0.000
REMARK  11 active torsions:
REMARK  status: ('A' for Active; 'I' for Inactive)
REMARK    1  A    between atoms: C2_2  and  C3_3 
REMARK       I    between atoms: C3_3  and  N1_5 
REMARK    2  A    between atoms: N1_5  and  C4_6 
REMARK    3  A    between atoms: C7_9  and  O2_10 
REMARK    4  A    between atoms: O2_10  and  C8_11 
REMARK    5  A    between atoms: C8_11  and  C9_12 
REMARK    6  A    between atoms: C9_12  and  C10_13 
REMARK    7  A    between atoms: C10_13  and  C11_14 
REMARK    8  A    between atoms: C11_14  and  C12_15 
REMARK    9  A    between atoms: C13_16  and  C14_17 
REMARK   10  A    between atoms: C13_16  and  O4_19 
REMARK   11  A    between atoms: C14_17  and  O3_18 
ROOT
HETATM    1  C4  UNL     1      25.228  -0.836  54.376  1.00  0.00     0.034 A 
HETATM    2  C5  UNL     1      24.485  -1.196  55.469  1.00  0.00     0.032 A 
HETATM    3  C6  UNL     1      23.118  -1.251  55.472  1.00  0.00     0.039 A 
HETATM    4  C7  UNL     1      22.384  -0.944  54.350  1.00  0.00     0.068 A 
HETATM    5  C16 UNL     1      23.133  -0.574  53.222  1.00  0.00     0.039 A 
HETATM    6  C17 UNL     1      24.528  -0.522  53.237  1.00  0.00     0.032 A 
ENDROOT
BRANCH   4   7
HETATM    7  O2  UNL     1      21.068  -0.912  54.061  1.00  0.00    -0.351 OA
BRANCH   7   8
HETATM    8  C8  UNL     1      20.209   0.105  53.700  1.00  0.00     0.175 C 
BRANCH   8   9
HETATM    9  C9  UNL     1      19.629  -0.063  52.341  1.00  0.00     0.027 C 
BRANCH   9  10
HETATM   10  C10 UNL     1      20.124   0.983  51.352  1.00  0.00     0.006 C 
BRANCH  10  11
HETATM   11  C11 UNL     1      20.909   2.091  52.018  1.00  0.00     0.030 C 
BRANCH  11  12
HETATM   12  C12 UNL     1      22.188   2.237  51.326  1.00  0.00     0.008 C 
HETATM   13  C13 UNL     1      23.349   2.795  51.603  1.00  0.00     0.065 C 
BRANCH  13  14
HETATM   14  C14 UNL     1      23.837   3.529  52.790  1.00  0.00     0.228 C 
BRANCH  14  15
HETATM   15  O3  UNL     1      25.038   3.012  53.207  1.00  0.00    -0.394 OA
HETATM   16  H20 UNL     1      25.772   3.647  53.254  1.00  0.00     0.209 HD
ENDBRANCH  14  15
ENDBRANCH  13  14
BRANCH  13  17
HETATM   17  O4  UNL     1      24.386   2.747  50.687  1.00  0.00    -0.358 OA
HETATM   18  C15 UNL     1      24.391   3.431  49.463  1.00  0.00     0.209 C 
ENDBRANCH  13  17
ENDBRANCH  11  12
ENDBRANCH  10  11
ENDBRANCH   9  10
ENDBRANCH   8   9
ENDBRANCH   7   8
ENDBRANCH   4   7
BRANCH   1  19
HETATM   19  N1  UNL     1      26.639  -0.773  54.339  1.00  0.00    -0.327 N 
HETATM   20  C3  UNL     1      27.484   0.327  54.530  1.00  0.00     0.221 C 
HETATM   21  O1  UNL     1      27.023   1.458  54.773  1.00  0.00    -0.273 OA
HETATM   22  H6  UNL     1      27.199  -1.631  54.146  1.00  0.00     0.169 HD
BRANCH  20  23
HETATM   23  C2  UNL     1      28.952   0.315  54.475  1.00  0.00     0.098 C 
HETATM   24  C1  UNL     1      29.491  -0.877  53.730  1.00  0.00     0.014 C 
ENDBRANCH  20  23
ENDBRANCH   1  19
TORSDOF 11
ENDMDL
MODEL 2
REMARK VINA RESULT:      -6.1      4.654      7.298
REMARK  11 active torsions:
REMARK  status: ('A' for Active; 'I' for Inactive)
REMARK    1  A    between atoms: C2_2  and  C3_3 
REMARK       I    between atoms: C3_3  and  N1_5 
REMARK    2  A    between atoms: N1_5  and  C4_6 
REMARK    3  A    between atoms: C7_9  and  O2_10 
REMARK    4  A    between atoms: O2_10  and  C8_11 
REMARK    5  A    between atoms: C8_11  and  C9_12 
REMARK    6  A    between atoms: C9_12  and  C10_13 
REMARK    7  A    between atoms: C10_13  and  C11_14 
REMARK    8  A    between atoms: C11_14  and  C12_15 
REMARK    9  A    between atoms: C13_16  and  C14_17 
REMARK   10  A    between atoms: C13_16  and  O4_19 
REMARK   11  A    between atoms: C14_17  and  O3_18 
ROOT
HETATM    1  C4  UNL     1      24.797   0.571  53.074  1.00  0.00     0.034 A 
HETATM    2  C5  UNL     1      25.973   0.141  52.518  1.00  0.00     0.032 A 
HETATM    3  C6  UNL     1      26.750   0.913  51.699  1.00  0.00     0.039 A 
HETATM    4  C7  UNL     1      26.395   2.201  51.375  1.00  0.00     0.068 A 
HETATM    5  C16 UNL     1      25.192   2.654  51.938  1.00  0.00     0.039 A 
HETATM    6  C17 UNL     1      24.410   1.854  52.771  1.00  0.00     0.032 A 
ENDROOT
BRANCH   4   7
HETATM    7  O2  UNL     1      26.945   3.172  50.617  1.00  0.00    -0.351 OA
BRANCH   7   8
HETATM    8  C8  UNL     1      26.416   4.080  49.725  1.00  0.00     0.175 C 
BRANCH   8   9
HETATM    9  C9  UNL     1      27.411   4.606  48.754  1.00  0.00     0.027 C 
BRANCH   9  10
HETATM   10  C10 UNL     1      27.234   6.091  48.469  1.00  0.00     0.006 C 
BRANCH  10  11
HETATM   11  C11 UNL     1      28.477   6.725  47.886  1.00  0.00     0.030 C 
BRANCH  11  12
HETATM   12  C12 UNL     1      29.620   5.862  48.177  1.00  0.00     0.008 C 
HETATM   13  C13 UNL     1      30.871   6.050  48.544  1.00  0.00     0.065 C 
BRANCH  13  14
HETATM   14  C14 UNL     1      31.648   7.276  48.825  1.00  0.00     0.228 C 
BRANCH  14  15
HETATM   15  O3  UNL     1      31.608   7.567  50.165  1.00  0.00    -0.394 OA
HETATM   16  H20 UNL     1      32.126   6.975  50.736  1.00  0.00     0.209 HD
ENDBRANCH  14  15
ENDBRANCH  13  14
BRANCH  13  17
HETATM   17  O4  UNL     1      31.715   4.969  48.738  1.00  0.00    -0.358 OA
HETATM   18  C15 UNL     1      32.851   4.704  47.960  1.00  0.00     0.209 C 
ENDBRANCH  13  17
ENDBRANCH  11  12
ENDBRANCH  10  11
ENDBRANCH   9  10
ENDBRANCH   8   9
ENDBRANCH   7   8
ENDBRANCH   4   7
BRANCH   1  19
HETATM   19  N1  UNL     1      23.973  -0.199  53.926  1.00  0.00    -0.327 N 
HETATM   20  C3  UNL     1      22.706  -0.740  53.684  1.00  0.00     0.221 C 
HETATM   21  O1  UNL     1      22.134  -0.577  52.590  1.00  0.00    -0.273 OA
HETATM   22  H6  UNL     1      24.291  -0.436  54.891  1.00  0.00     0.169 HD
BRANCH  20  23
HETATM   23  C2  UNL     1      21.906  -1.534  54.626  1.00  0.00     0.098 C 
HETATM   24  C1  UNL     1      20.475  -1.685  54.182  1.00  0.00     0.014 C 
ENDBRANCH  20  23
ENDBRANCH   1  19
TORSDOF 11
ENDMDL
MODEL 3
REMARK VINA RESULT:      -6.1      2.427      5.492
REMARK  11 active torsions:
REMARK  status: ('A' for Active; 'I' for Inactive)
REMARK    1  A    between atoms: C2_2  and  C3_3 
REMARK       I    between atoms: C3_3  and  N1_5 
REMARK    2  A    between atoms: N1_5  and  C4_6 
REMARK    3  A    between atoms: C7_9  and  O2_10 
REMARK    4  A    between atoms: O2_10  and  C8_11 
REMARK    5  A    between atoms: C8_11  and  C9_12 
REMARK    6  A    between atoms: C9_12  and  C10_13 
REMARK    7  A    between atoms: C10_13  and  C11_14 
REMARK    8  A    between atoms: C11_14  and  C12_15 
REMARK    9  A    between atoms: C13_16  and  C14_17 
REMARK   10  A    between atoms: C13_16  and  O4_19 
REMARK   11  A    between atoms: C14_17  and  O3_18 
ROOT
HETATM    1  C4  UNL     1      24.230   3.618  50.272  1.00  0.00     0.034 A 
HETATM    2  C5  UNL     1      23.386   2.801  49.569  1.00  0.00     0.032 A 
HETATM    3  C6  UNL     1      22.471   1.971  50.157  1.00  0.00     0.039 A 
HETATM    4  C7  UNL     1      22.337   1.903  51.524  1.00  0.00     0.068 A 
HETATM    5  C16 UNL     1      23.196   2.736  52.256  1.00  0.00     0.039 A 
HETATM    6  C17 UNL     1      24.124   3.577  51.641  1.00  0.00     0.032 A 
ENDROOT
BRANCH   4   7
HETATM    7  O2  UNL     1      21.546   1.203  52.363  1.00  0.00    -0.351 OA
BRANCH   7   8
HETATM    8  C8  UNL     1      21.616  -0.078  52.870  1.00  0.00     0.175 C 
BRANCH   8   9
HETATM    9  C9  UNL     1      22.062  -0.131  54.287  1.00  0.00     0.027 C 
BRANCH   9  10
HETATM   10  C10 UNL     1      23.387  -0.859  54.464  1.00  0.00     0.006 C 
BRANCH  10  11
HETATM   11  C11 UNL     1      24.376  -0.546  53.363  1.00  0.00     0.030 C 
BRANCH  11  12
HETATM   12  C12 UNL     1      25.575   0.034  53.965  1.00  0.00     0.008 C 
HETATM   13  C13 UNL     1      26.591   0.752  53.533  1.00  0.00     0.065 C 
BRANCH  13  14
HETATM   14  C14 UNL     1      26.931   1.284  52.195  1.00  0.00     0.228 C 
BRANCH  14  15
HETATM   15  O3  UNL     1      27.474   2.539  52.307  1.00  0.00    -0.394 OA
HETATM   16  H20 UNL     1      27.134   3.198  51.680  1.00  0.00     0.209 HD
ENDBRANCH  14  15
ENDBRANCH  13  14
BRANCH  13  17
HETATM   17  O4  UNL     1      27.592   1.148  54.405  1.00  0.00    -0.358 OA
HETATM   18  C15 UNL     1      28.579   0.292  54.914  1.00  0.00     0.209 C 
ENDBRANCH  13  17
ENDBRANCH  11  12
ENDBRANCH  10  11
ENDBRANCH   9  10
ENDBRANCH   8   9
ENDBRANCH   7   8
ENDBRANCH   4   7
BRANCH   1  19
HETATM   19  N1  UNL     1      25.183   4.489  49.696  1.00  0.00    -0.327 N 
HETATM   20  C3  UNL     1      26.493   4.224  49.282  1.00  0.00     0.221 C 
HETATM   21  O1  UNL     1      26.985   3.086  49.394  1.00  0.00    -0.273 OA
HETATM   22  H6  UNL     1      24.944   5.491  49.526  1.00  0.00     0.169 HD
BRANCH  20  23
HETATM   23  C2  UNL     1      27.429   5.188  48.688  1.00  0.00     0.098 C 
HETATM   24  C1  UNL     1      26.827   6.561  48.543  1.00  0.00     0.014 C 
ENDBRANCH  20  23
ENDBRANCH   1  19
TORSDOF 11
ENDMDL
MODEL 4
REMARK VINA RESULT:      -6.0      1.964      4.023
REMARK  11 active torsions:
REMARK  status: ('A' for Active; 'I' for Inactive)
REMARK    1  A    between atoms: C2_2  and  C3_3 
REMARK       I    between atoms: C3_3  and  N1_5 
REMARK    2  A    between atoms: N1_5  and  C4_6 
REMARK    3  A    between atoms: C7_9  and  O2_10 
REMARK    4  A    between atoms: O2_10  and  C8_11 
REMARK    5  A    between atoms: C8_11  and  C9_12 
REMARK    6  A    between atoms: C9_12  and  C10_13 
REMARK    7  A    between atoms: C10_13  and  C11_14 
REMARK    8  A    between atoms: C11_14  and  C12_15 
REMARK    9  A    between atoms: C13_16  and  C14_17 
REMARK   10  A    between atoms: C13_16  and  O4_19 
REMARK   11  A    between atoms: C14_17  and  O3_18 
ROOT
HETATM    1  C4  UNL     1      26.409   1.777  52.545  1.00  0.00     0.034 A 
HETATM    2  C5  UNL     1      25.416   2.203  53.388  1.00  0.00     0.032 A 
HETATM    3  C6  UNL     1      24.342   2.945  52.978  1.00  0.00     0.039 A 
HETATM    4  C7  UNL     1      24.186   3.319  51.664  1.00  0.00     0.068 A 
HETATM    5  C16 UNL     1      25.197   2.890  50.791  1.00  0.00     0.039 A 
HETATM    6  C17 UNL     1      26.286   2.133  51.225  1.00  0.00     0.032 A 
ENDROOT
BRANCH   4   7
HETATM    7  O2  UNL     1      23.259   4.026  50.986  1.00  0.00    -0.351 OA
BRANCH   7   8
HETATM    8  C8  UNL     1      23.024   4.219  49.641  1.00  0.00     0.175 C 
BRANCH   8   9
HETATM    9  C9  UNL     1      21.868   3.442  49.123  1.00  0.00     0.027 C 
BRANCH   9  10
HETATM   10  C10 UNL     1      22.187   1.967  48.925  1.00  0.00     0.006 C 
BRANCH  10  11
HETATM   11  C11 UNL     1      21.151   1.057  49.547  1.00  0.00     0.030 C 
BRANCH  11  12
HETATM   12  C12 UNL     1      21.598   0.693  50.890  1.00  0.00     0.008 C 
HETATM   13  C13 UNL     1      21.281   1.053  52.117  1.00  0.00     0.065 C 
BRANCH  13  14
HETATM   14  C14 UNL     1      20.293   2.020  52.642  1.00  0.00     0.228 C 
BRANCH  14  15
HETATM   15  O3  UNL     1      20.718   3.305  52.412  1.00  0.00    -0.394 OA
HETATM   16  H20 UNL     1      21.675   3.412  52.290  1.00  0.00     0.209 HD
ENDBRANCH  14  15
ENDBRANCH  13  14
BRANCH  13  17
HETATM   17  O4  UNL     1      21.927   0.487  53.203  1.00  0.00    -0.358 OA
HETATM   18  C15 UNL     1      22.574  -0.757  53.177  1.00  0.00     0.209 C 
ENDBRANCH  13  17
ENDBRANCH  11  12
ENDBRANCH  10  11
ENDBRANCH   9  10
ENDBRANCH   8   9
ENDBRANCH   7   8
ENDBRANCH   4   7
BRANCH   1  19
HETATM   19  N1  UNL     1      27.528   1.007  52.935  1.00  0.00    -0.327 N 
HETATM   20  C3  UNL     1      28.644   1.382  53.692  1.00  0.00     0.221 C 
HETATM   21  O1  UNL     1      28.762   2.540  54.135  1.00  0.00    -0.273 OA
HETATM   22  H6  UNL     1      27.602   0.006  52.652  1.00  0.00     0.169 HD
BRANCH  20  23
HETATM   23  C2  UNL     1      29.775   0.520  54.059  1.00  0.00     0.098 C 
HETATM   24  C1  UNL     1      29.611  -0.890  53.556  1.00  0.00     0.014 C 
ENDBRANCH  20  23
ENDBRANCH   1  19
TORSDOF 11
ENDMDL
MODEL 5
REMARK VINA RESULT:      -6.0      1.695      4.237
REMARK  11 active torsions:
REMARK  status: ('A' for Active; 'I' for Inactive)
REMARK    1  A    between atoms: C2_2  and  C3_3 
REMARK       I    between atoms: C3_3  and  N1_5 
REMARK    2  A    between atoms: N1_5  and  C4_6 
REMARK    3  A    between atoms: C7_9  and  O2_10 
REMARK    4  A    between atoms: O2_10  and  C8_11 
REMARK    5  A    between atoms: C8_11  and  C9_12 
REMARK    6  A    between atoms: C9_12  and  C10_13 
REMARK    7  A    between atoms: C10_13  and  C11_14 
REMARK    8  A    between atoms: C11_14  and  C12_15 
REMARK    9  A    between atoms: C13_16  and  C14_17 
REMARK   10  A    between atoms: C13_16  and  O4_19 
REMARK   11  A    between atoms: C14_17  and  O3_18 
ROOT
HETATM    1  C4  UNL     1      26.272   2.224  52.489  1.00  0.00     0.034 A 
HETATM    2  C5  UNL     1      26.275   2.470  51.141  1.00  0.00     0.032 A 
HETATM    3  C6  UNL     1      25.177   2.895  50.446  1.00  0.00     0.039 A 
HETATM    4  C7  UNL     1      23.970   3.110  51.070  1.00  0.00     0.068 A 
HETATM    5  C16 UNL     1      23.953   2.861  52.451  1.00  0.00     0.039 A 
HETATM    6  C17 UNL     1      25.083   2.426  53.145  1.00  0.00     0.032 A 
ENDROOT
BRANCH   4   7
HETATM    7  O2  UNL     1      22.752   3.518  50.659  1.00  0.00    -0.351 OA
BRANCH   7   8
HETATM    8  C8  UNL     1      21.749   2.904  49.938  1.00  0.00     0.175 C 
BRANCH   8   9
HETATM    9  C9  UNL     1      21.855   1.422  49.919  1.00  0.00     0.027 C 
BRANCH   9  10
HETATM   10  C10 UNL     1      20.551   0.730  50.291  1.00  0.00     0.006 C 
BRANCH  10  11
HETATM   11  C11 UNL     1      20.464   0.403  51.765  1.00  0.00     0.030 C 
BRANCH  11  12
HETATM   12  C12 UNL     1      21.776  -0.054  52.220  1.00  0.00     0.008 C 
HETATM   13  C13 UNL     1      22.295  -0.427  53.371  1.00  0.00     0.065 C 
BRANCH  13  14
HETATM   14  C14 UNL     1      21.718  -0.538  54.729  1.00  0.00     0.228 C 
BRANCH  14  15
HETATM   15  O3  UNL     1      20.964  -1.679  54.832  1.00  0.00    -0.394 OA
HETATM   16  H20 UNL     1      20.182  -1.717  54.258  1.00  0.00     0.209 HD
ENDBRANCH  14  15
ENDBRANCH  13  14
BRANCH  13  17
HETATM   17  O4  UNL     1      23.622  -0.814  53.450  1.00  0.00    -0.358 OA
HETATM   18  C15 UNL     1      24.356  -0.880  54.643  1.00  0.00     0.209 C 
ENDBRANCH  13  17
ENDBRANCH  11  12
ENDBRANCH  10  11
ENDBRANCH   9  10
ENDBRANCH   8   9
ENDBRANCH   7   8
ENDBRANCH   4   7
BRANCH   1  19
HETATM   19  N1  UNL     1      27.389   1.788  53.236  1.00  0.00    -0.327 N 
HETATM   20  C3  UNL     1      27.913   0.498  53.380  1.00  0.00     0.221 C 
HETATM   21  O1  UNL     1      27.392  -0.476  52.805  1.00  0.00    -0.273 OA
HETATM   22  H6  UNL     1      27.952   2.471  53.788  1.00  0.00     0.169 HD
BRANCH  20  23
HETATM   23  C2  UNL     1      29.086   0.120  54.180  1.00  0.00     0.098 C 
HETATM   24  C1  UNL     1      29.913  -0.950  53.520  1.00  0.00     0.014 C 
ENDBRANCH  20  23
ENDBRANCH   1  19
TORSDOF 11
ENDMDL
MODEL 6
REMARK VINA RESULT:      -5.8      1.918      4.655
REMARK  11 active torsions:
REMARK  status: ('A' for Active; 'I' for Inactive)
REMARK    1  A    between atoms: C2_2  and  C3_3 
REMARK       I    between atoms: C3_3  and  N1_5 
REMARK    2  A    between atoms: N1_5  and  C4_6 
REMARK    3  A    between atoms: C7_9  and  O2_10 
REMARK    4  A    between atoms: O2_10  and  C8_11 
REMARK    5  A    between atoms: C8_11  and  C9_12 
REMARK    6  A    between atoms: C9_12  and  C10_13 
REMARK    7  A    between atoms: C10_13  and  C11_14 
REMARK    8  A    between atoms: C11_14  and  C12_15 
REMARK    9  A    between atoms: C13_16  and  C14_17 
REMARK   10  A    between atoms: C13_16  and  O4_19 
REMARK   11  A    between atoms: C14_17  and  O3_18 
ROOT
HETATM    1  C4  UNL     1      26.323   1.855  52.231  1.00  0.00     0.034 A 
HETATM    2  C5  UNL     1      26.513   2.461  51.017  1.00  0.00     0.032 A 
HETATM    3  C6  UNL     1      25.555   3.207  50.385  1.00  0.00     0.039 A 
HETATM    4  C7  UNL     1      24.313   3.402  50.941  1.00  0.00     0.068 A 
HETATM    5  C16 UNL     1      24.106   2.786  52.185  1.00  0.00     0.039 A 
HETATM    6  C17 UNL     1      25.093   2.027  52.816  1.00  0.00     0.032 A 
ENDROOT
BRANCH   4   7
HETATM    7  O2  UNL     1      23.203   4.069  50.566  1.00  0.00    -0.351 OA
BRANCH   7   8
HETATM    8  C8  UNL     1      22.145   3.744  49.743  1.00  0.00     0.175 C 
BRANCH   8   9
HETATM    9  C9  UNL     1      22.213   2.359  49.209  1.00  0.00     0.027 C 
BRANCH   9  10
HETATM   10  C10 UNL     1      21.110   1.460  49.749  1.00  0.00     0.006 C 
BRANCH  10  11
HETATM   11  C11 UNL     1      21.626   0.427  50.726  1.00  0.00     0.030 C 
BRANCH  11  12
HETATM   12  C12 UNL     1      20.585   0.163  51.718  1.00  0.00     0.008 C 
HETATM   13  C13 UNL     1      20.560  -0.255  52.967  1.00  0.00     0.065 C 
BRANCH  13  14
HETATM   14  C14 UNL     1      21.638  -0.638  53.905  1.00  0.00     0.228 C 
BRANCH  14  15
HETATM   15  O3  UNL     1      21.113  -1.304  54.984  1.00  0.00    -0.394 OA
HETATM   16  H20 UNL     1      20.145  -1.371  55.002  1.00  0.00     0.209 HD
ENDBRANCH  14  15
ENDBRANCH  13  14
BRANCH  13  17
HETATM   17  O4  UNL     1      19.356  -0.399  53.635  1.00  0.00    -0.358 OA
HETATM   18  C15 UNL     1      18.233  -1.050  53.106  1.00  0.00     0.209 C 
ENDBRANCH  13  17
ENDBRANCH  11  12
ENDBRANCH  10  11
ENDBRANCH   9  10
ENDBRANCH   8   9
ENDBRANCH   7   8
ENDBRANCH   4   7
BRANCH   1  19
HETATM   19  N1  UNL     1      27.291   1.082  52.911  1.00  0.00    -0.327 N 
HETATM   20  C3  UNL     1      28.318   1.497  53.766  1.00  0.00     0.221 C 
HETATM   21  O1  UNL     1      28.487   2.702  54.032  1.00  0.00    -0.273 OA
HETATM   22  H6  UNL     1      27.304   0.044  52.805  1.00  0.00     0.169 HD
BRANCH  20  23
HETATM   23  C2  UNL     1      29.292   0.628  54.440  1.00  0.00     0.098 C 
HETATM   24  C1  UNL     1      29.683  -0.559  53.600  1.00  0.00     0.014 C 
ENDBRANCH  20  23
ENDBRANCH   1  19
TORSDOF 11
ENDMDL
MODEL 7
REMARK VINA RESULT:      -5.8      1.827      2.396
REMARK  11 active torsions:
REMARK  status: ('A' for Active; 'I' for Inactive)
REMARK    1  A    between atoms: C2_2  and  C3_3 
REMARK       I    between atoms: C3_3  and  N1_5 
REMARK    2  A    between atoms: N1_5  and  C4_6 
REMARK    3  A    between atoms: C7_9  and  O2_10 
REMARK    4  A    between atoms: O2_10  and  C8_11 
REMARK    5  A    between atoms: C8_11  and  C9_12 
REMARK    6  A    between atoms: C9_12  and  C10_13 
REMARK    7  A    between atoms: C10_13  and  C11_14 
REMARK    8  A    between atoms: C11_14  and  C12_15 
REMARK    9  A    between atoms: C13_16  and  C14_17 
REMARK   10  A    between atoms: C13_16  and  O4_19 
REMARK   11  A    between atoms: C14_17  and  O3_18 
ROOT
HETATM    1  C4  UNL     1      26.024   0.921  52.907  1.00  0.00     0.034 A 
HETATM    2  C5  UNL     1      25.472   2.173  52.956  1.00  0.00     0.032 A 
HETATM    3  C6  UNL     1      24.126   2.406  53.033  1.00  0.00     0.039 A 
HETATM    4  C7  UNL     1      23.219   1.372  53.069  1.00  0.00     0.068 A 
HETATM    5  C16 UNL     1      23.772   0.083  53.019  1.00  0.00     0.039 A 
HETATM    6  C17 UNL     1      25.148  -0.136  52.940  1.00  0.00     0.032 A 
ENDROOT
BRANCH   4   7
HETATM    7  O2  UNL     1      21.875   1.296  53.144  1.00  0.00    -0.351 OA
BRANCH   7   8
HETATM    8  C8  UNL     1      20.973   0.296  52.848  1.00  0.00     0.175 C 
BRANCH   8   9
HETATM    9  C9  UNL     1      20.272   0.493  51.552  1.00  0.00     0.027 C 
BRANCH   9  10
HETATM   10  C10 UNL     1      21.185   0.299  50.350  1.00  0.00     0.006 C 
BRANCH  10  11
HETATM   11  C11 UNL     1      21.048   1.408  49.329  1.00  0.00     0.030 C 
BRANCH  11  12
HETATM   12  C12 UNL     1      22.129   2.369  49.539  1.00  0.00     0.008 C 
HETATM   13  C13 UNL     1      22.237   3.552  50.109  1.00  0.00     0.065 C 
BRANCH  13  14
HETATM   14  C14 UNL     1      21.253   4.414  50.798  1.00  0.00     0.228 C 
BRANCH  14  15
HETATM   15  O3  UNL     1      20.915   3.872  52.012  1.00  0.00    -0.394 OA
HETATM   16  H20 UNL     1      21.550   3.234  52.375  1.00  0.00     0.209 HD
ENDBRANCH  14  15
ENDBRANCH  13  14
BRANCH  13  17
HETATM   17  O4  UNL     1      23.455   4.211  50.130  1.00  0.00    -0.358 OA
HETATM   18  C15 UNL     1      24.066   4.780  49.004  1.00  0.00     0.209 C 
ENDBRANCH  13  17
ENDBRANCH  11  12
ENDBRANCH  10  11
ENDBRANCH   9  10
ENDBRANCH   8   9
ENDBRANCH   7   8
ENDBRANCH   4   7
BRANCH   1  19
HETATM   19  N1  UNL     1      27.408   0.647  52.831  1.00  0.00    -0.327 N 
HETATM   20  C3  UNL     1      28.347   0.522  53.862  1.00  0.00     0.221 C 
HETATM   21  O1  UNL     1      28.014   0.653  55.055  1.00  0.00    -0.273 OA
HETATM   22  H6  UNL     1      27.867   0.508  51.905  1.00  0.00     0.169 HD
BRANCH  20  23
HETATM   23  C2  UNL     1      29.779   0.235  53.704  1.00  0.00     0.098 C 
HETATM   24  C1  UNL     1      30.074  -1.241  53.706  1.00  0.00     0.014 C 
ENDBRANCH  20  23
ENDBRANCH   1  19
TORSDOF 11
ENDMDL
MODEL 8
REMARK VINA RESULT:      -5.7      1.787      2.553
REMARK  11 active torsions:
REMARK  status: ('A' for Active; 'I' for Inactive)
REMARK    1  A    between atoms: C2_2  and  C3_3 
REMARK       I    between atoms: C3_3  and  N1_5 
REMARK    2  A    between atoms: N1_5  and  C4_6 
REMARK    3  A    between atoms: C7_9  and  O2_10 
REMARK    4  A    between atoms: O2_10  and  C8_11 
REMARK    5  A    between atoms: C8_11  and  C9_12 
REMARK    6  A    between atoms: C9_12  and  C10_13 
REMARK    7  A    between atoms: C10_13  and  C11_14 
REMARK    8  A    between atoms: C11_14  and  C12_15 
REMARK    9  A    between atoms: C13_16  and  C14_17 
REMARK   10  A    between atoms: C13_16  and  O4_19 
REMARK   11  A    between atoms: C14_17  and  O3_18 
ROOT
HETATM    1  C4  UNL     1      25.055   0.372  53.709  1.00  0.00     0.034 A 
HETATM    2  C5  UNL     1      24.183  -0.684  53.694  1.00  0.00     0.032 A 
HETATM    3  C6  UNL     1      22.924  -0.620  53.162  1.00  0.00     0.039 A 
HETATM    4  C7  UNL     1      22.443   0.536  52.592  1.00  0.00     0.068 A 
HETATM    5  C16 UNL     1      23.326   1.626  52.601  1.00  0.00     0.039 A 
HETATM    6  C17 UNL     1      24.607   1.543  53.149  1.00  0.00     0.032 A 
ENDROOT
BRANCH   4   7
HETATM    7  O2  UNL     1      21.281   0.887  52.004  1.00  0.00    -0.351 OA
BRANCH   7   8
HETATM    8  C8  UNL     1      20.746   0.635  50.758  1.00  0.00     0.175 C 
BRANCH   8   9
HETATM    9  C9  UNL     1      20.952   1.742  49.789  1.00  0.00     0.027 C 
BRANCH   9  10
HETATM   10  C10 UNL     1      21.918   1.379  48.670  1.00  0.00     0.006 C 
BRANCH  10  11
HETATM   11  C11 UNL     1      22.684   2.575  48.150  1.00  0.00     0.030 C 
BRANCH  11  12
HETATM   12  C12 UNL     1      22.986   3.460  49.273  1.00  0.00     0.008 C 
HETATM   13  C13 UNL     1      24.072   3.802  49.935  1.00  0.00     0.065 C 
BRANCH  13  14
HETATM   14  C14 UNL     1      25.489   3.404  49.788  1.00  0.00     0.228 C 
BRANCH  14  15
HETATM   15  O3  UNL     1      26.306   4.324  50.394  1.00  0.00    -0.394 OA
HETATM   16  H20 UNL     1      26.789   4.004  51.174  1.00  0.00     0.209 HD
ENDBRANCH  14  15
ENDBRANCH  13  14
BRANCH  13  17
HETATM   17  O4  UNL     1      23.999   4.700  50.987  1.00  0.00    -0.358 OA
HETATM   18  C15 UNL     1      22.803   5.231  51.491  1.00  0.00     0.209 C 
ENDBRANCH  13  17
ENDBRANCH  11  12
ENDBRANCH  10  11
ENDBRANCH   9  10
ENDBRANCH   8   9
ENDBRANCH   7   8
ENDBRANCH   4   7
BRANCH   1  19
HETATM   19  N1  UNL     1      26.361   0.338  54.247  1.00  0.00    -0.327 N 
HETATM   20  C3  UNL     1      27.534  -0.190  53.696  1.00  0.00     0.221 C 
HETATM   21  O1  UNL     1      27.533  -0.728  52.573  1.00  0.00    -0.273 OA
HETATM   22  H6  UNL     1      26.553   0.744  55.188  1.00  0.00     0.169 HD
BRANCH  20  23
HETATM   23  C2  UNL     1      28.864  -0.189  54.321  1.00  0.00     0.098 C 
HETATM   24  C1  UNL     1      29.834  -1.097  53.612  1.00  0.00     0.014 C 
ENDBRANCH  20  23
ENDBRANCH   1  19
TORSDOF 11
ENDMDL
MODEL 9
REMARK VINA RESULT:      -5.7      3.611      5.231
REMARK  11 active torsions:
REMARK  status: ('A' for Active; 'I' for Inactive)
REMARK    1  A    between atoms: C2_2  and  C3_3 
REMARK       I    between atoms: C3_3  and  N1_5 
REMARK    2  A    between atoms: N1_5  and  C4_6 
REMARK    3  A    between atoms: C7_9  and  O2_10 
REMARK    4  A    between atoms: O2_10  and  C8_11 
REMARK    5  A    between atoms: C8_11  and  C9_12 
REMARK    6  A    between atoms: C9_12  and  C10_13 
REMARK    7  A    between atoms: C10_13  and  C11_14 
REMARK    8  A    between atoms: C11_14  and  C12_15 
REMARK    9  A    between atoms: C13_16  and  C14_17 
REMARK   10  A    between atoms: C13_16  and  O4_19 
REMARK   11  A    between atoms: C14_17  and  O3_18 
ROOT
HETATM    1  C4  UNL     1      26.034   1.621  52.834  1.00  0.00     0.034 A 
HETATM    2  C5  UNL     1      25.254   2.429  53.619  1.00  0.00     0.032 A 
HETATM    3  C6  UNL     1      24.212   3.174  53.138  1.00  0.00     0.039 A 
HETATM    4  C7  UNL     1      23.871   3.159  51.806  1.00  0.00     0.068 A 
HETATM    5  C16 UNL     1      24.663   2.335  50.991  1.00  0.00     0.039 A 
HETATM    6  C17 UNL     1      25.723   1.581  51.497  1.00  0.00     0.032 A 
ENDROOT
BRANCH   4   7
HETATM    7  O2  UNL     1      22.923   3.767  51.065  1.00  0.00    -0.351 OA
BRANCH   7   8
HETATM    8  C8  UNL     1      22.967   4.489  49.892  1.00  0.00     0.175 C 
BRANCH   8   9
HETATM    9  C9  UNL     1      24.011   5.547  49.885  1.00  0.00     0.027 C 
BRANCH   9  10
HETATM   10  C10 UNL     1      23.738   6.656  50.892  1.00  0.00     0.006 C 
BRANCH  10  11
HETATM   11  C11 UNL     1      24.530   7.912  50.605  1.00  0.00     0.030 C 
BRANCH  11  12
HETATM   12  C12 UNL     1      25.757   7.539  49.905  1.00  0.00     0.008 C 
HETATM   13  C13 UNL     1      26.887   8.144  49.600  1.00  0.00     0.065 C 
BRANCH  13  14
HETATM   14  C14 UNL     1      27.382   9.512  49.867  1.00  0.00     0.228 C 
BRANCH  14  15
HETATM   15  O3  UNL     1      27.597   9.685  51.211  1.00  0.00    -0.394 OA
HETATM   16  H20 UNL     1      27.192   9.018  51.788  1.00  0.00     0.209 HD
ENDBRANCH  14  15
ENDBRANCH  13  14
BRANCH  13  17
HETATM   17  O4  UNL     1      27.876   7.472  48.902  1.00  0.00    -0.358 OA
HETATM   18  C15 UNL     1      27.721   6.195  48.345  1.00  0.00     0.209 C 
ENDBRANCH  13  17
ENDBRANCH  11  12
ENDBRANCH  10  11
ENDBRANCH   9  10
ENDBRANCH   8   9
ENDBRANCH   7   8
ENDBRANCH   4   7
BRANCH   1  19
HETATM   19  N1  UNL     1      27.114   0.837  53.299  1.00  0.00    -0.327 N 
HETATM   20  C3  UNL     1      28.472   1.160  53.387  1.00  0.00     0.221 C 
HETATM   21  O1  UNL     1      28.893   2.277  53.030  1.00  0.00    -0.273 OA
HETATM   22  H6  UNL     1      26.949  -0.135  53.641  1.00  0.00     0.169 HD
BRANCH  20  23
HETATM   23  C2  UNL     1      29.543   0.286  53.884  1.00  0.00     0.098 C 
HETATM   24  C1  UNL     1      29.426  -1.122  53.363  1.00  0.00     0.014 C 
ENDBRANCH  20  23
ENDBRANCH   1  19
TORSDOF 11
ENDMDL
