MODEL 1
REMARK VINA RESULT:      -8.5      0.000      0.000
REMARK  5 active torsions:
REMARK  status: ('A' for Active; 'I' for Inactive)
REMARK    1  A    between atoms: C2_2  and  C3_3 
REMARK    2  A    between atoms: C6_6  and  N1_7 
REMARK    3  A    between atoms: C12_14  and  C13_15 
REMARK    4  A    between atoms: C14_16  and  C15_18 
REMARK    5  A    between atoms: C17_21  and  O1_22 
ROOT
HETATM    1  C3  UNL     1      20.347   0.519  51.998  1.00  0.00    -0.009 C 
HETATM    2  C4  UNL     1      21.220   0.234  53.211  1.00  0.00     0.033 C 
HETATM    3  C5  UNL     1      22.432   1.058  53.061  1.00  0.00    -0.001 C 
HETATM    4  C6  UNL     1      23.672   1.413  52.939  1.00  0.00     0.011 C 
HETATM    5  C8  UNL     1      24.489   2.626  52.763  1.00  0.00     0.092 C 
HETATM    6  C9  UNL     1      23.794   3.740  52.017  1.00  0.00     0.076 C 
HETATM    7  C10 UNL     1      24.219   3.496  50.613  1.00  0.00     0.040 C 
HETATM    8  N2  UNL     1      25.270   2.771  50.565  1.00  0.00    -0.257 NA
HETATM    9  C11 UNL     1      25.652   2.337  51.864  1.00  0.00     0.045 C 
HETATM   10  C12 UNL     1      26.813   1.784  52.215  1.00  0.00     0.030 C 
HETATM   11  C16 UNL     1      23.651   3.935  49.337  1.00  0.00     0.084 C 
HETATM   12  C17 UNL     1      22.844   3.590  48.368  1.00  0.00     0.163 C 
HETATM   13  N3  UNL     1      22.190   2.325  48.436  1.00  0.00    -0.245 N 
HETATM   14  O2  UNL     1      21.535   1.118  48.511  1.00  0.00    -0.278 OA
HETATM   15  C19 UNL     1      20.654   1.156  49.611  1.00  0.00     0.202 C 
HETATM   16  C20 UNL     1      21.238   0.453  50.788  1.00  0.00     0.033 C 
HETATM   17  H25 UNL     1      22.989   1.747  48.096  1.00  0.00     0.196 HD
ENDROOT
BRANCH  10  18
HETATM   18  C13 UNL     1      27.008   1.407  53.607  1.00  0.00     0.041 C 
HETATM   19  C14 UNL     1      27.613   0.300  53.999  1.00  0.00     0.107 C 
HETATM   20  F1  UNL     1      27.806  -0.068  55.294  1.00  0.00    -0.210 F 
BRANCH  19  21
HETATM   21  C15 UNL     1      28.207  -0.763  53.151  1.00  0.00     0.184 C 
HETATM   22 CL1  UNL     1      29.961  -0.821  53.449  1.00  0.00    -0.123 Cl
ENDBRANCH  19  21
ENDBRANCH  10  18
BRANCH   4  23
HETATM   23  N1  UNL     1      23.987   0.036  53.008  1.00  0.00    -0.397 N 
HETATM   24  C7  UNL     1      24.207  -0.624  54.291  1.00  0.00     0.146 C 
HETATM   25  H10 UNL     1      24.132  -0.753  52.320  1.00  0.00     0.158 HD
ENDBRANCH   4  23
BRANCH  12  26
HETATM   26  O1  UNL     1      22.505   4.291  47.226  1.00  0.00    -0.340 OA
HETATM   27  C18 UNL     1      21.806   3.774  46.134  1.00  0.00     0.211 C 
ENDBRANCH  12  26
BRANCH   1  28
HETATM   28  C2  UNL     1      19.080  -0.215  51.897  1.00  0.00     0.000 C 
HETATM   29  C1  UNL     1      18.673  -0.929  53.169  1.00  0.00     0.005 C 
ENDBRANCH   1  28
TORSDOF 5
ENDMDL
MODEL 2
REMARK VINA RESULT:      -8.1      3.712      6.264
REMARK  5 active torsions:
REMARK  status: ('A' for Active; 'I' for Inactive)
REMARK    1  A    between atoms: C2_2  and  C3_3 
REMARK    2  A    between atoms: C6_6  and  N1_7 
REMARK    3  A    between atoms: C12_14  and  C13_15 
REMARK    4  A    between atoms: C14_16  and  C15_18 
REMARK    5  A    between atoms: C17_21  and  O1_22 
ROOT
HETATM    1  C3  UNL     1      26.697   5.986  48.614  1.00  0.00    -0.009 C 
HETATM    2  C4  UNL     1      27.113   4.576  49.006  1.00  0.00     0.033 C 
HETATM    3  C5  UNL     1      25.936   3.946  49.629  1.00  0.00    -0.001 C 
HETATM    4  C6  UNL     1      25.162   3.366  50.491  1.00  0.00     0.011 C 
HETATM    5  C8  UNL     1      23.777   2.883  50.622  1.00  0.00     0.092 C 
HETATM    6  C9  UNL     1      22.770   3.655  49.803  1.00  0.00     0.076 C 
HETATM    7  C10 UNL     1      22.290   4.678  50.770  1.00  0.00     0.040 C 
HETATM    8  N2  UNL     1      22.534   4.329  51.974  1.00  0.00    -0.257 NA
HETATM    9  C11 UNL     1      23.279   3.119  52.016  1.00  0.00     0.045 C 
HETATM   10  C12 UNL     1      23.494   2.346  53.080  1.00  0.00     0.030 C 
HETATM   11  C16 UNL     1      21.613   5.961  50.569  1.00  0.00     0.084 C 
HETATM   12  C17 UNL     1      21.808   7.247  50.445  1.00  0.00     0.163 C 
HETATM   13  N3  UNL     1      23.140   7.749  50.508  1.00  0.00    -0.245 N 
HETATM   14  O2  UNL     1      24.426   8.236  50.540  1.00  0.00    -0.278 OA
HETATM   15  C19 UNL     1      25.121   7.736  49.420  1.00  0.00     0.202 C 
HETATM   16  C20 UNL     1      25.980   6.579  49.796  1.00  0.00     0.033 C 
HETATM   17  H25 UNL     1      23.231   7.747  51.547  1.00  0.00     0.196 HD
ENDROOT
BRANCH  10  18
HETATM   18  C13 UNL     1      24.289   1.139  52.910  1.00  0.00     0.041 C 
HETATM   19  C14 UNL     1      23.848  -0.082  53.158  1.00  0.00     0.107 C 
HETATM   20  F1  UNL     1      24.575  -1.221  53.005  1.00  0.00    -0.210 F 
BRANCH  19  21
HETATM   21  C15 UNL     1      22.504  -0.485  53.641  1.00  0.00     0.184 C 
HETATM   22 CL1  UNL     1      22.667  -1.190  55.267  1.00  0.00    -0.123 Cl
ENDBRANCH  19  21
ENDBRANCH  10  18
BRANCH   4  23
HETATM   23  N1  UNL     1      26.261   3.406  51.381  1.00  0.00    -0.397 N 
HETATM   24  C7  UNL     1      27.006   2.195  51.715  1.00  0.00     0.146 C 
HETATM   25  H10 UNL     1      26.762   4.143  51.949  1.00  0.00     0.158 HD
ENDBRANCH   4  23
BRANCH  12  26
HETATM   26  O1  UNL     1      20.880   8.254  50.252  1.00  0.00    -0.340 OA
HETATM   27  C18 UNL     1      20.912   9.201  49.227  1.00  0.00     0.211 C 
ENDBRANCH  12  26
BRANCH   1  28
HETATM   28  C2  UNL     1      27.718   6.838  47.994  1.00  0.00     0.000 C 
HETATM   29  C1  UNL     1      29.104   6.229  47.969  1.00  0.00     0.005 C 
ENDBRANCH   1  28
TORSDOF 5
ENDMDL
MODEL 3
REMARK VINA RESULT:      -7.3      3.899      6.924
REMARK  5 active torsions:
REMARK  status: ('A' for Active; 'I' for Inactive)
REMARK    1  A    between atoms: C2_2  and  C3_3 
REMARK    2  A    between atoms: C6_6  and  N1_7 
REMARK    3  A    between atoms: C12_14  and  C13_15 
REMARK    4  A    between atoms: C14_16  and  C15_18 
REMARK    5  A    between atoms: C17_21  and  O1_22 
ROOT
HETATM    1  C3  UNL     1      23.840   5.813  49.011  1.00  0.00    -0.009 C 
HETATM    2  C4  UNL     1      22.357   5.478  49.061  1.00  0.00     0.033 C 
HETATM    3  C5  UNL     1      22.201   4.405  50.059  1.00  0.00    -0.001 C 
HETATM    4  C6  UNL     1      21.915   3.267  50.609  1.00  0.00     0.011 C 
HETATM    5  C8  UNL     1      22.008   2.585  51.911  1.00  0.00     0.092 C 
HETATM    6  C9  UNL     1      23.168   3.037  52.766  1.00  0.00     0.076 C 
HETATM    7  C10 UNL     1      24.228   2.058  52.407  1.00  0.00     0.040 C 
HETATM    8  N2  UNL     1      23.730   1.006  51.882  1.00  0.00    -0.257 NA
HETATM    9  C11 UNL     1      22.325   1.134  51.710  1.00  0.00     0.045 C 
HETATM   10  C12 UNL     1      21.460   0.161  51.428  1.00  0.00     0.030 C 
HETATM   11  C16 UNL     1      25.684   2.109  52.553  1.00  0.00     0.084 C 
HETATM   12  C17 UNL     1      26.795   2.415  51.937  1.00  0.00     0.163 C 
HETATM   13  N3  UNL     1      26.728   2.899  50.598  1.00  0.00    -0.245 N 
HETATM   14  O2  UNL     1      26.666   3.394  49.316  1.00  0.00    -0.278 OA
HETATM   15  C19 UNL     1      26.010   4.642  49.350  1.00  0.00     0.202 C 
HETATM   16  C20 UNL     1      24.585   4.509  48.936  1.00  0.00     0.033 C 
HETATM   17  H25 UNL     1      26.619   1.973  50.130  1.00  0.00     0.196 HD
ENDROOT
BRANCH  10  18
HETATM   18  C13 UNL     1      20.052   0.504  51.293  1.00  0.00     0.041 C 
HETATM   19  C14 UNL     1      19.106   0.099  52.123  1.00  0.00     0.107 C 
HETATM   20  F1  UNL     1      17.786   0.409  52.013  1.00  0.00    -0.210 F 
BRANCH  19  21
HETATM   21  C15 UNL     1      19.255  -0.755  53.327  1.00  0.00     0.184 C 
HETATM   22 CL1  UNL     1      17.846  -1.838  53.438  1.00  0.00    -0.123 Cl
ENDBRANCH  19  21
ENDBRANCH  10  18
BRANCH   4  23
HETATM   23  N1  UNL     1      21.458   2.859  49.333  1.00  0.00    -0.397 N 
HETATM   24  C7  UNL     1      22.267   1.989  48.485  1.00  0.00     0.146 C 
HETATM   25  H10 UNL     1      20.600   3.022  48.738  1.00  0.00     0.158 HD
ENDBRANCH   4  23
BRANCH  12  26
HETATM   26  O1  UNL     1      28.097   2.339  52.398  1.00  0.00    -0.340 OA
HETATM   27  C18 UNL     1      28.478   2.038  53.707  1.00  0.00     0.211 C 
ENDBRANCH  12  26
BRANCH   1  28
HETATM   28  C2  UNL     1      24.262   6.845  48.057  1.00  0.00     0.000 C 
HETATM   29  C1  UNL     1      23.301   7.056  46.906  1.00  0.00     0.005 C 
ENDBRANCH   1  28
TORSDOF 5
ENDMDL
MODEL 4
REMARK VINA RESULT:      -7.3      3.816      6.567
REMARK  5 active torsions:
REMARK  status: ('A' for Active; 'I' for Inactive)
REMARK    1  A    between atoms: C2_2  and  C3_3 
REMARK    2  A    between atoms: C6_6  and  N1_7 
REMARK    3  A    between atoms: C12_14  and  C13_15 
REMARK    4  A    between atoms: C14_16  and  C15_18 
REMARK    5  A    between atoms: C17_21  and  O1_22 
ROOT
HETATM    1  C3  UNL     1      25.588   0.946  54.117  1.00  0.00    -0.009 C 
HETATM    2  C4  UNL     1      26.227   2.065  53.309  1.00  0.00     0.033 C 
HETATM    3  C5  UNL     1      25.141   2.717  52.558  1.00  0.00    -0.001 C 
HETATM    4  C6  UNL     1      24.418   3.170  51.583  1.00  0.00     0.011 C 
HETATM    5  C8  UNL     1      23.143   3.871  51.351  1.00  0.00     0.092 C 
HETATM    6  C9  UNL     1      22.084   3.592  52.391  1.00  0.00     0.076 C 
HETATM    7  C10 UNL     1      21.336   2.456  51.789  1.00  0.00     0.040 C 
HETATM    8  N2  UNL     1      21.536   2.385  50.530  1.00  0.00    -0.257 NA
HETATM    9  C11 UNL     1      22.489   3.351  50.107  1.00  0.00     0.045 C 
HETATM   10  C12 UNL     1      22.753   3.723  48.854  1.00  0.00     0.030 C 
HETATM   11  C16 UNL     1      20.449   1.455  52.384  1.00  0.00     0.084 C 
HETATM   12  C17 UNL     1      20.408   0.248  52.883  1.00  0.00     0.163 C 
HETATM   13  N3  UNL     1      21.610  -0.515  52.937  1.00  0.00    -0.245 N 
HETATM   14  O2  UNL     1      22.773  -1.245  53.018  1.00  0.00    -0.278 OA
HETATM   15  C19 UNL     1      23.645  -0.598  53.917  1.00  0.00     0.202 C 
HETATM   16  C20 UNL     1      24.672   0.199  53.188  1.00  0.00     0.033 C 
HETATM   17  H25 UNL     1      21.609  -0.831  51.943  1.00  0.00     0.196 HD
ENDROOT
BRANCH  10  18
HETATM   18  C13 UNL     1      23.773   4.736  48.632  1.00  0.00     0.041 C 
HETATM   19  C14 UNL     1      23.523   6.028  48.511  1.00  0.00     0.107 C 
HETATM   20  F1  UNL     1      24.463   6.989  48.304  1.00  0.00    -0.210 F 
BRANCH  19  21
HETATM   21  C15 UNL     1      22.207   6.711  48.572  1.00  0.00     0.184 C 
HETATM   22 CL1  UNL     1      21.864   7.145  50.264  1.00  0.00    -0.123 Cl
ENDBRANCH  19  21
ENDBRANCH  10  18
BRANCH   4  23
HETATM   23  N1  UNL     1      25.407   2.650  50.717  1.00  0.00    -0.397 N 
HETATM   24  C7  UNL     1      26.468   3.501  50.185  1.00  0.00     0.146 C 
HETATM   25  H10 UNL     1      25.631   1.713  50.284  1.00  0.00     0.158 HD
ENDBRANCH   4  23
BRANCH  12  26
HETATM   26  O1  UNL     1      19.327  -0.447  53.395  1.00  0.00    -0.340 OA
HETATM   27  C18 UNL     1      18.165  -0.772  52.692  1.00  0.00     0.211 C 
ENDBRANCH  12  26
BRANCH   1  28
HETATM   28  C2  UNL     1      26.480   0.116  54.937  1.00  0.00     0.000 C 
HETATM   29  C1  UNL     1      27.938   0.193  54.538  1.00  0.00     0.005 C 
ENDBRANCH   1  28
TORSDOF 5
ENDMDL
MODEL 5
REMARK VINA RESULT:      -7.3      3.960      6.542
REMARK  5 active torsions:
REMARK  status: ('A' for Active; 'I' for Inactive)
REMARK    1  A    between atoms: C2_2  and  C3_3 
REMARK    2  A    between atoms: C6_6  and  N1_7 
REMARK    3  A    between atoms: C12_14  and  C13_15 
REMARK    4  A    between atoms: C14_16  and  C15_18 
REMARK    5  A    between atoms: C17_21  and  O1_22 
ROOT
HETATM    1  C3  UNL     1      25.029   1.761  52.967  1.00  0.00    -0.009 C 
HETATM    2  C4  UNL     1      24.317   0.518  53.480  1.00  0.00     0.033 C 
HETATM    3  C5  UNL     1      23.075   0.391  52.698  1.00  0.00    -0.001 C 
HETATM    4  C6  UNL     1      21.821   0.309  52.384  1.00  0.00     0.011 C 
HETATM    5  C8  UNL     1      20.958   0.188  51.196  1.00  0.00     0.092 C 
HETATM    6  C9  UNL     1      21.529   0.816  49.948  1.00  0.00     0.076 C 
HETATM    7  C10 UNL     1      20.944   2.183  49.982  1.00  0.00     0.040 C 
HETATM    8  N2  UNL     1      19.914   2.227  50.736  1.00  0.00    -0.257 NA
HETATM    9  C11 UNL     1      19.702   0.982  51.389  1.00  0.00     0.045 C 
HETATM   10  C12 UNL     1      18.607   0.596  52.043  1.00  0.00     0.030 C 
HETATM   11  C16 UNL     1      21.343   3.426  49.320  1.00  0.00     0.084 C 
HETATM   12  C17 UNL     1      22.035   4.524  49.469  1.00  0.00     0.163 C 
HETATM   13  N3  UNL     1      22.724   4.741  50.697  1.00  0.00    -0.245 N 
HETATM   14  O2  UNL     1      23.414   4.942  51.870  1.00  0.00    -0.278 OA
HETATM   15  C19 UNL     1      24.420   3.959  51.970  1.00  0.00     0.202 C 
HETATM   16  C20 UNL     1      24.001   2.854  52.878  1.00  0.00     0.033 C 
HETATM   17  H25 UNL     1      21.905   5.078  51.249  1.00  0.00     0.196 HD
ENDROOT
BRANCH  10  18
HETATM   18  C13 UNL     1      18.591  -0.729  52.646  1.00  0.00     0.041 C 
HETATM   19  C14 UNL     1      17.491  -1.407  52.919  1.00  0.00     0.107 C 
HETATM   20  F1  UNL     1      17.455  -2.645  53.481  1.00  0.00    -0.210 F 
BRANCH  19  21
HETATM   21  C15 UNL     1      16.084  -0.995  52.684  1.00  0.00     0.184 C 
HETATM   22 CL1  UNL     1      15.678  -1.292  50.977  1.00  0.00    -0.123 Cl
ENDBRANCH  19  21
ENDBRANCH  10  18
BRANCH   4  23
HETATM   23  N1  UNL     1      21.551   0.432  53.767  1.00  0.00    -0.397 N 
HETATM   24  C7  UNL     1      21.400  -0.748  54.614  1.00  0.00     0.146 C 
HETATM   25  H10 UNL     1      21.406   1.222  54.453  1.00  0.00     0.158 HD
ENDBRANCH   4  23
BRANCH  12  26
HETATM   26  O1  UNL     1      22.215   5.567  48.579  1.00  0.00    -0.340 OA
HETATM   27  C18 UNL     1      23.436   5.960  48.026  1.00  0.00     0.211 C 
ENDBRANCH  12  26
BRANCH   1  28
HETATM   28  C2  UNL     1      26.293   2.126  53.617  1.00  0.00     0.000 C 
HETATM   29  C1  UNL     1      27.509   2.005  52.723  1.00  0.00     0.005 C 
ENDBRANCH   1  28
TORSDOF 5
ENDMDL
MODEL 6
REMARK VINA RESULT:      -6.8      2.247      2.814
REMARK  5 active torsions:
REMARK  status: ('A' for Active; 'I' for Inactive)
REMARK    1  A    between atoms: C2_2  and  C3_3 
REMARK    2  A    between atoms: C6_6  and  N1_7 
REMARK    3  A    between atoms: C12_14  and  C13_15 
REMARK    4  A    between atoms: C14_16  and  C15_18 
REMARK    5  A    between atoms: C17_21  and  O1_22 
ROOT
HETATM    1  C3  UNL     1      19.438   3.688  50.916  1.00  0.00    -0.009 C 
HETATM    2  C4  UNL     1      19.672   2.655  52.008  1.00  0.00     0.033 C 
HETATM    3  C5  UNL     1      21.123   2.626  52.258  1.00  0.00    -0.001 C 
HETATM    4  C6  UNL     1      22.346   2.211  52.366  1.00  0.00     0.011 C 
HETATM    5  C8  UNL     1      23.687   2.719  52.703  1.00  0.00     0.092 C 
HETATM    6  C9  UNL     1      23.904   4.173  52.357  1.00  0.00     0.076 C 
HETATM    7  C10 UNL     1      24.498   4.091  50.996  1.00  0.00     0.040 C 
HETATM    8  N2  UNL     1      24.984   2.932  50.771  1.00  0.00    -0.257 NA
HETATM    9  C11 UNL     1      24.720   2.046  51.851  1.00  0.00     0.045 C 
HETATM   10  C12 UNL     1      25.278   0.855  52.066  1.00  0.00     0.030 C 
HETATM   11  C16 UNL     1      24.608   5.083  49.925  1.00  0.00     0.084 C 
HETATM   12  C17 UNL     1      24.035   5.529  48.838  1.00  0.00     0.163 C 
HETATM   13  N3  UNL     1      22.828   4.914  48.396  1.00  0.00    -0.245 N 
HETATM   14  O2  UNL     1      21.648   4.342  47.981  1.00  0.00    -0.278 OA
HETATM   15  C19 UNL     1      20.658   4.605  48.950  1.00  0.00     0.202 C 
HETATM   16  C20 UNL     1      20.450   3.425  49.836  1.00  0.00     0.033 C 
HETATM   17  H25 UNL     1      23.265   4.088  47.932  1.00  0.00     0.196 HD
ENDROOT
BRANCH  10  18
HETATM   18  C13 UNL     1      24.866   0.100  53.240  1.00  0.00     0.041 C 
HETATM   19  C14 UNL     1      25.653  -0.156  54.271  1.00  0.00     0.107 C 
HETATM   20  F1  UNL     1      25.287  -0.860  55.376  1.00  0.00    -0.210 F 
BRANCH  19  21
HETATM   21  C15 UNL     1      27.067   0.250  54.461  1.00  0.00     0.184 C 
HETATM   22 CL1  UNL     1      28.107  -0.828  53.497  1.00  0.00    -0.123 Cl
ENDBRANCH  19  21
ENDBRANCH  10  18
BRANCH   4  23
HETATM   23  N1  UNL     1      21.865   0.945  51.958  1.00  0.00    -0.397 N 
HETATM   24  C7  UNL     1      21.514  -0.080  52.937  1.00  0.00     0.146 C 
HETATM   25  H10 UNL     1      21.663   0.460  51.041  1.00  0.00     0.158 HD
ENDBRANCH   4  23
BRANCH  12  26
HETATM   26  O1  UNL     1      24.432   6.557  48.003  1.00  0.00    -0.340 OA
HETATM   27  C18 UNL     1      25.610   7.296  48.128  1.00  0.00     0.211 C 
ENDBRANCH  12  26
BRANCH   1  28
HETATM   28  C2  UNL     1      18.056   3.882  50.462  1.00  0.00     0.000 C 
HETATM   29  C1  UNL     1      17.041   3.967  51.582  1.00  0.00     0.005 C 
ENDBRANCH   1  28
TORSDOF 5
ENDMDL
MODEL 7
REMARK VINA RESULT:      -6.7      3.745      5.414
REMARK  5 active torsions:
REMARK  status: ('A' for Active; 'I' for Inactive)
REMARK    1  A    between atoms: C2_2  and  C3_3 
REMARK    2  A    between atoms: C6_6  and  N1_7 
REMARK    3  A    between atoms: C12_14  and  C13_15 
REMARK    4  A    between atoms: C14_16  and  C15_18 
REMARK    5  A    between atoms: C17_21  and  O1_22 
ROOT
HETATM    1  C3  UNL     1      23.121   1.302  52.699  1.00  0.00    -0.009 C 
HETATM    2  C4  UNL     1      24.175   2.327  53.089  1.00  0.00     0.033 C 
HETATM    3  C5  UNL     1      23.823   3.578  52.397  1.00  0.00    -0.001 C 
HETATM    4  C6  UNL     1      23.885   4.620  51.629  1.00  0.00     0.011 C 
HETATM    5  C8  UNL     1      23.064   5.773  51.219  1.00  0.00     0.092 C 
HETATM    6  C9  UNL     1      21.577   5.513  51.235  1.00  0.00     0.076 C 
HETATM    7  C10 UNL     1      21.313   5.085  49.836  1.00  0.00     0.040 C 
HETATM    8  N2  UNL     1      22.248   5.460  49.051  1.00  0.00    -0.257 NA
HETATM    9  C11 UNL     1      23.302   6.085  49.772  1.00  0.00     0.045 C 
HETATM   10  C12 UNL     1      24.303   6.804  49.267  1.00  0.00     0.030 C 
HETATM   11  C16 UNL     1      20.202   4.337  49.244  1.00  0.00     0.084 C 
HETATM   12  C17 UNL     1      19.803   3.141  48.898  1.00  0.00     0.163 C 
HETATM   13  N3  UNL     1      20.673   2.035  49.118  1.00  0.00    -0.245 N 
HETATM   14  O2  UNL     1      21.499   0.960  49.355  1.00  0.00    -0.278 OA
HETATM   15  C19 UNL     1      21.653   0.814  50.749  1.00  0.00     0.202 C 
HETATM   16  C20 UNL     1      22.946   1.393  51.208  1.00  0.00     0.033 C 
HETATM   17  H25 UNL     1      21.275   2.173  48.277  1.00  0.00     0.196 HD
ENDROOT
BRANCH  10  18
HETATM   18  C13 UNL     1      25.288   7.361  50.182  1.00  0.00     0.041 C 
HETATM   19  C14 UNL     1      26.277   8.157  49.814  1.00  0.00     0.107 C 
HETATM   20  F1  UNL     1      27.205   8.688  50.655  1.00  0.00    -0.210 F 
BRANCH  19  21
HETATM   21  C15 UNL     1      26.596   8.643  48.449  1.00  0.00     0.184 C 
HETATM   22 CL1  UNL     1      27.533   7.391  47.599  1.00  0.00    -0.123 Cl
ENDBRANCH  19  21
ENDBRANCH  10  18
BRANCH   4  23
HETATM   23  N1  UNL     1      25.172   4.168  51.258  1.00  0.00    -0.397 N 
HETATM   24  C7  UNL     1      25.407   3.539  49.961  1.00  0.00     0.146 C 
HETATM   25  H10 UNL     1      26.133   4.145  51.697  1.00  0.00     0.158 HD
ENDBRANCH   4  23
BRANCH  12  26
HETATM   26  O1  UNL     1      18.607   2.756  48.321  1.00  0.00    -0.340 OA
HETATM   27  C18 UNL     1      18.058   3.292  47.154  1.00  0.00     0.211 C 
ENDBRANCH  12  26
BRANCH   1  28
HETATM   28  C2  UNL     1      23.270  -0.054  53.241  1.00  0.00     0.000 C 
HETATM   29  C1  UNL     1      24.703  -0.456  53.520  1.00  0.00     0.005 C 
ENDBRANCH   1  28
TORSDOF 5
ENDMDL
MODEL 8
REMARK VINA RESULT:      -6.7      2.827      5.297
REMARK  5 active torsions:
REMARK  status: ('A' for Active; 'I' for Inactive)
REMARK    1  A    between atoms: C2_2  and  C3_3 
REMARK    2  A    between atoms: C6_6  and  N1_7 
REMARK    3  A    between atoms: C12_14  and  C13_15 
REMARK    4  A    between atoms: C14_16  and  C15_18 
REMARK    5  A    between atoms: C17_21  and  O1_22 
ROOT
HETATM    1  C3  UNL     1      20.817   3.651  46.907  1.00  0.00    -0.009 C 
HETATM    2  C4  UNL     1      22.175   2.970  46.966  1.00  0.00     0.033 C 
HETATM    3  C5  UNL     1      22.271   2.333  48.290  1.00  0.00    -0.001 C 
HETATM    4  C6  UNL     1      22.677   2.023  49.481  1.00  0.00     0.011 C 
HETATM    5  C8  UNL     1      22.307   1.155  50.612  1.00  0.00     0.092 C 
HETATM    6  C9  UNL     1      20.825   0.893  50.735  1.00  0.00     0.076 C 
HETATM    7  C10 UNL     1      20.390   1.960  51.675  1.00  0.00     0.040 C 
HETATM    8  N2  UNL     1      21.377   2.422  52.341  1.00  0.00    -0.257 NA
HETATM    9  C11 UNL     1      22.603   1.846  51.909  1.00  0.00     0.045 C 
HETATM   10  C12 UNL     1      23.780   1.905  52.530  1.00  0.00     0.030 C 
HETATM   11  C16 UNL     1      19.072   2.537  51.945  1.00  0.00     0.084 C 
HETATM   12  C17 UNL     1      18.266   3.517  51.631  1.00  0.00     0.163 C 
HETATM   13  N3  UNL     1      18.695   4.478  50.670  1.00  0.00    -0.245 N 
HETATM   14  O2  UNL     1      19.092   5.392  49.722  1.00  0.00    -0.278 OA
HETATM   15  C19 UNL     1      19.221   4.727  48.486  1.00  0.00     0.202 C 
HETATM   16  C20 UNL     1      20.647   4.409  48.194  1.00  0.00     0.033 C 
HETATM   17  H25 UNL     1      19.284   5.051  51.312  1.00  0.00     0.196 HD
ENDROOT
BRANCH  10  18
HETATM   18  C13 UNL     1      24.921   1.243  51.916  1.00  0.00     0.041 C 
HETATM   19  C14 UNL     1      26.119   1.165  52.468  1.00  0.00     0.107 C 
HETATM   20  F1  UNL     1      27.198   0.550  51.911  1.00  0.00    -0.210 F 
BRANCH  19  21
HETATM   21  C15 UNL     1      26.556   1.707  53.779  1.00  0.00     0.184 C 
HETATM   22 CL1  UNL     1      28.171   2.431  53.590  1.00  0.00    -0.123 Cl
ENDBRANCH  19  21
ENDBRANCH  10  18
BRANCH   4  23
HETATM   23  N1  UNL     1      23.712   2.968  49.284  1.00  0.00    -0.397 N 
HETATM   24  C7  UNL     1      23.653   4.291  49.899  1.00  0.00     0.146 C 
HETATM   25  H10 UNL     1      24.626   3.005  48.756  1.00  0.00     0.158 HD
ENDBRANCH   4  23
BRANCH  12  26
HETATM   26  O1  UNL     1      16.997   3.788  52.108  1.00  0.00    -0.340 OA
HETATM   27  C18 UNL     1      15.924   4.249  51.343  1.00  0.00     0.211 C 
ENDBRANCH  12  26
BRANCH   1  28
HETATM   28  C2  UNL     1      20.491   4.393  45.683  1.00  0.00     0.000 C 
HETATM   29  C1  UNL     1      21.695   4.768  44.845  1.00  0.00     0.005 C 
ENDBRANCH   1  28
TORSDOF 5
ENDMDL
MODEL 9
REMARK VINA RESULT:      -6.4      4.426      7.685
REMARK  5 active torsions:
REMARK  status: ('A' for Active; 'I' for Inactive)
REMARK    1  A    between atoms: C2_2  and  C3_3 
REMARK    2  A    between atoms: C6_6  and  N1_7 
REMARK    3  A    between atoms: C12_14  and  C13_15 
REMARK    4  A    between atoms: C14_16  and  C15_18 
REMARK    5  A    between atoms: C17_21  and  O1_22 
ROOT
HETATM    1  C3  UNL     1      25.124   5.337  49.298  1.00  0.00    -0.009 C 
HETATM    2  C4  UNL     1      23.696   5.473  48.792  1.00  0.00     0.033 C 
HETATM    3  C5  UNL     1      22.875   4.549  49.594  1.00  0.00    -0.001 C 
HETATM    4  C6  UNL     1      22.082   3.580  49.928  1.00  0.00     0.011 C 
HETATM    5  C8  UNL     1      21.490   2.967  51.130  1.00  0.00     0.092 C 
HETATM    6  C9  UNL     1      22.341   3.085  52.371  1.00  0.00     0.076 C 
HETATM    7  C10 UNL     1      23.113   1.813  52.350  1.00  0.00     0.040 C 
HETATM    8  N2  UNL     1      22.545   0.939  51.613  1.00  0.00    -0.257 NA
HETATM    9  C11 UNL     1      21.405   1.480  50.959  1.00  0.00     0.045 C 
HETATM   10  C12 UNL     1      20.449   0.805  50.322  1.00  0.00     0.030 C 
HETATM   11  C16 UNL     1      24.361   1.425  53.010  1.00  0.00     0.084 C 
HETATM   12  C17 UNL     1      25.656   1.347  52.853  1.00  0.00     0.163 C 
HETATM   13  N3  UNL     1      26.224   1.764  51.614  1.00  0.00    -0.245 N 
HETATM   14  O2  UNL     1      26.781   2.190  50.431  1.00  0.00    -0.278 OA
HETATM   15  C19 UNL     1      26.565   3.579  50.312  1.00  0.00     0.202 C 
HETATM   16  C20 UNL     1      25.416   3.867  49.408  1.00  0.00     0.033 C 
HETATM   17  H25 UNL     1      26.018   0.893  51.077  1.00  0.00     0.196 HD
ENDROOT
BRANCH  10  18
HETATM   18  C13 UNL     1      19.358   1.553  49.716  1.00  0.00     0.041 C 
HETATM   19  C14 UNL     1      18.124   1.579  50.187  1.00  0.00     0.107 C 
HETATM   20  F1  UNL     1      17.092   2.272  49.635  1.00  0.00    -0.210 F 
BRANCH  19  21
HETATM   21  C15 UNL     1      17.591   0.885  51.386  1.00  0.00     0.184 C 
HETATM   22 CL1  UNL     1      16.006   1.584  51.796  1.00  0.00    -0.123 Cl
ENDBRANCH  19  21
ENDBRANCH  10  18
BRANCH   4  23
HETATM   23  N1  UNL     1      22.015   3.269  48.550  1.00  0.00    -0.397 N 
HETATM   24  C7  UNL     1      22.693   2.095  48.008  1.00  0.00     0.146 C 
HETATM   25  H10 UNL     1      21.568   3.690  47.690  1.00  0.00     0.158 HD
ENDBRANCH   4  23
BRANCH  12  26
HETATM   26  O1  UNL     1      26.615   0.901  53.743  1.00  0.00    -0.340 OA
HETATM   27  C18 UNL     1      26.369   0.148  54.892  1.00  0.00     0.211 C 
ENDBRANCH  12  26
BRANCH   1  28
HETATM   28  C2  UNL     1      26.152   6.144  48.629  1.00  0.00     0.000 C 
HETATM   29  C1  UNL     1      25.615   7.373  47.926  1.00  0.00     0.005 C 
ENDBRANCH   1  28
TORSDOF 5
ENDMDL
