MODEL 1
REMARK VINA RESULT:      -7.0      0.000      0.000
REMARK  5 active torsions:
REMARK  status: ('A' for Active; 'I' for Inactive)
REMARK    1  A    between atoms: C2_2  and  O1_3 
REMARK    2  A    between atoms: O1_3  and  C3_4 
REMARK    3  A    between atoms: C4_5  and  O2_6 
REMARK    4  A    between atoms: N1_11  and  C9_12 
REMARK    5  A    between atoms: C14_19  and  O4_20 
ROOT
HETATM    1  C9  UNL     1      24.373   1.731  51.343  1.00  0.00     0.161 A 
HETATM    2  C10 UNL     1      23.082   1.029  51.561  1.00  0.00     0.119 A 
HETATM    3  N2  UNL     1      22.745   0.219  52.526  1.00  0.00    -0.274 NA
HETATM    4  C11 UNL     1      23.691  -0.096  53.566  1.00  0.00     0.125 A 
HETATM    5  C12 UNL     1      24.909   0.421  53.568  1.00  0.00    -0.008 A 
HETATM    6  C13 UNL     1      25.882   0.099  54.634  1.00  0.00     0.212 C 
HETATM    7  O3  UNL     1      26.678   1.243  54.775  1.00  0.00    -0.353 OA
HETATM    8  C14 UNL     1      27.413   1.460  53.608  1.00  0.00     0.284 C 
HETATM    9  C16 UNL     1      26.481   1.820  52.514  1.00  0.00     0.043 C 
HETATM   10  C17 UNL     1      25.245   1.324  52.469  1.00  0.00    -0.019 A 
ENDROOT
BRANCH   1  11
HETATM   11  N1  UNL     1      24.211   3.159  51.240  1.00  0.00    -0.345 N 
HETATM   12  C3  UNL     1      24.777   4.160  50.369  1.00  0.00     0.281 A 
HETATM   13  C4  UNL     1      24.207   5.479  50.775  1.00  0.00     0.094 A 
HETATM   14  C6  UNL     1      23.357   5.888  51.695  1.00  0.00     0.038 A 
HETATM   15  C7  UNL     1      22.853   4.789  52.511  1.00  0.00     0.020 A 
HETATM   16  C8  UNL     1      23.272   3.536  52.270  1.00  0.00     0.090 A 
BRANCH  12  17
HETATM   17  O1  UNL     1      26.146   4.168  50.406  1.00  0.00    -0.361 OA
BRANCH  17  18
HETATM   18  C2  UNL     1      26.751   3.847  49.228  1.00  0.00     0.166 C 
HETATM   19  C1  UNL     1      27.656   4.865  48.631  1.00  0.00     0.033 C 
ENDBRANCH  17  18
ENDBRANCH  12  17
BRANCH  13  20
HETATM   20  O2  UNL     1      24.791   6.399  49.902  1.00  0.00    -0.356 OA
HETATM   21  C5  UNL     1      25.451   7.562  50.381  1.00  0.00     0.209 C 
ENDBRANCH  13  20
ENDBRANCH   1  11
BRANCH   8  22
HETATM   22  O4  UNL     1      28.407   2.386  53.796  1.00  0.00    -0.363 OA
HETATM   23  C15 UNL     1      29.469   1.933  54.586  1.00  0.00     0.205 C 
ENDBRANCH   8  22
TORSDOF 5
ENDMDL
MODEL 2
REMARK VINA RESULT:      -6.3      2.034      2.432
REMARK  5 active torsions:
REMARK  status: ('A' for Active; 'I' for Inactive)
REMARK    1  A    between atoms: C2_2  and  O1_3 
REMARK    2  A    between atoms: O1_3  and  C3_4 
REMARK    3  A    between atoms: C4_5  and  O2_6 
REMARK    4  A    between atoms: N1_11  and  C9_12 
REMARK    5  A    between atoms: C14_19  and  O4_20 
ROOT
HETATM    1  C9  UNL     1      23.410   1.055  51.557  1.00  0.00     0.161 A 
HETATM    2  C10 UNL     1      22.294   0.379  52.266  1.00  0.00     0.119 A 
HETATM    3  N2  UNL     1      22.326  -0.308  53.375  1.00  0.00    -0.274 NA
HETATM    4  C11 UNL     1      23.572  -0.488  54.075  1.00  0.00     0.125 A 
HETATM    5  C12 UNL     1      24.699   0.033  53.618  1.00  0.00    -0.008 A 
HETATM    6  C13 UNL     1      25.980  -0.150  54.335  1.00  0.00     0.212 C 
HETATM    7  O3  UNL     1      26.725   1.008  54.075  1.00  0.00    -0.353 OA
HETATM    8  C14 UNL     1      27.030   1.083  52.715  1.00  0.00     0.284 C 
HETATM    9  C16 UNL     1      25.778   1.300  51.953  1.00  0.00     0.043 C 
HETATM   10  C17 UNL     1      24.619   0.795  52.374  1.00  0.00    -0.019 A 
ENDROOT
BRANCH   1  11
HETATM   11  N1  UNL     1      23.159   2.459  51.350  1.00  0.00    -0.345 N 
HETATM   12  C3  UNL     1      22.651   3.221  50.236  1.00  0.00     0.281 A 
HETATM   13  C4  UNL     1      22.629   4.656  50.648  1.00  0.00     0.094 A 
HETATM   14  C6  UNL     1      22.952   5.321  51.738  1.00  0.00     0.038 A 
HETATM   15  C7  UNL     1      23.450   4.446  52.794  1.00  0.00     0.020 A 
HETATM   16  C8  UNL     1      23.532   3.124  52.577  1.00  0.00     0.090 A 
BRANCH  12  17
HETATM   17  O1  UNL     1      23.390   3.033  49.098  1.00  0.00    -0.361 OA
BRANCH  17  18
HETATM   18  C2  UNL     1      22.714   2.450  48.069  1.00  0.00     0.166 C 
HETATM   19  C1  UNL     1      21.566   1.572  48.421  1.00  0.00     0.033 C 
ENDBRANCH  17  18
ENDBRANCH  12  17
BRANCH  13  20
HETATM   20  O2  UNL     1      22.133   5.335  49.533  1.00  0.00    -0.356 OA
HETATM   21  C5  UNL     1      20.790   5.794  49.481  1.00  0.00     0.209 C 
ENDBRANCH  13  20
ENDBRANCH   1  11
BRANCH   8  22
HETATM   22  O4  UNL     1      27.988   2.031  52.458  1.00  0.00    -0.363 OA
HETATM   23  C15 UNL     1      28.677   2.468  53.594  1.00  0.00     0.205 C 
ENDBRANCH   8  22
TORSDOF 5
ENDMDL
MODEL 3
REMARK VINA RESULT:      -6.2      1.631      2.622
REMARK  5 active torsions:
REMARK  status: ('A' for Active; 'I' for Inactive)
REMARK    1  A    between atoms: C2_2  and  O1_3 
REMARK    2  A    between atoms: O1_3  and  C3_4 
REMARK    3  A    between atoms: C4_5  and  O2_6 
REMARK    4  A    between atoms: N1_11  and  C9_12 
REMARK    5  A    between atoms: C14_19  and  O4_20 
ROOT
HETATM    1  C9  UNL     1      23.867   1.716  50.800  1.00  0.00     0.161 A 
HETATM    2  C10 UNL     1      22.563   1.195  51.288  1.00  0.00     0.119 A 
HETATM    3  N2  UNL     1      22.299   0.566  52.400  1.00  0.00    -0.274 NA
HETATM    4  C11 UNL     1      23.354   0.296  53.343  1.00  0.00     0.125 A 
HETATM    5  C12 UNL     1      24.600   0.675  53.109  1.00  0.00    -0.008 A 
HETATM    6  C13 UNL     1      25.684   0.399  54.076  1.00  0.00     0.212 C 
HETATM    7  O3  UNL     1      26.590   1.459  53.938  1.00  0.00    -0.353 OA
HETATM    8  C14 UNL     1      27.165   1.432  52.667  1.00  0.00     0.284 C 
HETATM    9  C16 UNL     1      26.121   1.737  51.661  1.00  0.00     0.043 C 
HETATM   10  C17 UNL     1      24.853   1.376  51.853  1.00  0.00    -0.019 A 
ENDROOT
BRANCH   1  11
HETATM   11  N1  UNL     1      23.818   3.125  50.505  1.00  0.00    -0.345 N 
HETATM   12  C3  UNL     1      24.005   4.312  51.303  1.00  0.00     0.281 A 
HETATM   13  C4  UNL     1      23.818   5.490  50.404  1.00  0.00     0.094 A 
HETATM   14  C6  UNL     1      23.540   5.657  49.128  1.00  0.00     0.038 A 
HETATM   15  C7  UNL     1      23.375   4.389  48.425  1.00  0.00     0.020 A 
HETATM   16  C8  UNL     1      23.511   3.235  49.098  1.00  0.00     0.090 A 
BRANCH  12  17
HETATM   17  O1  UNL     1      23.154   4.356  52.376  1.00  0.00    -0.361 OA
BRANCH  17  18
HETATM   18  C2  UNL     1      21.876   4.719  52.077  1.00  0.00     0.166 C 
HETATM   19  C1  UNL     1      20.803   3.730  52.369  1.00  0.00     0.033 C 
ENDBRANCH  17  18
ENDBRANCH  12  17
BRANCH  13  20
HETATM   20  O2  UNL     1      24.008   6.599  51.231  1.00  0.00    -0.356 OA
HETATM   21  C5  UNL     1      23.691   7.913  50.796  1.00  0.00     0.209 C 
ENDBRANCH  13  20
ENDBRANCH   1  11
BRANCH   8  22
HETATM   22  O4  UNL     1      28.254   2.263  52.582  1.00  0.00    -0.363 OA
HETATM   23  C15 UNL     1      28.955   2.410  53.783  1.00  0.00     0.205 C 
ENDBRANCH   8  22
TORSDOF 5
ENDMDL
MODEL 4
REMARK VINA RESULT:      -6.1      2.383      3.380
REMARK  5 active torsions:
REMARK  status: ('A' for Active; 'I' for Inactive)
REMARK    1  A    between atoms: C2_2  and  O1_3 
REMARK    2  A    between atoms: O1_3  and  C3_4 
REMARK    3  A    between atoms: C4_5  and  O2_6 
REMARK    4  A    between atoms: N1_11  and  C9_12 
REMARK    5  A    between atoms: C14_19  and  O4_20 
ROOT
HETATM    1  C9  UNL     1      23.236   2.990  49.023  1.00  0.00     0.161 A 
HETATM    2  C10 UNL     1      22.085   2.921  48.086  1.00  0.00     0.119 A 
HETATM    3  N2  UNL     1      21.009   2.189  48.165  1.00  0.00    -0.274 NA
HETATM    4  C11 UNL     1      20.826   1.296  49.281  1.00  0.00     0.125 A 
HETATM    5  C12 UNL     1      21.734   1.197  50.239  1.00  0.00    -0.008 A 
HETATM    6  C13 UNL     1      21.548   0.281  51.385  1.00  0.00     0.212 C 
HETATM    7  O3  UNL     1      22.196   0.894  52.465  1.00  0.00    -0.353 OA
HETATM    8  C14 UNL     1      23.568   0.964  52.221  1.00  0.00     0.284 C 
HETATM    9  C16 UNL     1      23.808   1.900  51.098  1.00  0.00     0.043 C 
HETATM   10  C17 UNL     1      22.924   2.034  50.111  1.00  0.00    -0.019 A 
ENDROOT
BRANCH   1  11
HETATM   11  N1  UNL     1      23.478   4.329  49.498  1.00  0.00    -0.345 N 
HETATM   12  C3  UNL     1      24.650   5.169  49.541  1.00  0.00     0.281 A 
HETATM   13  C4  UNL     1      24.248   6.465  50.164  1.00  0.00     0.094 A 
HETATM   14  C6  UNL     1      23.128   6.964  50.647  1.00  0.00     0.038 A 
HETATM   15  C7  UNL     1      22.016   6.026  50.547  1.00  0.00     0.020 A 
HETATM   16  C8  UNL     1      22.216   4.812  50.009  1.00  0.00     0.090 A 
BRANCH  12  17
HETATM   17  O1  UNL     1      25.685   4.581  50.218  1.00  0.00    -0.361 OA
BRANCH  17  18
HETATM   18  C2  UNL     1      26.629   4.001  49.425  1.00  0.00     0.166 C 
HETATM   19  C1  UNL     1      27.521   4.911  48.656  1.00  0.00     0.033 C 
ENDBRANCH  17  18
ENDBRANCH  12  17
BRANCH  13  20
HETATM   20  O2  UNL     1      25.419   7.227  50.178  1.00  0.00    -0.356 OA
HETATM   21  C5  UNL     1      25.390   8.635  49.995  1.00  0.00     0.209 C 
ENDBRANCH  13  20
ENDBRANCH   1  11
BRANCH   8  22
HETATM   22  O4  UNL     1      24.272   1.289  53.353  1.00  0.00    -0.363 OA
HETATM   23  C15 UNL     1      24.834   2.570  53.328  1.00  0.00     0.205 C 
ENDBRANCH   8  22
TORSDOF 5
ENDMDL
MODEL 5
REMARK VINA RESULT:      -6.0      3.172      5.041
REMARK  5 active torsions:
REMARK  status: ('A' for Active; 'I' for Inactive)
REMARK    1  A    between atoms: C2_2  and  O1_3 
REMARK    2  A    between atoms: O1_3  and  C3_4 
REMARK    3  A    between atoms: C4_5  and  O2_6 
REMARK    4  A    between atoms: N1_11  and  C9_12 
REMARK    5  A    between atoms: C14_19  and  O4_20 
ROOT
HETATM    1  C9  UNL     1      23.544   3.836  51.396  1.00  0.00     0.161 A 
HETATM    2  C10 UNL     1      24.063   3.161  52.613  1.00  0.00     0.119 A 
HETATM    3  N2  UNL     1      23.834   1.949  53.037  1.00  0.00    -0.274 NA
HETATM    4  C11 UNL     1      22.970   1.075  52.286  1.00  0.00     0.125 A 
HETATM    5  C12 UNL     1      22.396   1.474  51.162  1.00  0.00    -0.008 A 
HETATM    6  C13 UNL     1      21.508   0.578  50.389  1.00  0.00     0.212 C 
HETATM    7  O3  UNL     1      21.671   0.953  49.049  1.00  0.00    -0.353 OA
HETATM    8  C14 UNL     1      21.200   2.253  48.856  1.00  0.00     0.284 C 
HETATM    9  C16 UNL     1      22.080   3.194  49.588  1.00  0.00     0.043 C 
HETATM   10  C17 UNL     1      22.680   2.838  50.723  1.00  0.00    -0.019 A 
ENDROOT
BRANCH   1  11
HETATM   11  N1  UNL     1      24.600   4.331  50.550  1.00  0.00    -0.345 N 
HETATM   12  C3  UNL     1      24.851   5.605  49.922  1.00  0.00     0.281 A 
HETATM   13  C4  UNL     1      26.129   5.484  49.159  1.00  0.00     0.094 A 
HETATM   14  C6  UNL     1      27.011   4.526  48.958  1.00  0.00     0.038 A 
HETATM   15  C7  UNL     1      26.652   3.289  49.643  1.00  0.00     0.020 A 
HETATM   16  C8  UNL     1      25.525   3.237  50.372  1.00  0.00     0.090 A 
BRANCH  12  17
HETATM   17  O1  UNL     1      23.817   5.999  49.114  1.00  0.00    -0.361 OA
BRANCH  17  18
HETATM   18  C2  UNL     1      23.096   7.055  49.585  1.00  0.00     0.166 C 
HETATM   19  C1  UNL     1      23.659   7.798  50.745  1.00  0.00     0.033 C 
ENDBRANCH  17  18
ENDBRANCH  12  17
BRANCH  13  20
HETATM   20  O2  UNL     1      26.314   6.740  48.577  1.00  0.00    -0.356 OA
HETATM   21  C5  UNL     1      27.112   7.736  49.199  1.00  0.00     0.209 C 
ENDBRANCH  13  20
ENDBRANCH   1  11
BRANCH   8  22
HETATM   22  O4  UNL     1      21.073   2.558  47.525  1.00  0.00    -0.363 OA
HETATM   23  C15 UNL     1      21.569   3.819  47.179  1.00  0.00     0.205 C 
ENDBRANCH   8  22
TORSDOF 5
ENDMDL
MODEL 6
REMARK VINA RESULT:      -5.9      2.223      3.351
REMARK  5 active torsions:
REMARK  status: ('A' for Active; 'I' for Inactive)
REMARK    1  A    between atoms: C2_2  and  O1_3 
REMARK    2  A    between atoms: O1_3  and  C3_4 
REMARK    3  A    between atoms: C4_5  and  O2_6 
REMARK    4  A    between atoms: N1_11  and  C9_12 
REMARK    5  A    between atoms: C14_19  and  O4_20 
ROOT
HETATM    1  C9  UNL     1      21.856   1.110  50.988  1.00  0.00     0.161 A 
HETATM    2  C10 UNL     1      20.403   1.229  50.701  1.00  0.00     0.119 A 
HETATM    3  N2  UNL     1      19.394   0.743  51.371  1.00  0.00    -0.274 NA
HETATM    4  C11 UNL     1      19.627  -0.027  52.566  1.00  0.00     0.125 A 
HETATM    5  C12 UNL     1      20.853  -0.257  53.008  1.00  0.00    -0.008 A 
HETATM    6  C13 UNL     1      21.095  -1.046  54.235  1.00  0.00     0.212 C 
HETATM    7  O3  UNL     1      22.265  -0.519  54.797  1.00  0.00    -0.353 OA
HETATM    8  C14 UNL     1      23.348  -0.751  53.947  1.00  0.00     0.284 C 
HETATM    9  C16 UNL     1      23.168   0.048  52.712  1.00  0.00     0.043 C 
HETATM   10  C17 UNL     1      21.954   0.306  52.228  1.00  0.00    -0.019 A 
ENDROOT
BRANCH   1  11
HETATM   11  N1  UNL     1      22.500   2.395  51.095  1.00  0.00    -0.345 N 
HETATM   12  C3  UNL     1      23.637   2.990  50.439  1.00  0.00     0.281 A 
HETATM   13  C4  UNL     1      23.807   4.365  50.997  1.00  0.00     0.094 A 
HETATM   14  C6  UNL     1      23.179   5.093  51.897  1.00  0.00     0.038 A 
HETATM   15  C7  UNL     1      22.048   4.388  52.490  1.00  0.00     0.020 A 
HETATM   16  C8  UNL     1      21.764   3.137  52.092  1.00  0.00     0.090 A 
BRANCH  12  17
HETATM   17  O1  UNL     1      24.774   2.240  50.588  1.00  0.00    -0.361 OA
BRANCH  17  18
HETATM   18  C2  UNL     1      25.387   2.368  51.798  1.00  0.00     0.166 C 
HETATM   19  C1  UNL     1      26.864   2.190  51.832  1.00  0.00     0.033 C 
ENDBRANCH  17  18
ENDBRANCH  12  17
BRANCH  13  20
HETATM   20  O2  UNL     1      24.917   4.883  50.327  1.00  0.00    -0.356 OA
HETATM   21  C5  UNL     1      24.799   5.474  49.041  1.00  0.00     0.209 C 
ENDBRANCH  13  20
ENDBRANCH   1  11
BRANCH   8  22
HETATM   22  O4  UNL     1      24.547  -0.514  54.572  1.00  0.00    -0.363 OA
HETATM   23  C15 UNL     1      25.666  -0.768  53.773  1.00  0.00     0.205 C 
ENDBRANCH   8  22
TORSDOF 5
ENDMDL
MODEL 7
REMARK VINA RESULT:      -5.9      6.705      9.664
REMARK  5 active torsions:
REMARK  status: ('A' for Active; 'I' for Inactive)
REMARK    1  A    between atoms: C2_2  and  O1_3 
REMARK    2  A    between atoms: O1_3  and  C3_4 
REMARK    3  A    between atoms: C4_5  and  O2_6 
REMARK    4  A    between atoms: N1_11  and  C9_12 
REMARK    5  A    between atoms: C14_19  and  O4_20 
ROOT
HETATM    1  C9  UNL     1      32.357   6.741  48.301  1.00  0.00     0.161 A 
HETATM    2  C10 UNL     1      33.489   7.631  48.671  1.00  0.00     0.119 A 
HETATM    3  N2  UNL     1      34.761   7.350  48.738  1.00  0.00    -0.274 NA
HETATM    4  C11 UNL     1      35.223   6.022  48.427  1.00  0.00     0.125 A 
HETATM    5  C12 UNL     1      34.380   5.066  48.071  1.00  0.00    -0.008 A 
HETATM    6  C13 UNL     1      34.852   3.701  47.751  1.00  0.00     0.212 C 
HETATM    7  O3  UNL     1      33.962   3.212  46.787  1.00  0.00    -0.353 OA
HETATM    8  C14 UNL     1      32.687   3.079  47.338  1.00  0.00     0.284 C 
HETATM    9  C16 UNL     1      32.155   4.428  47.646  1.00  0.00     0.043 C 
HETATM   10  C17 UNL     1      32.964   5.422  48.009  1.00  0.00    -0.019 A 
ENDROOT
BRANCH   1  11
HETATM   11  N1  UNL     1      31.585   7.264  47.203  1.00  0.00    -0.345 N 
HETATM   12  C3  UNL     1      30.176   7.496  47.003  1.00  0.00     0.281 A 
HETATM   13  C4  UNL     1      30.004   8.059  45.631  1.00  0.00     0.094 A 
HETATM   14  C6  UNL     1      30.814   8.368  44.639  1.00  0.00     0.038 A 
HETATM   15  C7  UNL     1      32.210   8.093  44.957  1.00  0.00     0.020 A 
HETATM   16  C8  UNL     1      32.530   7.581  46.157  1.00  0.00     0.090 A 
BRANCH  12  17
HETATM   17  O1  UNL     1      29.433   6.358  47.179  1.00  0.00    -0.361 OA
BRANCH  17  18
HETATM   18  C2  UNL     1      28.692   6.331  48.322  1.00  0.00     0.166 C 
HETATM   19  C1  UNL     1      27.875   5.113  48.572  1.00  0.00     0.033 C 
ENDBRANCH  17  18
ENDBRANCH  12  17
BRANCH  13  20
HETATM   20  O2  UNL     1      28.628   8.257  45.501  1.00  0.00    -0.356 OA
HETATM   21  C5  UNL     1      27.995   9.426  46.001  1.00  0.00     0.209 C 
ENDBRANCH  13  20
ENDBRANCH   1  11
BRANCH   8  22
HETATM   22  O4  UNL     1      31.856   2.344  46.531  1.00  0.00    -0.363 OA
HETATM   23  C15 UNL     1      32.034   0.961  46.637  1.00  0.00     0.205 C 
ENDBRANCH   8  22
TORSDOF 5
ENDMDL
MODEL 8
REMARK VINA RESULT:      -5.8      7.781     10.513
REMARK  5 active torsions:
REMARK  status: ('A' for Active; 'I' for Inactive)
REMARK    1  A    between atoms: C2_2  and  O1_3 
REMARK    2  A    between atoms: O1_3  and  C3_4 
REMARK    3  A    between atoms: C4_5  and  O2_6 
REMARK    4  A    between atoms: N1_11  and  C9_12 
REMARK    5  A    between atoms: C14_19  and  O4_20 
ROOT
HETATM    1  C9  UNL     1      32.147   4.265  47.051  1.00  0.00     0.161 A 
HETATM    2  C10 UNL     1      32.971   3.552  48.062  1.00  0.00     0.119 A 
HETATM    3  N2  UNL     1      34.207   3.146  47.969  1.00  0.00    -0.274 NA
HETATM    4  C11 UNL     1      34.953   3.377  46.759  1.00  0.00     0.125 A 
HETATM    5  C12 UNL     1      34.410   3.998  45.724  1.00  0.00    -0.008 A 
HETATM    6  C13 UNL     1      35.174   4.236  44.480  1.00  0.00     0.212 C 
HETATM    7  O3  UNL     1      34.671   5.433  43.953  1.00  0.00    -0.353 OA
HETATM    8  C14 UNL     1      33.335   5.266  43.582  1.00  0.00     0.284 C 
HETATM    9  C16 UNL     1      32.521   5.057  44.803  1.00  0.00     0.043 C 
HETATM   10  C17 UNL     1      33.024   4.437  45.869  1.00  0.00    -0.019 A 
ENDROOT
BRANCH   1  11
HETATM   11  N1  UNL     1      31.622   5.510  47.551  1.00  0.00    -0.345 N 
HETATM   12  C3  UNL     1      32.216   6.792  47.838  1.00  0.00     0.281 A 
HETATM   13  C4  UNL     1      31.131   7.685  48.343  1.00  0.00     0.094 A 
HETATM   14  C6  UNL     1      29.838   7.554  48.564  1.00  0.00     0.038 A 
HETATM   15  C7  UNL     1      29.353   6.219  48.235  1.00  0.00     0.020 A 
HETATM   16  C8  UNL     1      30.210   5.297  47.768  1.00  0.00     0.090 A 
BRANCH  12  17
HETATM   17  O1  UNL     1      33.249   6.697  48.732  1.00  0.00    -0.361 OA
BRANCH  17  18
HETATM   18  C2  UNL     1      34.478   6.980  48.216  1.00  0.00     0.166 C 
HETATM   19  C1  UNL     1      35.651   6.331  48.861  1.00  0.00     0.033 C 
ENDBRANCH  17  18
ENDBRANCH  12  17
BRANCH  13  20
HETATM   20  O2  UNL     1      31.767   8.901  48.603  1.00  0.00    -0.356 OA
HETATM   21  C5  UNL     1      31.890   9.902  47.603  1.00  0.00     0.209 C 
ENDBRANCH  13  20
ENDBRANCH   1  11
BRANCH   8  22
HETATM   22  O4  UNL     1      32.887   6.306  42.808  1.00  0.00    -0.363 OA
HETATM   23  C15 UNL     1      32.827   6.016  41.441  1.00  0.00     0.205 C 
ENDBRANCH   8  22
TORSDOF 5
ENDMDL
MODEL 9
REMARK VINA RESULT:      -5.8      3.155      4.790
REMARK  5 active torsions:
REMARK  status: ('A' for Active; 'I' for Inactive)
REMARK    1  A    between atoms: C2_2  and  O1_3 
REMARK    2  A    between atoms: O1_3  and  C3_4 
REMARK    3  A    between atoms: C4_5  and  O2_6 
REMARK    4  A    between atoms: N1_11  and  C9_12 
REMARK    5  A    between atoms: C14_19  and  O4_20 
ROOT
HETATM    1  C9  UNL     1      22.541  -0.337  53.067  1.00  0.00     0.161 A 
HETATM    2  C10 UNL     1      21.865  -1.080  54.162  1.00  0.00     0.119 A 
HETATM    3  N2  UNL     1      22.372  -1.536  55.275  1.00  0.00    -0.274 NA
HETATM    4  C11 UNL     1      23.769  -1.338  55.565  1.00  0.00     0.125 A 
HETATM    5  C12 UNL     1      24.562  -0.697  54.721  1.00  0.00    -0.008 A 
HETATM    6  C13 UNL     1      25.997  -0.493  55.017  1.00  0.00     0.212 C 
HETATM    7  O3  UNL     1      26.337   0.722  54.407  1.00  0.00    -0.353 OA
HETATM    8  C14 UNL     1      26.222   0.608  53.021  1.00  0.00     0.284 C 
HETATM    9  C16 UNL     1      24.792   0.434  52.671  1.00  0.00     0.043 C 
HETATM   10  C17 UNL     1      23.955  -0.203  53.488  1.00  0.00    -0.019 A 
ENDROOT
BRANCH   1  11
HETATM   11  N1  UNL     1      21.910   0.929  52.793  1.00  0.00    -0.345 N 
HETATM   12  C3  UNL     1      20.535   1.341  52.652  1.00  0.00     0.281 A 
HETATM   13  C4  UNL     1      20.535   2.806  52.362  1.00  0.00     0.094 A 
HETATM   14  C6  UNL     1      21.461   3.732  52.220  1.00  0.00     0.038 A 
HETATM   15  C7  UNL     1      22.808   3.198  52.386  1.00  0.00     0.020 A 
HETATM   16  C8  UNL     1      22.977   1.892  52.650  1.00  0.00     0.090 A 
BRANCH  12  17
HETATM   17  O1  UNL     1      19.878   0.634  51.681  1.00  0.00    -0.361 OA
BRANCH  17  18
HETATM   18  C2  UNL     1      18.898  -0.194  52.142  1.00  0.00     0.166 C 
HETATM   19  C1  UNL     1      17.630  -0.244  51.365  1.00  0.00     0.033 C 
ENDBRANCH  17  18
ENDBRANCH  12  17
BRANCH  13  20
HETATM   20  O2  UNL     1      19.185   3.140  52.236  1.00  0.00    -0.356 OA
HETATM   21  C5  UNL     1      18.705   3.886  51.126  1.00  0.00     0.209 C 
ENDBRANCH  13  20
ENDBRANCH   1  11
BRANCH   8  22
HETATM   22  O4  UNL     1      26.811   1.664  52.372  1.00  0.00    -0.363 OA
HETATM   23  C15 UNL     1      27.907   2.210  53.048  1.00  0.00     0.205 C 
ENDBRANCH   8  22
TORSDOF 5
ENDMDL
