MODEL 1
REMARK VINA RESULT:      -8.4      0.000      0.000
REMARK  4 active torsions:
REMARK  status: ('A' for Active; 'I' for Inactive)
REMARK    1  A    between atoms: C3_3  and  C4_5 
REMARK    2  A    between atoms: C4_5  and  C6_7 
REMARK    3  A    between atoms: C6_7  and  C7_8 
REMARK    4  A    between atoms: C7_8  and  C8_9 
ROOT
HETATM    1  C1  UNL     1      29.309   2.173  54.190  1.00  0.00     0.098 C 
HETATM    2  C2  UNL     1      28.812   1.048  53.740  1.00  0.00    -0.131 C 
HETATM    3  C3  UNL     1      28.485  -0.128  53.288  1.00  0.00     0.080 C 
HETATM    4 CL1  UNL     1      29.678  -1.375  53.278  1.00  0.00    -0.075 Cl
ENDROOT
BRANCH   3   5
HETATM    5  C4  UNL     1      27.131  -0.173  52.861  1.00  0.00    -0.036 C 
HETATM    6  C5  UNL     1      26.136  -1.198  53.269  1.00  0.00     0.050 C 
BRANCH   5   7
HETATM    7  C6  UNL     1      26.653   0.741  52.032  1.00  0.00    -0.014 C 
BRANCH   7   8
HETATM    8  C7  UNL     1      25.729   1.875  52.299  1.00  0.00     0.074 C 
BRANCH   8   9
HETATM    9  C8  UNL     1      24.468   1.755  51.485  1.00  0.00     0.209 A 
HETATM   10  C9  UNL     1      23.526   0.778  52.093  1.00  0.00     0.029 A 
HETATM   11  N1  UNL     1      23.600   1.760  52.931  1.00  0.00    -0.170 NA
HETATM   12  C22 UNL     1      22.623  -0.346  52.492  1.00  0.00     0.081 C 
HETATM   13  N2  UNL     1      23.384   2.603  51.878  1.00  0.00    -0.281 N 
HETATM   14  C10 UNL     1      22.577   3.662  51.466  1.00  0.00     0.054 A 
HETATM   15  C11 UNL     1      23.261   4.853  51.712  1.00  0.00     0.031 A 
HETATM   16  C15 UNL     1      21.317   3.723  50.903  1.00  0.00    -0.028 A 
HETATM   17  C12 UNL     1      22.725   6.111  51.411  1.00  0.00     0.002 A 
HETATM   18  C13 UNL     1      21.471   6.164  50.852  1.00  0.00     0.001 A 
HETATM   19  C14 UNL     1      20.825   4.981  50.623  1.00  0.00     0.009 A 
HETATM   20  C16 UNL     1      20.500   2.553  50.597  1.00  0.00     0.067 C 
HETATM   21  C17 UNL     1      19.848   1.930  51.845  1.00  0.00     0.172 C 
HETATM   22  O1  UNL     1      19.153   0.850  51.412  1.00  0.00    -0.389 OA
HETATM   23  C18 UNL     1      18.506   0.060  52.302  1.00  0.00     0.194 C 
HETATM   24  C19 UNL     1      19.373  -0.656  53.316  1.00  0.00     0.200 C 
HETATM   25  O2  UNL     1      20.105   0.238  54.106  1.00  0.00    -0.361 OA
HETATM   26  C20 UNL     1      21.297  -0.087  54.664  1.00  0.00     0.131 C 
HETATM   27  C21 UNL     1      22.396  -0.339  53.936  1.00  0.00     0.003 C 
ENDBRANCH   8   9
ENDBRANCH   7   8
ENDBRANCH   5   7
ENDBRANCH   3   5
TORSDOF 4
ENDMDL
MODEL 2
REMARK VINA RESULT:      -8.2      3.940      6.162
REMARK  4 active torsions:
REMARK  status: ('A' for Active; 'I' for Inactive)
REMARK    1  A    between atoms: C3_3  and  C4_5 
REMARK    2  A    between atoms: C4_5  and  C6_7 
REMARK    3  A    between atoms: C6_7  and  C7_8 
REMARK    4  A    between atoms: C7_8  and  C8_9 
ROOT
HETATM    1  C1  UNL     1      28.129   9.478  49.577  1.00  0.00     0.098 C 
HETATM    2  C2  UNL     1      27.671   8.460  48.892  1.00  0.00    -0.131 C 
HETATM    3  C3  UNL     1      27.115   7.566  48.126  1.00  0.00     0.080 C 
HETATM    4 CL1  UNL     1      26.167   8.096  46.784  1.00  0.00    -0.075 Cl
ENDROOT
BRANCH   3   5
HETATM    5  C4  UNL     1      27.404   6.244  48.559  1.00  0.00    -0.036 C 
HETATM    6  C5  UNL     1      28.624   5.474  48.207  1.00  0.00     0.050 C 
BRANCH   5   7
HETATM    7  C6  UNL     1      26.560   5.589  49.340  1.00  0.00    -0.014 C 
BRANCH   7   8
HETATM    8  C7  UNL     1      26.359   4.125  49.501  1.00  0.00     0.074 C 
BRANCH   8   9
HETATM    9  C8  UNL     1      25.363   3.828  50.593  1.00  0.00     0.209 A 
HETATM   10  C9  UNL     1      24.003   3.607  50.035  1.00  0.00     0.029 A 
HETATM   11  N1  UNL     1      24.722   2.623  49.604  1.00  0.00    -0.170 NA
HETATM   12  C22 UNL     1      22.572   3.603  49.599  1.00  0.00     0.081 C 
HETATM   13  N2  UNL     1      25.150   2.445  50.889  1.00  0.00    -0.281 N 
HETATM   14  C10 UNL     1      25.290   1.470  51.875  1.00  0.00     0.054 A 
HETATM   15  C11 UNL     1      26.602   0.996  51.837  1.00  0.00     0.031 A 
HETATM   16  C15 UNL     1      24.418   0.939  52.806  1.00  0.00    -0.028 A 
HETATM   17  C12 UNL     1      27.075   0.003  52.704  1.00  0.00     0.002 A 
HETATM   18  C13 UNL     1      26.201  -0.521  53.626  1.00  0.00     0.001 A 
HETATM   19  C14 UNL     1      24.923  -0.037  53.640  1.00  0.00     0.009 A 
HETATM   20  C16 UNL     1      23.025   1.348  52.948  1.00  0.00     0.067 C 
HETATM   21  C17 UNL     1      22.112   0.770  51.850  1.00  0.00     0.172 C 
HETATM   22  O1  UNL     1      20.870   1.255  52.095  1.00  0.00    -0.389 OA
HETATM   23  C18 UNL     1      19.850   0.957  51.256  1.00  0.00     0.194 C 
HETATM   24  C19 UNL     1      19.983   1.462  49.834  1.00  0.00     0.200 C 
HETATM   25  O2  UNL     1      21.121   0.952  49.200  1.00  0.00    -0.361 OA
HETATM   26  C20 UNL     1      21.763   1.615  48.206  1.00  0.00     0.131 C 
HETATM   27  C21 UNL     1      22.398   2.781  48.403  1.00  0.00     0.003 C 
ENDBRANCH   8   9
ENDBRANCH   7   8
ENDBRANCH   5   7
ENDBRANCH   3   5
TORSDOF 4
ENDMDL
MODEL 3
REMARK VINA RESULT:      -8.0      3.030      6.278
REMARK  4 active torsions:
REMARK  status: ('A' for Active; 'I' for Inactive)
REMARK    1  A    between atoms: C3_3  and  C4_5 
REMARK    2  A    between atoms: C4_5  and  C6_7 
REMARK    3  A    between atoms: C6_7  and  C7_8 
REMARK    4  A    between atoms: C7_8  and  C8_9 
ROOT
HETATM    1  C1  UNL     1      22.565   5.765  47.043  1.00  0.00     0.098 C 
HETATM    2  C2  UNL     1      23.510   6.391  47.700  1.00  0.00    -0.131 C 
HETATM    3  C3  UNL     1      24.531   7.025  48.199  1.00  0.00     0.080 C 
HETATM    4 CL1  UNL     1      25.670   7.743  47.119  1.00  0.00    -0.075 Cl
ENDROOT
BRANCH   3   5
HETATM    5  C4  UNL     1      24.522   7.009  49.619  1.00  0.00    -0.036 C 
HETATM    6  C5  UNL     1      23.753   7.941  50.483  1.00  0.00     0.050 C 
BRANCH   5   7
HETATM    7  C6  UNL     1      25.236   6.118  50.290  1.00  0.00    -0.014 C 
BRANCH   7   8
HETATM    8  C7  UNL     1      25.278   4.639  50.152  1.00  0.00     0.074 C 
BRANCH   8   9
HETATM    9  C8  UNL     1      24.416   3.970  51.192  1.00  0.00     0.209 A 
HETATM   10  C9  UNL     1      23.058   3.681  50.659  1.00  0.00     0.029 A 
HETATM   11  N1  UNL     1      23.865   2.929  49.984  1.00  0.00    -0.170 NA
HETATM   12  C22 UNL     1      21.612   3.564  50.298  1.00  0.00     0.081 C 
HETATM   13  N2  UNL     1      24.410   2.539  51.175  1.00  0.00    -0.281 N 
HETATM   14  C10 UNL     1      24.751   1.403  51.907  1.00  0.00     0.054 A 
HETATM   15  C11 UNL     1      26.108   1.145  51.703  1.00  0.00     0.031 A 
HETATM   16  C15 UNL     1      24.030   0.561  52.731  1.00  0.00    -0.028 A 
HETATM   17  C12 UNL     1      26.771   0.066  52.300  1.00  0.00     0.002 A 
HETATM   18  C13 UNL     1      26.047  -0.768  53.118  1.00  0.00     0.001 A 
HETATM   19  C14 UNL     1      24.721  -0.490  53.298  1.00  0.00     0.009 A 
HETATM   20  C16 UNL     1      22.610   0.722  53.024  1.00  0.00     0.067 C 
HETATM   21  C17 UNL     1      21.701   0.272  51.866  1.00  0.00     0.172 C 
HETATM   22  O1  UNL     1      20.428   0.506  52.270  1.00  0.00    -0.389 OA
HETATM   23  C18 UNL     1      19.395   0.253  51.431  1.00  0.00     0.194 C 
HETATM   24  C19 UNL     1      19.351   1.071  50.157  1.00  0.00     0.200 C 
HETATM   25  O2  UNL     1      20.496   0.883  49.374  1.00  0.00    -0.361 OA
HETATM   26  C20 UNL     1      20.967   1.833  48.528  1.00  0.00     0.131 C 
HETATM   27  C21 UNL     1      21.457   3.007  48.956  1.00  0.00     0.003 C 
ENDBRANCH   8   9
ENDBRANCH   7   8
ENDBRANCH   5   7
ENDBRANCH   3   5
TORSDOF 4
ENDMDL
MODEL 4
REMARK VINA RESULT:      -7.9      2.945      4.072
REMARK  4 active torsions:
REMARK  status: ('A' for Active; 'I' for Inactive)
REMARK    1  A    between atoms: C3_3  and  C4_5 
REMARK    2  A    between atoms: C4_5  and  C6_7 
REMARK    3  A    between atoms: C6_7  and  C7_8 
REMARK    4  A    between atoms: C7_8  and  C8_9 
ROOT
HETATM    1  C1  UNL     1      29.582  -0.107  53.983  1.00  0.00     0.098 C 
HETATM    2  C2  UNL     1      28.400  -0.129  53.418  1.00  0.00    -0.131 C 
HETATM    3  C3  UNL     1      27.260  -0.320  52.819  1.00  0.00     0.080 C 
HETATM    4 CL1  UNL     1      26.793  -1.933  52.420  1.00  0.00    -0.075 Cl
ENDROOT
BRANCH   3   5
HETATM    5  C4  UNL     1      26.572   0.901  52.590  1.00  0.00    -0.036 C 
HETATM    6  C5  UNL     1      25.935   1.737  53.639  1.00  0.00     0.050 C 
BRANCH   5   7
HETATM    7  C6  UNL     1      26.451   1.388  51.365  1.00  0.00    -0.014 C 
BRANCH   7   8
HETATM    8  C7  UNL     1      26.618   2.783  50.878  1.00  0.00     0.074 C 
BRANCH   8   9
HETATM    9  C8  UNL     1      25.616   3.109  49.801  1.00  0.00     0.209 A 
HETATM   10  C9  UNL     1      24.224   3.000  50.311  1.00  0.00     0.029 A 
HETATM   11  N1  UNL     1      24.753   3.992  50.950  1.00  0.00    -0.170 NA
HETATM   12  C22 UNL     1      22.802   2.692  50.659  1.00  0.00     0.081 C 
HETATM   13  N2  UNL     1      25.179   4.470  49.743  1.00  0.00    -0.281 N 
HETATM   14  C10 UNL     1      25.177   5.618  48.953  1.00  0.00     0.054 A 
HETATM   15  C11 UNL     1      26.388   6.284  49.149  1.00  0.00     0.031 A 
HETATM   16  C15 UNL     1      24.252   6.162  48.082  1.00  0.00    -0.028 A 
HETATM   17  C12 UNL     1      26.707   7.482  48.499  1.00  0.00     0.002 A 
HETATM   18  C13 UNL     1      25.782   8.018  47.635  1.00  0.00     0.001 A 
HETATM   19  C14 UNL     1      24.606   7.344  47.463  1.00  0.00     0.009 A 
HETATM   20  C16 UNL     1      22.953   5.565  47.791  1.00  0.00     0.067 C 
HETATM   21  C17 UNL     1      21.927   5.776  48.920  1.00  0.00     0.172 C 
HETATM   22  O1  UNL     1      20.792   5.149  48.523  1.00  0.00    -0.389 OA
HETATM   23  C18 UNL     1      19.714   5.118  49.343  1.00  0.00     0.194 C 
HETATM   24  C19 UNL     1      19.894   4.389  50.658  1.00  0.00     0.200 C 
HETATM   25  O2  UNL     1      20.912   4.952  51.435  1.00  0.00    -0.361 OA
HETATM   26  C20 UNL     1      21.630   4.232  52.332  1.00  0.00     0.131 C 
HETATM   27  C21 UNL     1      22.459   3.241  51.969  1.00  0.00     0.003 C 
ENDBRANCH   8   9
ENDBRANCH   7   8
ENDBRANCH   5   7
ENDBRANCH   3   5
TORSDOF 4
ENDMDL
MODEL 5
REMARK VINA RESULT:      -7.8      2.247      4.583
REMARK  4 active torsions:
REMARK  status: ('A' for Active; 'I' for Inactive)
REMARK    1  A    between atoms: C3_3  and  C4_5 
REMARK    2  A    between atoms: C4_5  and  C6_7 
REMARK    3  A    between atoms: C6_7  and  C7_8 
REMARK    4  A    between atoms: C7_8  and  C8_9 
ROOT
HETATM    1  C1  UNL     1      29.406   0.030  53.959  1.00  0.00     0.098 C 
HETATM    2  C2  UNL     1      28.243  -0.086  53.368  1.00  0.00    -0.131 C 
HETATM    3  C3  UNL     1      27.134  -0.367  52.747  1.00  0.00     0.080 C 
HETATM    4 CL1  UNL     1      26.792  -2.016  52.365  1.00  0.00    -0.075 Cl
ENDROOT
BRANCH   3   5
HETATM    5  C4  UNL     1      26.366   0.798  52.482  1.00  0.00    -0.036 C 
HETATM    6  C5  UNL     1      26.757   1.891  51.555  1.00  0.00     0.050 C 
BRANCH   5   7
HETATM    7  C6  UNL     1      25.199   0.987  53.076  1.00  0.00    -0.014 C 
BRANCH   7   8
HETATM    8  C7  UNL     1      23.838   0.563  52.653  1.00  0.00     0.074 C 
BRANCH   8   9
HETATM    9  C8  UNL     1      22.854   1.699  52.758  1.00  0.00     0.209 A 
HETATM   10  C9  UNL     1      23.213   2.808  51.835  1.00  0.00     0.029 A 
HETATM   11  N1  UNL     1      22.890   1.812  51.076  1.00  0.00    -0.170 NA
HETATM   12  C22 UNL     1      23.616   4.059  51.123  1.00  0.00     0.081 C 
HETATM   13  N2  UNL     1      21.762   1.671  51.834  1.00  0.00    -0.281 N 
HETATM   14  C10 UNL     1      20.376   1.560  51.733  1.00  0.00     0.054 A 
HETATM   15  C11 UNL     1      20.043   0.205  51.772  1.00  0.00     0.031 A 
HETATM   16  C15 UNL     1      19.363   2.491  51.608  1.00  0.00    -0.028 A 
HETATM   17  C12 UNL     1      18.723  -0.253  51.692  1.00  0.00     0.002 A 
HETATM   18  C13 UNL     1      17.720   0.679  51.568  1.00  0.00     0.001 A 
HETATM   19  C14 UNL     1      18.077   1.998  51.532  1.00  0.00     0.009 A 
HETATM   20  C16 UNL     1      19.579   3.933  51.556  1.00  0.00     0.067 C 
HETATM   21  C17 UNL     1      20.108   4.413  50.191  1.00  0.00     0.172 C 
HETATM   22  O1  UNL     1      20.284   5.753  50.303  1.00  0.00    -0.389 OA
HETATM   23  C18 UNL     1      20.795   6.456  49.264  1.00  0.00     0.194 C 
HETATM   24  C19 UNL     1      22.208   6.105  48.847  1.00  0.00     0.200 C 
HETATM   25  O2  UNL     1      22.321   4.766  48.456  1.00  0.00    -0.361 OA
HETATM   26  C20 UNL     1      23.478   4.067  48.568  1.00  0.00     0.131 C 
HETATM   27  C21 UNL     1      24.031   3.764  49.753  1.00  0.00     0.003 C 
ENDBRANCH   8   9
ENDBRANCH   7   8
ENDBRANCH   5   7
ENDBRANCH   3   5
TORSDOF 4
ENDMDL
MODEL 6
REMARK VINA RESULT:      -7.8      2.992      5.688
REMARK  4 active torsions:
REMARK  status: ('A' for Active; 'I' for Inactive)
REMARK    1  A    between atoms: C3_3  and  C4_5 
REMARK    2  A    between atoms: C4_5  and  C6_7 
REMARK    3  A    between atoms: C6_7  and  C7_8 
REMARK    4  A    between atoms: C7_8  and  C8_9 
ROOT
HETATM    1  C1  UNL     1      22.547   2.125  47.811  1.00  0.00     0.098 C 
HETATM    2  C2  UNL     1      22.880   3.306  48.269  1.00  0.00    -0.131 C 
HETATM    3  C3  UNL     1      23.182   4.538  48.561  1.00  0.00     0.080 C 
HETATM    4 CL1  UNL     1      22.824   5.774  47.411  1.00  0.00    -0.075 Cl
ENDROOT
BRANCH   3   5
HETATM    5  C4  UNL     1      23.786   4.646  49.842  1.00  0.00    -0.036 C 
HETATM    6  C5  UNL     1      25.232   4.464  50.127  1.00  0.00     0.050 C 
BRANCH   5   7
HETATM    7  C6  UNL     1      23.058   4.928  50.910  1.00  0.00    -0.014 C 
BRANCH   7   8
HETATM    8  C7  UNL     1      21.583   4.879  51.093  1.00  0.00     0.074 C 
BRANCH   8   9
HETATM    9  C8  UNL     1      21.201   3.919  52.190  1.00  0.00     0.209 A 
HETATM   10  C9  UNL     1      19.912   3.242  51.888  1.00  0.00     0.029 A 
HETATM   11  N1  UNL     1      20.746   2.820  50.994  1.00  0.00    -0.170 NA
HETATM   12  C22 UNL     1      18.525   2.691  51.789  1.00  0.00     0.081 C 
HETATM   13  N2  UNL     1      21.621   2.563  52.012  1.00  0.00    -0.281 N 
HETATM   14  C10 UNL     1      22.434   1.558  52.534  1.00  0.00     0.054 A 
HETATM   15  C11 UNL     1      23.730   1.754  52.056  1.00  0.00     0.031 A 
HETATM   16  C15 UNL     1      22.189   0.490  53.375  1.00  0.00    -0.028 A 
HETATM   17  C12 UNL     1      24.797   0.912  52.393  1.00  0.00     0.002 A 
HETATM   18  C13 UNL     1      24.546  -0.149  53.230  1.00  0.00     0.001 A 
HETATM   19  C14 UNL     1      23.267  -0.315  53.682  1.00  0.00     0.009 A 
HETATM   20  C16 UNL     1      20.881   0.178  53.942  1.00  0.00     0.067 C 
HETATM   21  C17 UNL     1      19.926  -0.478  52.927  1.00  0.00     0.172 C 
HETATM   22  O1  UNL     1      18.757  -0.680  53.583  1.00  0.00    -0.389 OA
HETATM   23  C18 UNL     1      17.695  -1.205  52.925  1.00  0.00     0.194 C 
HETATM   24  C19 UNL     1      17.141  -0.379  51.783  1.00  0.00     0.200 C 
HETATM   25  O2  UNL     1      18.097  -0.155  50.786  1.00  0.00    -0.361 OA
HETATM   26  C20 UNL     1      18.073   0.937  49.982  1.00  0.00     0.131 C 
HETATM   27  C21 UNL     1      18.265   2.183  50.443  1.00  0.00     0.003 C 
ENDBRANCH   8   9
ENDBRANCH   7   8
ENDBRANCH   5   7
ENDBRANCH   3   5
TORSDOF 4
ENDMDL
MODEL 7
REMARK VINA RESULT:      -7.6      3.507      5.929
REMARK  4 active torsions:
REMARK  status: ('A' for Active; 'I' for Inactive)
REMARK    1  A    between atoms: C3_3  and  C4_5 
REMARK    2  A    between atoms: C4_5  and  C6_7 
REMARK    3  A    between atoms: C6_7  and  C7_8 
REMARK    4  A    between atoms: C7_8  and  C8_9 
ROOT
HETATM    1  C1  UNL     1      26.140   9.314  50.172  1.00  0.00     0.098 C 
HETATM    2  C2  UNL     1      26.094   8.319  49.321  1.00  0.00    -0.131 C 
HETATM    3  C3  UNL     1      26.209   7.384  48.423  1.00  0.00     0.080 C 
HETATM    4 CL1  UNL     1      27.744   7.139  47.671  1.00  0.00    -0.075 Cl
ENDROOT
BRANCH   3   5
HETATM    5  C4  UNL     1      24.983   6.699  48.212  1.00  0.00    -0.036 C 
HETATM    6  C5  UNL     1      23.823   7.230  47.451  1.00  0.00     0.050 C 
BRANCH   5   7
HETATM    7  C6  UNL     1      24.792   5.487  48.708  1.00  0.00    -0.014 C 
BRANCH   7   8
HETATM    8  C7  UNL     1      25.768   4.549  49.324  1.00  0.00     0.074 C 
BRANCH   8   9
HETATM    9  C8  UNL     1      25.107   3.252  49.713  1.00  0.00     0.209 A 
HETATM   10  C9  UNL     1      25.935   2.500  50.693  1.00  0.00     0.029 A 
HETATM   11  N1  UNL     1      25.550   3.570  51.309  1.00  0.00    -0.170 NA
HETATM   12  C22 UNL     1      26.793   1.569  51.488  1.00  0.00     0.081 C 
HETATM   13  N2  UNL     1      24.283   3.294  50.882  1.00  0.00    -0.281 N 
HETATM   14  C10 UNL     1      22.974   3.152  51.342  1.00  0.00     0.054 A 
HETATM   15  C11 UNL     1      22.308   4.362  51.140  1.00  0.00     0.031 A 
HETATM   16  C15 UNL     1      22.286   2.102  51.917  1.00  0.00    -0.028 A 
HETATM   17  C12 UNL     1      20.968   4.557  51.496  1.00  0.00     0.002 A 
HETATM   18  C13 UNL     1      20.290   3.508  52.068  1.00  0.00     0.001 A 
HETATM   19  C14 UNL     1      20.968   2.336  52.253  1.00  0.00     0.009 A 
HETATM   20  C16 UNL     1      22.867   0.789  52.179  1.00  0.00     0.067 C 
HETATM   21  C17 UNL     1      23.795   0.777  53.408  1.00  0.00     0.172 C 
HETATM   22  O1  UNL     1      24.277  -0.487  53.507  1.00  0.00    -0.389 OA
HETATM   23  C18 UNL     1      25.171  -0.796  54.477  1.00  0.00     0.194 C 
HETATM   24  C19 UNL     1      26.504  -0.081  54.410  1.00  0.00     0.200 C 
HETATM   25  O2  UNL     1      26.360   1.308  54.494  1.00  0.00    -0.361 OA
HETATM   26  C20 UNL     1      27.244   2.170  53.934  1.00  0.00     0.131 C 
HETATM   27  C21 UNL     1      27.419   2.271  52.607  1.00  0.00     0.003 C 
ENDBRANCH   8   9
ENDBRANCH   7   8
ENDBRANCH   5   7
ENDBRANCH   3   5
TORSDOF 4
ENDMDL
MODEL 8
REMARK VINA RESULT:      -7.2      3.571      7.059
REMARK  4 active torsions:
REMARK  status: ('A' for Active; 'I' for Inactive)
REMARK    1  A    between atoms: C3_3  and  C4_5 
REMARK    2  A    between atoms: C4_5  and  C6_7 
REMARK    3  A    between atoms: C6_7  and  C7_8 
REMARK    4  A    between atoms: C7_8  and  C8_9 
ROOT
HETATM    1  C1  UNL     1      18.885   9.828  50.322  1.00  0.00     0.098 C 
HETATM    2  C2  UNL     1      19.856   9.218  49.689  1.00  0.00    -0.131 C 
HETATM    3  C3  UNL     1      20.709   8.600  48.924  1.00  0.00     0.080 C 
HETATM    4 CL1  UNL     1      20.339   8.416  47.248  1.00  0.00    -0.075 Cl
ENDROOT
BRANCH   3   5
HETATM    5  C4  UNL     1      21.851   8.166  49.648  1.00  0.00    -0.036 C 
HETATM    6  C5  UNL     1      23.253   8.566  49.361  1.00  0.00     0.050 C 
BRANCH   5   7
HETATM    7  C6  UNL     1      21.727   7.335  50.671  1.00  0.00    -0.014 C 
BRANCH   7   8
HETATM    8  C7  UNL     1      21.233   5.934  50.701  1.00  0.00     0.074 C 
BRANCH   8   9
HETATM    9  C8  UNL     1      22.010   5.102  51.688  1.00  0.00     0.209 A 
HETATM   10  C9  UNL     1      21.237   3.903  52.107  1.00  0.00     0.029 A 
HETATM   11  N1  UNL     1      21.497   3.730  50.852  1.00  0.00    -0.170 NA
HETATM   12  C22 UNL     1      20.456   2.808  52.761  1.00  0.00     0.081 C 
HETATM   13  N2  UNL     1      22.796   4.043  51.135  1.00  0.00    -0.281 N 
HETATM   14  C10 UNL     1      24.100   3.581  50.963  1.00  0.00     0.054 A 
HETATM   15  C11 UNL     1      24.647   4.224  49.851  1.00  0.00     0.031 A 
HETATM   16  C15 UNL     1      24.876   2.668  51.651  1.00  0.00    -0.028 A 
HETATM   17  C12 UNL     1      25.952   3.984  49.403  1.00  0.00     0.002 A 
HETATM   18  C13 UNL     1      26.717   3.074  50.092  1.00  0.00     0.001 A 
HETATM   19  C14 UNL     1      26.154   2.460  51.176  1.00  0.00     0.009 A 
HETATM   20  C16 UNL     1      24.422   1.931  52.826  1.00  0.00     0.067 C 
HETATM   21  C17 UNL     1      23.469   0.772  52.480  1.00  0.00     0.172 C 
HETATM   22  O1  UNL     1      23.114   0.207  53.660  1.00  0.00    -0.389 OA
HETATM   23  C18 UNL     1      22.231  -0.820  53.679  1.00  0.00     0.194 C 
HETATM   24  C19 UNL     1      20.835  -0.512  53.179  1.00  0.00     0.200 C 
HETATM   25  O2  UNL     1      20.838  -0.075  51.850  1.00  0.00    -0.361 OA
HETATM   26  C20 UNL     1      19.886   0.751  51.350  1.00  0.00     0.131 C 
HETATM   27  C21 UNL     1      19.735   2.019  51.764  1.00  0.00     0.003 C 
ENDBRANCH   8   9
ENDBRANCH   7   8
ENDBRANCH   5   7
ENDBRANCH   3   5
TORSDOF 4
ENDMDL
MODEL 9
REMARK VINA RESULT:      -7.1      4.272      6.559
REMARK  4 active torsions:
REMARK  status: ('A' for Active; 'I' for Inactive)
REMARK    1  A    between atoms: C3_3  and  C4_5 
REMARK    2  A    between atoms: C4_5  and  C6_7 
REMARK    3  A    between atoms: C6_7  and  C7_8 
REMARK    4  A    between atoms: C7_8  and  C8_9 
ROOT
HETATM    1  C1  UNL     1      27.892   9.807  46.512  1.00  0.00     0.098 C 
HETATM    2  C2  UNL     1      27.851   8.974  47.522  1.00  0.00    -0.131 C 
HETATM    3  C3  UNL     1      27.814   8.290  48.629  1.00  0.00     0.080 C 
HETATM    4 CL1  UNL     1      27.539   9.127  50.113  1.00  0.00    -0.075 Cl
ENDROOT
BRANCH   3   5
HETATM    5  C4  UNL     1      28.019   6.903  48.400  1.00  0.00    -0.036 C 
HETATM    6  C5  UNL     1      29.205   6.310  47.732  1.00  0.00     0.050 C 
BRANCH   5   7
HETATM    7  C6  UNL     1      27.118   6.014  48.788  1.00  0.00    -0.014 C 
BRANCH   7   8
HETATM    8  C7  UNL     1      25.646   6.005  48.585  1.00  0.00     0.074 C 
BRANCH   8   9
HETATM    9  C8  UNL     1      24.918   5.734  49.877  1.00  0.00     0.209 A 
HETATM   10  C9  UNL     1      23.450   5.646  49.659  1.00  0.00     0.029 A 
HETATM   11  N1  UNL     1      23.956   4.631  49.039  1.00  0.00    -0.170 NA
HETATM   12  C22 UNL     1      21.962   5.773  49.583  1.00  0.00     0.081 C 
HETATM   13  N2  UNL     1      24.663   4.359  50.176  1.00  0.00    -0.281 N 
HETATM   14  C10 UNL     1      24.949   3.330  51.072  1.00  0.00     0.054 A 
HETATM   15  C11 UNL     1      26.168   2.758  50.704  1.00  0.00     0.031 A 
HETATM   16  C15 UNL     1      24.283   2.824  52.172  1.00  0.00    -0.028 A 
HETATM   17  C12 UNL     1      26.746   1.691  51.402  1.00  0.00     0.002 A 
HETATM   18  C13 UNL     1      26.077   1.193  52.494  1.00  0.00     0.001 A 
HETATM   19  C14 UNL     1      24.886   1.773  52.831  1.00  0.00     0.009 A 
HETATM   20  C16 UNL     1      23.005   3.333  52.658  1.00  0.00     0.067 C 
HETATM   21  C17 UNL     1      21.810   2.881  51.799  1.00  0.00     0.172 C 
HETATM   22  O1  UNL     1      20.709   3.448  52.351  1.00  0.00    -0.389 OA
HETATM   23  C18 UNL     1      19.496   3.270  51.775  1.00  0.00     0.194 C 
HETATM   24  C19 UNL     1      19.328   3.831  50.379  1.00  0.00     0.200 C 
HETATM   25  O2  UNL     1      20.234   3.266  49.474  1.00  0.00    -0.361 OA
HETATM   26  C20 UNL     1      20.674   3.924  48.373  1.00  0.00     0.131 C 
HETATM   27  C21 UNL     1      21.436   5.026  48.442  1.00  0.00     0.003 C 
ENDBRANCH   8   9
ENDBRANCH   7   8
ENDBRANCH   5   7
ENDBRANCH   3   5
TORSDOF 4
ENDMDL
