MODEL 1
REMARK VINA RESULT:      -8.1      0.000      0.000
REMARK  5 active torsions:
REMARK  status: ('A' for Active; 'I' for Inactive)
REMARK    1  A    between atoms: C2_2  and  C3_3 
REMARK    2  A    between atoms: C7_7  and  N1_8 
REMARK    3  A    between atoms: N1_8  and  O1_9 
REMARK    4  A    between atoms: O1_9  and  C8_10 
REMARK    5  A    between atoms: C13_17  and  O2_18 
ROOT
HETATM    1  C8  UNL     1      27.532   1.626  52.572  1.00  0.00     0.207 A 
HETATM    2  N2  UNL     1      28.740   1.962  53.034  1.00  0.00    -0.215 NA
HETATM    3  C9  UNL     1      29.106   1.507  54.244  1.00  0.00     0.238 A 
HETATM    4  N3  UNL     1      28.281   0.724  54.991  1.00  0.00    -0.217 NA
HETATM    5  C10 UNL     1      27.046   0.374  54.532  1.00  0.00     0.180 A 
HETATM    6  C11 UNL     1      26.645   0.828  53.295  1.00  0.00     0.074 A 
HETATM    7  C12 UNL     1      25.339   0.478  52.769  1.00  0.00     0.055 A 
HETATM    8  C13 UNL     1      24.608  -0.276  53.548  1.00  0.00     0.071 A 
HETATM    9  C15 UNL     1      24.934  -0.814  54.879  1.00  0.00     0.241 A 
HETATM   10  O3  UNL     1      26.213  -0.421  55.296  1.00  0.00    -0.327 OA
ENDROOT
BRANCH   1  11
HETATM   11  O1  UNL     1      27.078   2.052  51.340  1.00  0.00    -0.216 OA
BRANCH  11  12
HETATM   12  N1  UNL     1      26.675   3.330  51.063  1.00  0.00    -0.259 N 
HETATM   13  H9  UNL     1      27.304   3.888  51.669  1.00  0.00     0.195 HD
BRANCH  12  14
HETATM   14  C7  UNL     1      25.706   3.906  50.227  1.00  0.00     0.055 A 
HETATM   15  C6  UNL     1      25.940   5.167  49.719  1.00  0.00     0.031 A 
HETATM   16  C5  UNL     1      24.957   5.686  48.904  1.00  0.00     0.003 A 
HETATM   17  C4  UNL     1      23.783   5.040  48.573  1.00  0.00     0.007 A 
HETATM   18  C3  UNL     1      23.563   3.764  49.097  1.00  0.00    -0.056 A 
HETATM   19  C16 UNL     1      24.549   3.218  49.928  1.00  0.00     0.038 A 
BRANCH  18  20
HETATM   20  C2  UNL     1      22.314   3.080  48.744  1.00  0.00     0.034 C 
HETATM   21  C1  UNL     1      22.453   2.059  47.654  1.00  0.00     0.010 C 
ENDBRANCH  18  20
ENDBRANCH  12  14
ENDBRANCH  11  12
ENDBRANCH   1  11
BRANCH   8  22
HETATM   22  O2  UNL     1      23.358  -0.596  53.020  1.00  0.00    -0.358 OA
HETATM   23  C14 UNL     1      22.368  -1.163  53.885  1.00  0.00     0.209 C 
ENDBRANCH   8  22
TORSDOF 5
ENDMDL
MODEL 2
REMARK VINA RESULT:      -7.9      0.700      2.072
REMARK  5 active torsions:
REMARK  status: ('A' for Active; 'I' for Inactive)
REMARK    1  A    between atoms: C2_2  and  C3_3 
REMARK    2  A    between atoms: C7_7  and  N1_8 
REMARK    3  A    between atoms: N1_8  and  O1_9 
REMARK    4  A    between atoms: O1_9  and  C8_10 
REMARK    5  A    between atoms: C13_17  and  O2_18 
ROOT
HETATM    1  C8  UNL     1      27.516   1.515  52.624  1.00  0.00     0.207 A 
HETATM    2  N2  UNL     1      28.729   1.845  53.077  1.00  0.00    -0.215 NA
HETATM    3  C9  UNL     1      29.100   1.394  54.286  1.00  0.00     0.238 A 
HETATM    4  N3  UNL     1      28.273   0.620  55.043  1.00  0.00    -0.217 NA
HETATM    5  C10 UNL     1      27.034   0.276  54.592  1.00  0.00     0.180 A 
HETATM    6  C11 UNL     1      26.629   0.726  53.355  1.00  0.00     0.074 A 
HETATM    7  C12 UNL     1      25.317   0.382  52.839  1.00  0.00     0.055 A 
HETATM    8  C13 UNL     1      24.586  -0.364  53.625  1.00  0.00     0.071 A 
HETATM    9  C15 UNL     1      24.917  -0.898  54.957  1.00  0.00     0.241 A 
HETATM   10  O3  UNL     1      26.200  -0.511  55.365  1.00  0.00    -0.327 OA
ENDROOT
BRANCH   1  11
HETATM   11  O1  UNL     1      27.058   1.938  51.392  1.00  0.00    -0.216 OA
BRANCH  11  12
HETATM   12  N1  UNL     1      26.741   3.234  51.087  1.00  0.00    -0.259 N 
HETATM   13  H9  UNL     1      27.453   3.760  51.627  1.00  0.00     0.195 HD
BRANCH  12  14
HETATM   14  C7  UNL     1      25.767   3.857  50.292  1.00  0.00     0.055 A 
HETATM   15  C6  UNL     1      24.547   3.231  50.134  1.00  0.00     0.031 A 
HETATM   16  C5  UNL     1      23.627   3.885  49.343  1.00  0.00     0.003 A 
HETATM   17  C4  UNL     1      23.842   5.095  48.715  1.00  0.00     0.007 A 
HETATM   18  C3  UNL     1      25.083   5.714  48.886  1.00  0.00    -0.056 A 
HETATM   19  C16 UNL     1      26.033   5.067  49.686  1.00  0.00     0.038 A 
BRANCH  18  20
HETATM   20  C2  UNL     1      25.310   7.000  48.218  1.00  0.00     0.034 C 
HETATM   21  C1  UNL     1      26.755   7.352  48.022  1.00  0.00     0.010 C 
ENDBRANCH  18  20
ENDBRANCH  12  14
ENDBRANCH  11  12
ENDBRANCH   1  11
BRANCH   8  22
HETATM   22  O2  UNL     1      23.331  -0.679  53.106  1.00  0.00    -0.358 OA
HETATM   23  C14 UNL     1      22.246  -0.905  54.012  1.00  0.00     0.209 C 
ENDBRANCH   8  22
TORSDOF 5
ENDMDL
MODEL 3
REMARK VINA RESULT:      -7.6      3.383      6.272
REMARK  5 active torsions:
REMARK  status: ('A' for Active; 'I' for Inactive)
REMARK    1  A    between atoms: C2_2  and  C3_3 
REMARK    2  A    between atoms: C7_7  and  N1_8 
REMARK    3  A    between atoms: N1_8  and  O1_9 
REMARK    4  A    between atoms: O1_9  and  C8_10 
REMARK    5  A    between atoms: C13_17  and  O2_18 
ROOT
HETATM    1  C8  UNL     1      23.113  -0.082  53.385  1.00  0.00     0.207 A 
HETATM    2  N2  UNL     1      23.628  -0.696  54.455  1.00  0.00    -0.215 NA
HETATM    3  C9  UNL     1      22.803  -1.419  55.230  1.00  0.00     0.238 A 
HETATM    4  N3  UNL     1      21.477  -1.535  54.946  1.00  0.00    -0.217 NA
HETATM    5  C10 UNL     1      20.939  -0.915  53.858  1.00  0.00     0.180 A 
HETATM    6  C11 UNL     1      21.763  -0.166  53.047  1.00  0.00     0.074 A 
HETATM    7  C12 UNL     1      21.230   0.509  51.878  1.00  0.00     0.055 A 
HETATM    8  C13 UNL     1      19.949   0.348  51.676  1.00  0.00     0.071 A 
HETATM    9  C15 UNL     1      18.981  -0.424  52.473  1.00  0.00     0.241 A 
HETATM   10  O3  UNL     1      19.591  -1.037  53.576  1.00  0.00    -0.327 OA
ENDROOT
BRANCH   1  11
HETATM   11  O1  UNL     1      23.891   0.680  52.537  1.00  0.00    -0.216 OA
BRANCH  11  12
HETATM   12  N1  UNL     1      25.178   0.375  52.183  1.00  0.00    -0.259 N 
HETATM   13  H9  UNL     1      25.033  -0.224  51.350  1.00  0.00     0.195 HD
BRANCH  12  14
HETATM   14  C7  UNL     1      26.448   0.693  52.689  1.00  0.00     0.055 A 
HETATM   15  C6  UNL     1      26.731   2.012  52.974  1.00  0.00     0.031 A 
HETATM   16  C5  UNL     1      27.993   2.270  53.468  1.00  0.00     0.003 A 
HETATM   17  C4  UNL     1      28.964   1.315  53.689  1.00  0.00     0.007 A 
HETATM   18  C3  UNL     1      28.659  -0.016  53.394  1.00  0.00    -0.056 A 
HETATM   19  C16 UNL     1      27.384  -0.300  52.891  1.00  0.00     0.038 A 
BRANCH  18  20
HETATM   20  C2  UNL     1      29.694  -1.029  53.631  1.00  0.00     0.034 C 
HETATM   21  C1  UNL     1      29.286  -2.428  53.276  1.00  0.00     0.010 C 
ENDBRANCH  18  20
ENDBRANCH  12  14
ENDBRANCH  11  12
ENDBRANCH   1  11
BRANCH   8  22
HETATM   22  O2  UNL     1      19.463   1.008  50.548  1.00  0.00    -0.358 OA
HETATM   23  C14 UNL     1      19.480   2.439  50.526  1.00  0.00     0.209 C 
ENDBRANCH   8  22
TORSDOF 5
ENDMDL
MODEL 4
REMARK VINA RESULT:      -7.4      2.387      4.137
REMARK  5 active torsions:
REMARK  status: ('A' for Active; 'I' for Inactive)
REMARK    1  A    between atoms: C2_2  and  C3_3 
REMARK    2  A    between atoms: C7_7  and  N1_8 
REMARK    3  A    between atoms: N1_8  and  O1_9 
REMARK    4  A    between atoms: O1_9  and  C8_10 
REMARK    5  A    between atoms: C13_17  and  O2_18 
ROOT
HETATM    1  C8  UNL     1      23.523   1.691  52.889  1.00  0.00     0.207 A 
HETATM    2  N2  UNL     1      22.448   0.904  52.789  1.00  0.00    -0.215 NA
HETATM    3  C9  UNL     1      22.569  -0.385  53.149  1.00  0.00     0.238 A 
HETATM    4  N3  UNL     1      23.748  -0.891  53.604  1.00  0.00    -0.217 NA
HETATM    5  C10 UNL     1      24.852  -0.099  53.711  1.00  0.00     0.180 A 
HETATM    6  C11 UNL     1      24.756   1.226  53.349  1.00  0.00     0.074 A 
HETATM    7  C12 UNL     1      25.907   2.103  53.447  1.00  0.00     0.055 A 
HETATM    8  C13 UNL     1      27.000   1.540  53.893  1.00  0.00     0.071 A 
HETATM    9  C15 UNL     1      27.214   0.143  54.306  1.00  0.00     0.241 A 
HETATM   10  O3  UNL     1      26.046  -0.619  54.174  1.00  0.00    -0.327 OA
ENDROOT
BRANCH   1  11
HETATM   11  O1  UNL     1      23.485   3.026  52.541  1.00  0.00    -0.216 OA
BRANCH  11  12
HETATM   12  N1  UNL     1      23.340   3.487  51.260  1.00  0.00    -0.259 N 
HETATM   13  H9  UNL     1      22.459   3.028  50.967  1.00  0.00     0.195 HD
BRANCH  12  14
HETATM   14  C7  UNL     1      24.075   4.342  50.424  1.00  0.00     0.055 A 
HETATM   15  C6  UNL     1      23.477   5.504  49.981  1.00  0.00     0.031 A 
HETATM   16  C5  UNL     1      24.243   6.307  49.162  1.00  0.00     0.003 A 
HETATM   17  C4  UNL     1      25.536   6.029  48.769  1.00  0.00     0.007 A 
HETATM   18  C3  UNL     1      26.125   4.848  49.228  1.00  0.00    -0.056 A 
HETATM   19  C16 UNL     1      25.365   4.018  50.060  1.00  0.00     0.038 A 
BRANCH  18  20
HETATM   20  C2  UNL     1      27.500   4.555  48.808  1.00  0.00     0.034 C 
HETATM   21  C1  UNL     1      28.267   5.748  48.321  1.00  0.00     0.010 C 
ENDBRANCH  18  20
ENDBRANCH  12  14
ENDBRANCH  11  12
ENDBRANCH   1  11
BRANCH   8  22
HETATM   22  O2  UNL     1      28.091   2.404  53.977  1.00  0.00    -0.358 OA
HETATM   23  C14 UNL     1      29.339   1.894  54.457  1.00  0.00     0.209 C 
ENDBRANCH   8  22
TORSDOF 5
ENDMDL
MODEL 5
REMARK VINA RESULT:      -7.4      2.578      4.438
REMARK  5 active torsions:
REMARK  status: ('A' for Active; 'I' for Inactive)
REMARK    1  A    between atoms: C2_2  and  C3_3 
REMARK    2  A    between atoms: C7_7  and  N1_8 
REMARK    3  A    between atoms: N1_8  and  O1_9 
REMARK    4  A    between atoms: O1_9  and  C8_10 
REMARK    5  A    between atoms: C13_17  and  O2_18 
ROOT
HETATM    1  C8  UNL     1      25.606   2.567  51.358  1.00  0.00     0.207 A 
HETATM    2  N2  UNL     1      24.537   3.368  51.323  1.00  0.00    -0.215 NA
HETATM    3  C9  UNL     1      23.475   3.043  52.078  1.00  0.00     0.238 A 
HETATM    4  N3  UNL     1      23.471   1.931  52.863  1.00  0.00    -0.217 NA
HETATM    5  C10 UNL     1      24.555   1.105  52.908  1.00  0.00     0.180 A 
HETATM    6  C11 UNL     1      25.657   1.415  52.143  1.00  0.00     0.074 A 
HETATM    7  C12 UNL     1      26.831   0.563  52.162  1.00  0.00     0.055 A 
HETATM    8  C13 UNL     1      26.748  -0.484  52.941  1.00  0.00     0.071 A 
HETATM    9  C15 UNL     1      25.626  -0.909  53.796  1.00  0.00     0.241 A 
HETATM   10  O3  UNL     1      24.545  -0.023  53.708  1.00  0.00    -0.327 OA
ENDROOT
BRANCH   1  11
HETATM   11  O1  UNL     1      26.738   2.828  50.613  1.00  0.00    -0.216 OA
BRANCH  11  12
HETATM   12  N1  UNL     1      26.732   3.420  49.379  1.00  0.00    -0.259 N 
HETATM   13  H9  UNL     1      26.432   2.638  48.769  1.00  0.00     0.195 HD
BRANCH  12  14
HETATM   14  C7  UNL     1      27.023   4.704  48.892  1.00  0.00     0.055 A 
HETATM   15  C6  UNL     1      26.004   5.633  48.839  1.00  0.00     0.031 A 
HETATM   16  C5  UNL     1      26.343   6.878  48.353  1.00  0.00     0.003 A 
HETATM   17  C4  UNL     1      27.604   7.244  47.928  1.00  0.00     0.007 A 
HETATM   18  C3  UNL     1      28.622   6.290  47.989  1.00  0.00    -0.056 A 
HETATM   19  C16 UNL     1      28.300   5.019  48.479  1.00  0.00     0.038 A 
BRANCH  18  20
HETATM   20  C2  UNL     1      29.962   6.681  47.537  1.00  0.00     0.034 C 
HETATM   21  C1  UNL     1      30.989   5.591  47.620  1.00  0.00     0.010 C 
ENDBRANCH  18  20
ENDBRANCH  12  14
ENDBRANCH  11  12
ENDBRANCH   1  11
BRANCH   8  22
HETATM   22  O2  UNL     1      27.888  -1.286  52.940  1.00  0.00    -0.358 OA
HETATM   23  C14 UNL     1      29.087  -0.781  53.538  1.00  0.00     0.209 C 
ENDBRANCH   8  22
TORSDOF 5
ENDMDL
MODEL 6
REMARK VINA RESULT:      -7.3      3.298      5.911
REMARK  5 active torsions:
REMARK  status: ('A' for Active; 'I' for Inactive)
REMARK    1  A    between atoms: C2_2  and  C3_3 
REMARK    2  A    between atoms: C7_7  and  N1_8 
REMARK    3  A    between atoms: N1_8  and  O1_9 
REMARK    4  A    between atoms: O1_9  and  C8_10 
REMARK    5  A    between atoms: C13_17  and  O2_18 
ROOT
HETATM    1  C8  UNL     1      23.713  -0.078  53.570  1.00  0.00     0.207 A 
HETATM    2  N2  UNL     1      23.133  -0.906  54.444  1.00  0.00    -0.215 NA
HETATM    3  C9  UNL     1      23.891  -1.429  55.423  1.00  0.00     0.238 A 
HETATM    4  N3  UNL     1      25.215  -1.133  55.534  1.00  0.00    -0.217 NA
HETATM    5  C10 UNL     1      25.819  -0.291  54.650  1.00  0.00     0.180 A 
HETATM    6  C11 UNL     1      25.065   0.259  53.637  1.00  0.00     0.074 A 
HETATM    7  C12 UNL     1      25.669   1.161  52.674  1.00  0.00     0.055 A 
HETATM    8  C13 UNL     1      26.944   1.393  52.851  1.00  0.00     0.071 A 
HETATM    9  C15 UNL     1      27.840   0.863  53.892  1.00  0.00     0.241 A 
HETATM   10  O3  UNL     1      27.164   0.006  54.769  1.00  0.00    -0.327 OA
ENDROOT
BRANCH   1  11
HETATM   11  O1  UNL     1      23.007   0.502  52.536  1.00  0.00    -0.216 OA
BRANCH  11  12
HETATM   12  N1  UNL     1      21.728   0.976  52.643  1.00  0.00    -0.259 N 
HETATM   13  H9  UNL     1      21.881   1.909  53.067  1.00  0.00     0.195 HD
BRANCH  12  14
HETATM   14  C7  UNL     1      20.455   0.479  52.323  1.00  0.00     0.055 A 
HETATM   15  C6  UNL     1      19.878   0.865  51.131  1.00  0.00     0.031 A 
HETATM   16  C5  UNL     1      18.627   0.349  50.866  1.00  0.00     0.003 A 
HETATM   17  C4  UNL     1      17.934  -0.508  51.696  1.00  0.00     0.007 A 
HETATM   18  C3  UNL     1      18.534  -0.888  52.900  1.00  0.00    -0.056 A 
HETATM   19  C16 UNL     1      19.804  -0.375  53.189  1.00  0.00     0.038 A 
BRANCH  18  20
HETATM   20  C2  UNL     1      17.795  -1.799  53.780  1.00  0.00     0.034 C 
HETATM   21  C1  UNL     1      17.119  -2.935  53.072  1.00  0.00     0.010 C 
ENDBRANCH  18  20
ENDBRANCH  12  14
ENDBRANCH  11  12
ENDBRANCH   1  11
BRANCH   8  22
HETATM   22  O2  UNL     1      27.499   2.262  51.913  1.00  0.00    -0.358 OA
HETATM   23  C14 UNL     1      26.641   2.869  50.942  1.00  0.00     0.209 C 
ENDBRANCH   8  22
TORSDOF 5
ENDMDL
MODEL 7
REMARK VINA RESULT:      -7.1      2.898      7.223
REMARK  5 active torsions:
REMARK  status: ('A' for Active; 'I' for Inactive)
REMARK    1  A    between atoms: C2_2  and  C3_3 
REMARK    2  A    between atoms: C7_7  and  N1_8 
REMARK    3  A    between atoms: N1_8  and  O1_9 
REMARK    4  A    between atoms: O1_9  and  C8_10 
REMARK    5  A    between atoms: C13_17  and  O2_18 
ROOT
HETATM    1  C8  UNL     1      26.991   4.513  49.183  1.00  0.00     0.207 A 
HETATM    2  N2  UNL     1      28.236   4.729  48.750  1.00  0.00    -0.215 NA
HETATM    3  C9  UNL     1      28.510   5.905  48.162  1.00  0.00     0.238 A 
HETATM    4  N3  UNL     1      27.555   6.862  48.003  1.00  0.00    -0.217 NA
HETATM    5  C10 UNL     1      26.280   6.655  48.440  1.00  0.00     0.180 A 
HETATM    6  C11 UNL     1      25.973   5.458  49.047  1.00  0.00     0.074 A 
HETATM    7  C12 UNL     1      24.629   5.197  49.527  1.00  0.00     0.055 A 
HETATM    8  C13 UNL     1      23.771   6.166  49.337  1.00  0.00     0.071 A 
HETATM    9  C15 UNL     1      23.990   7.478  48.705  1.00  0.00     0.241 A 
HETATM   10  O3  UNL     1      25.315   7.632  48.277  1.00  0.00    -0.327 OA
ENDROOT
BRANCH   1  11
HETATM   11  O1  UNL     1      26.627   3.332  49.798  1.00  0.00    -0.216 OA
BRANCH  11  12
HETATM   12  N1  UNL     1      26.746   3.090  51.139  1.00  0.00    -0.259 N 
HETATM   13  H9  UNL     1      26.867   4.046  51.519  1.00  0.00     0.195 HD
BRANCH  12  14
HETATM   14  C7  UNL     1      26.734   1.941  51.945  1.00  0.00     0.055 A 
HETATM   15  C6  UNL     1      25.593   1.165  51.968  1.00  0.00     0.031 A 
HETATM   16  C5  UNL     1      25.634   0.048  52.776  1.00  0.00     0.003 A 
HETATM   17  C4  UNL     1      26.716  -0.333  53.542  1.00  0.00     0.007 A 
HETATM   18  C3  UNL     1      27.863   0.465  53.506  1.00  0.00    -0.056 A 
HETATM   19  C16 UNL     1      27.843   1.604  52.693  1.00  0.00     0.038 A 
BRANCH  18  20
HETATM   20  C2  UNL     1      29.012   0.057  54.322  1.00  0.00     0.034 C 
HETATM   21  C1  UNL     1      29.852  -1.026  53.713  1.00  0.00     0.010 C 
ENDBRANCH  18  20
ENDBRANCH  12  14
ENDBRANCH  11  12
ENDBRANCH   1  11
BRANCH   8  22
HETATM   22  O2  UNL     1      22.488   5.890  49.807  1.00  0.00    -0.358 OA
HETATM   23  C14 UNL     1      21.907   6.765  50.779  1.00  0.00     0.209 C 
ENDBRANCH   8  22
TORSDOF 5
ENDMDL
MODEL 8
REMARK VINA RESULT:      -7.0      1.774      2.622
REMARK  5 active torsions:
REMARK  status: ('A' for Active; 'I' for Inactive)
REMARK    1  A    between atoms: C2_2  and  C3_3 
REMARK    2  A    between atoms: C7_7  and  N1_8 
REMARK    3  A    between atoms: N1_8  and  O1_9 
REMARK    4  A    between atoms: O1_9  and  C8_10 
REMARK    5  A    between atoms: C13_17  and  O2_18 
ROOT
HETATM    1  C8  UNL     1      25.188   1.170  52.789  1.00  0.00     0.207 A 
HETATM    2  N2  UNL     1      26.517   1.303  52.759  1.00  0.00    -0.215 NA
HETATM    3  C9  UNL     1      27.250   0.545  53.591  1.00  0.00     0.238 A 
HETATM    4  N3  UNL     1      26.670  -0.341  54.446  1.00  0.00    -0.217 NA
HETATM    5  C10 UNL     1      25.315  -0.486  54.487  1.00  0.00     0.180 A 
HETATM    6  C11 UNL     1      24.540   0.280  53.645  1.00  0.00     0.074 A 
HETATM    7  C12 UNL     1      23.095   0.155  53.656  1.00  0.00     0.055 A 
HETATM    8  C13 UNL     1      22.616  -0.716  54.505  1.00  0.00     0.071 A 
HETATM    9  C15 UNL     1      23.347  -1.582  55.445  1.00  0.00     0.241 A 
HETATM   10  O3  UNL     1      24.732  -1.388  55.358  1.00  0.00    -0.327 OA
ENDROOT
BRANCH   1  11
HETATM   11  O1  UNL     1      24.363   1.911  51.968  1.00  0.00    -0.216 OA
BRANCH  11  12
HETATM   12  N1  UNL     1      24.642   2.218  50.663  1.00  0.00    -0.259 N 
HETATM   13  H9  UNL     1      24.296   1.377  50.167  1.00  0.00     0.195 HD
BRANCH  12  14
HETATM   14  C7  UNL     1      25.227   3.311  50.005  1.00  0.00     0.055 A 
HETATM   15  C6  UNL     1      26.584   3.283  49.760  1.00  0.00     0.031 A 
HETATM   16  C5  UNL     1      27.108   4.381  49.111  1.00  0.00     0.003 A 
HETATM   17  C4  UNL     1      26.378   5.478  48.700  1.00  0.00     0.007 A 
HETATM   18  C3  UNL     1      25.005   5.489  48.957  1.00  0.00    -0.056 A 
HETATM   19  C16 UNL     1      24.453   4.384  49.615  1.00  0.00     0.038 A 
BRANCH  18  20
HETATM   20  C2  UNL     1      24.232   6.657  48.520  1.00  0.00     0.034 C 
HETATM   21  C1  UNL     1      25.054   7.750  47.905  1.00  0.00     0.010 C 
ENDBRANCH  18  20
ENDBRANCH  12  14
ENDBRANCH  11  12
ENDBRANCH   1  11
BRANCH   8  22
HETATM   22  O2  UNL     1      21.226  -0.816  54.496  1.00  0.00    -0.358 OA
HETATM   23  C14 UNL     1      20.493  -0.143  53.466  1.00  0.00     0.209 C 
ENDBRANCH   8  22
TORSDOF 5
ENDMDL
MODEL 9
REMARK VINA RESULT:      -7.0      2.998      6.514
REMARK  5 active torsions:
REMARK  status: ('A' for Active; 'I' for Inactive)
REMARK    1  A    between atoms: C2_2  and  C3_3 
REMARK    2  A    between atoms: C7_7  and  N1_8 
REMARK    3  A    between atoms: N1_8  and  O1_9 
REMARK    4  A    between atoms: O1_9  and  C8_10 
REMARK    5  A    between atoms: C13_17  and  O2_18 
ROOT
HETATM    1  C8  UNL     1      26.832   4.499  49.306  1.00  0.00     0.207 A 
HETATM    2  N2  UNL     1      27.998   4.619  48.664  1.00  0.00    -0.215 NA
HETATM    3  C9  UNL     1      28.389   5.846  48.281  1.00  0.00     0.238 A 
HETATM    4  N3  UNL     1      27.630   6.947  48.533  1.00  0.00    -0.217 NA
HETATM    5  C10 UNL     1      26.438   6.839  49.186  1.00  0.00     0.180 A 
HETATM    6  C11 UNL     1      26.014   5.593  49.589  1.00  0.00     0.074 A 
HETATM    7  C12 UNL     1      24.752   5.434  50.288  1.00  0.00     0.055 A 
HETATM    8  C13 UNL     1      24.083   6.539  50.490  1.00  0.00     0.071 A 
HETATM    9  C15 UNL     1      24.440   7.914  50.104  1.00  0.00     0.241 A 
HETATM   10  O3  UNL     1      25.672   7.962  49.438  1.00  0.00    -0.327 OA
ENDROOT
BRANCH   1  11
HETATM   11  O1  UNL     1      26.357   3.276  49.733  1.00  0.00    -0.216 OA
BRANCH  11  12
HETATM   12  N1  UNL     1      26.509   2.787  51.003  1.00  0.00    -0.259 N 
HETATM   13  H9  UNL     1      27.136   3.494  51.429  1.00  0.00     0.195 HD
BRANCH  12  14
HETATM   14  C7  UNL     1      26.030   1.667  51.699  1.00  0.00     0.055 A 
HETATM   15  C6  UNL     1      26.889   0.609  51.916  1.00  0.00     0.031 A 
HETATM   16  C5  UNL     1      26.368  -0.466  52.604  1.00  0.00     0.003 A 
HETATM   17  C4  UNL     1      25.074  -0.548  53.077  1.00  0.00     0.007 A 
HETATM   18  C3  UNL     1      24.219   0.532  52.848  1.00  0.00    -0.056 A 
HETATM   19  C16 UNL     1      24.727   1.634  52.151  1.00  0.00     0.038 A 
BRANCH  18  20
HETATM   20  C2  UNL     1      22.844   0.442  53.353  1.00  0.00     0.034 C 
HETATM   21  C1  UNL     1      22.565  -0.780  54.177  1.00  0.00     0.010 C 
ENDBRANCH  18  20
ENDBRANCH  12  14
ENDBRANCH  11  12
ENDBRANCH   1  11
BRANCH   8  22
HETATM   22  O2  UNL     1      22.875   6.358  51.162  1.00  0.00    -0.358 OA
HETATM   23  C14 UNL     1      22.546   5.053  51.650  1.00  0.00     0.209 C 
ENDBRANCH   8  22
TORSDOF 5
ENDMDL
