MODEL 1
REMARK VINA RESULT:      -8.0      0.000      0.000
REMARK  4 active torsions:
REMARK  status: ('A' for Active; 'I' for Inactive)
REMARK    1  A    between atoms: N1_2  and  C2_3 
REMARK    2  A    between atoms: C6_8  and  N2_9 
REMARK    3  A    between atoms: N2_9  and  C7_10 
REMARK    4  A    between atoms: C10_14  and  C11_15 
ROOT
HETATM    1  C7  UNL     1      25.252   2.407  51.618  1.00  0.00     0.727 A 
HETATM    2  N3  UNL     1      24.797   3.005  50.521  1.00  0.00    -0.075 NA
HETATM    3  C8  UNL     1      23.560   2.837  50.049  1.00  0.00     0.139 A 
HETATM    4  C9  UNL     1      22.688   2.022  50.689  1.00  0.00     0.053 A 
HETATM    5  C10 UNL     1      23.114   1.381  51.829  1.00  0.00     0.089 A 
HETATM    6  N5  UNL     1      24.372   1.619  52.215  1.00  0.00    -0.062 NA
ENDROOT
BRANCH   1   7
HETATM    7  N2  UNL     1      26.547   2.543  52.168  1.00  0.00    -0.185 N 
HETATM    8  H7  UNL     1      26.965   3.505  52.184  1.00  0.00     0.184 HD
BRANCH   7   9
HETATM    9  C6  UNL     1      27.365   1.534  52.707  1.00  0.00     0.090 A 
HETATM   10  C5  UNL     1      28.550   1.848  53.376  1.00  0.00     0.143 A 
HETATM   11  C4  UNL     1      29.385   0.903  53.921  1.00  0.00     0.047 A 
HETATM   12  F1  UNL     1      28.911   3.168  53.502  1.00  0.00    -0.204 F 
HETATM   13  C3  UNL     1      29.097  -0.430  53.838  1.00  0.00     0.032 A 
HETATM   14  C2  UNL     1      27.944  -0.796  53.191  1.00  0.00     0.029 A 
HETATM   15  C16 UNL     1      27.136   0.177  52.660  1.00  0.00     0.062 A 
BRANCH  14  16
HETATM   16  N1  UNL     1      27.642  -2.174  53.102  1.00  0.00    -0.394 N 
HETATM   17  C1  UNL     1      28.684  -3.159  53.108  1.00  0.00     0.146 C 
HETATM   18  H4  UNL     1      26.626  -2.466  53.031  1.00  0.00     0.159 HD
ENDBRANCH  14  16
ENDBRANCH   7   9
ENDBRANCH   1   7
BRANCH   5  19
HETATM   19  C11 UNL     1      22.287   0.478  52.618  1.00  0.00     0.011 A 
HETATM   20  C12 UNL     1      22.906  -0.360  53.520  1.00  0.00     0.017 A 
HETATM   21  C13 UNL     1      22.195  -1.250  54.310  1.00  0.00     0.020 A 
HETATM   22  C14 UNL     1      20.807  -1.265  54.158  1.00  0.00     0.116 A 
HETATM   23  N4  UNL     1      20.191  -0.439  53.269  1.00  0.00    -0.272 NA
HETATM   24  C15 UNL     1      20.917   0.413  52.518  1.00  0.00     0.130 A 
ENDBRANCH   5  19
TORSDOF 4
ENDMDL
MODEL 2
REMARK VINA RESULT:      -7.9      2.734      6.110
REMARK  4 active torsions:
REMARK  status: ('A' for Active; 'I' for Inactive)
REMARK    1  A    between atoms: N1_2  and  C2_3 
REMARK    2  A    between atoms: C6_8  and  N2_9 
REMARK    3  A    between atoms: N2_9  and  C7_10 
REMARK    4  A    between atoms: C10_14  and  C11_15 
ROOT
HETATM    1  C7  UNL     1      23.577   1.442  51.545  1.00  0.00     0.727 A 
HETATM    2  N3  UNL     1      22.560   0.755  52.056  1.00  0.00    -0.075 NA
HETATM    3  C8  UNL     1      22.697  -0.150  53.027  1.00  0.00     0.139 A 
HETATM    4  C9  UNL     1      23.918  -0.415  53.549  1.00  0.00     0.053 A 
HETATM    5  C10 UNL     1      25.001   0.271  53.051  1.00  0.00     0.089 A 
HETATM    6  N5  UNL     1      24.754   1.156  52.079  1.00  0.00    -0.062 NA
ENDROOT
BRANCH   1   7
HETATM    7  N2  UNL     1      23.498   2.411  50.519  1.00  0.00    -0.185 N 
HETATM    8  H7  UNL     1      23.015   2.134  49.630  1.00  0.00     0.184 HD
BRANCH   7   9
HETATM    9  C6  UNL     1      23.996   3.726  50.534  1.00  0.00     0.090 A 
HETATM   10  C5  UNL     1      23.301   4.753  51.176  1.00  0.00     0.143 A 
HETATM   11  C4  UNL     1      23.743   6.053  51.221  1.00  0.00     0.047 A 
HETATM   12  F1  UNL     1      22.113   4.460  51.800  1.00  0.00    -0.204 F 
HETATM   13  C3  UNL     1      24.915   6.426  50.625  1.00  0.00     0.032 A 
HETATM   14  C2  UNL     1      25.639   5.457  49.979  1.00  0.00     0.029 A 
HETATM   15  C16 UNL     1      25.166   4.169  49.956  1.00  0.00     0.062 A 
BRANCH  14  16
HETATM   16  N1  UNL     1      26.852   5.837  49.360  1.00  0.00    -0.394 N 
HETATM   17  C1  UNL     1      27.655   4.876  48.662  1.00  0.00     0.146 C 
HETATM   18  H4  UNL     1      27.157   6.848  49.423  1.00  0.00     0.159 HD
ENDBRANCH  14  16
ENDBRANCH   7   9
ENDBRANCH   1   7
BRANCH   5  19
HETATM   19  C11 UNL     1      26.370   0.090  53.515  1.00  0.00     0.011 A 
HETATM   20  C12 UNL     1      27.195  -0.759  52.810  1.00  0.00     0.017 A 
HETATM   21  C13 UNL     1      28.510  -0.989  53.182  1.00  0.00     0.020 A 
HETATM   22  C14 UNL     1      28.977  -0.317  54.314  1.00  0.00     0.116 A 
HETATM   23  N4  UNL     1      28.165   0.522  55.015  1.00  0.00    -0.272 NA
HETATM   24  C15 UNL     1      26.891   0.720  54.621  1.00  0.00     0.130 A 
ENDBRANCH   5  19
TORSDOF 4
ENDMDL
MODEL 3
REMARK VINA RESULT:      -7.9      3.366      6.110
REMARK  4 active torsions:
REMARK  status: ('A' for Active; 'I' for Inactive)
REMARK    1  A    between atoms: N1_2  and  C2_3 
REMARK    2  A    between atoms: C6_8  and  N2_9 
REMARK    3  A    between atoms: N2_9  and  C7_10 
REMARK    4  A    between atoms: C10_14  and  C11_15 
ROOT
HETATM    1  C7  UNL     1      23.682   3.779  51.336  1.00  0.00     0.727 A 
HETATM    2  N3  UNL     1      22.572   3.882  50.612  1.00  0.00    -0.075 NA
HETATM    3  C8  UNL     1      22.539   4.403  49.385  1.00  0.00     0.139 A 
HETATM    4  C9  UNL     1      23.672   4.866  48.806  1.00  0.00     0.053 A 
HETATM    5  C10 UNL     1      24.847   4.781  49.517  1.00  0.00     0.089 A 
HETATM    6  N5  UNL     1      24.769   4.241  50.739  1.00  0.00    -0.062 NA
ENDROOT
BRANCH   1   7
HETATM    7  N2  UNL     1      23.784   3.239  52.639  1.00  0.00    -0.185 N 
HETATM    8  H7  UNL     1      23.240   3.711  53.401  1.00  0.00     0.184 HD
BRANCH   7   9
HETATM    9  C6  UNL     1      24.537   2.126  53.055  1.00  0.00     0.090 A 
HETATM   10  C5  UNL     1      24.072   0.825  52.853  1.00  0.00     0.143 A 
HETATM   11  C4  UNL     1      24.767  -0.296  53.239  1.00  0.00     0.047 A 
HETATM   12  F1  UNL     1      22.858   0.643  52.236  1.00  0.00    -0.204 F 
HETATM   13  C3  UNL     1      25.981  -0.199  53.858  1.00  0.00     0.032 A 
HETATM   14  C2  UNL     1      26.486   1.056  54.082  1.00  0.00     0.029 A 
HETATM   15  C16 UNL     1      25.763   2.151  53.681  1.00  0.00     0.062 A 
BRANCH  14  16
HETATM   16  N1  UNL     1      27.742   1.162  54.723  1.00  0.00    -0.394 N 
HETATM   17  C1  UNL     1      28.646   0.050  54.759  1.00  0.00     0.146 C 
HETATM   18  H4  UNL     1      28.003   2.083  55.175  1.00  0.00     0.159 HD
ENDBRANCH  14  16
ENDBRANCH   7   9
ENDBRANCH   1   7
BRANCH   5  19
HETATM   19  C11 UNL     1      26.138   5.237  49.023  1.00  0.00     0.011 A 
HETATM   20  C12 UNL     1      26.246   6.532  48.562  1.00  0.00     0.017 A 
HETATM   21  C13 UNL     1      27.437   7.046  48.075  1.00  0.00     0.020 A 
HETATM   22  C14 UNL     1      28.542   6.192  48.069  1.00  0.00     0.116 A 
HETATM   23  N4  UNL     1      28.441   4.913  48.523  1.00  0.00    -0.272 NA
HETATM   24  C15 UNL     1      27.265   4.448  48.989  1.00  0.00     0.130 A 
ENDBRANCH   5  19
TORSDOF 4
ENDMDL
MODEL 4
REMARK VINA RESULT:      -7.8      2.628      6.413
REMARK  4 active torsions:
REMARK  status: ('A' for Active; 'I' for Inactive)
REMARK    1  A    between atoms: N1_2  and  C2_3 
REMARK    2  A    between atoms: C6_8  and  N2_9 
REMARK    3  A    between atoms: N2_9  and  C7_10 
REMARK    4  A    between atoms: C10_14  and  C11_15 
ROOT
HETATM    1  C7  UNL     1      22.183   1.015  52.944  1.00  0.00     0.727 A 
HETATM    2  N3  UNL     1      21.392   0.222  53.661  1.00  0.00    -0.075 NA
HETATM    3  C8  UNL     1      21.847  -0.745  54.459  1.00  0.00     0.139 A 
HETATM    4  C9  UNL     1      23.178  -0.968  54.576  1.00  0.00     0.053 A 
HETATM    5  C10 UNL     1      24.036  -0.172  53.853  1.00  0.00     0.089 A 
HETATM    6  N5  UNL     1      23.476   0.768  53.084  1.00  0.00    -0.062 NA
ENDROOT
BRANCH   1   7
HETATM    7  N2  UNL     1      21.766   2.054  52.082  1.00  0.00    -0.185 N 
HETATM    8  H7  UNL     1      20.739   2.132  51.881  1.00  0.00     0.184 HD
BRANCH   7   9
HETATM    9  C6  UNL     1      22.565   3.020  51.444  1.00  0.00     0.090 A 
HETATM   10  C5  UNL     1      23.020   2.830  50.137  1.00  0.00     0.143 A 
HETATM   11  C4  UNL     1      23.802   3.740  49.469  1.00  0.00     0.047 A 
HETATM   12  F1  UNL     1      22.674   1.676  49.476  1.00  0.00    -0.204 F 
HETATM   13  C3  UNL     1      24.189   4.912  50.057  1.00  0.00     0.032 A 
HETATM   14  C2  UNL     1      23.770   5.150  51.341  1.00  0.00     0.029 A 
HETATM   15  C16 UNL     1      22.990   4.217  51.976  1.00  0.00     0.062 A 
BRANCH  14  16
HETATM   16  N1  UNL     1      24.168   6.360  51.955  1.00  0.00    -0.394 N 
HETATM   17  C1  UNL     1      24.218   7.583  51.208  1.00  0.00     0.146 C 
HETATM   18  H4  UNL     1      24.427   6.345  52.981  1.00  0.00     0.159 HD
ENDBRANCH  14  16
ENDBRANCH   7   9
ENDBRANCH   1   7
BRANCH   5  19
HETATM   19  C11 UNL     1      25.487  -0.297  53.880  1.00  0.00     0.011 A 
HETATM   20  C12 UNL     1      26.129  -0.753  52.749  1.00  0.00     0.017 A 
HETATM   21  C13 UNL     1      27.505  -0.901  52.690  1.00  0.00     0.020 A 
HETATM   22  C14 UNL     1      28.231  -0.565  53.835  1.00  0.00     0.116 A 
HETATM   23  N4  UNL     1      27.601  -0.114  54.955  1.00  0.00    -0.272 NA
HETATM   24  C15 UNL     1      26.260   0.016  54.974  1.00  0.00     0.130 A 
ENDBRANCH   5  19
TORSDOF 4
ENDMDL
MODEL 5
REMARK VINA RESULT:      -7.6      3.251      5.692
REMARK  4 active torsions:
REMARK  status: ('A' for Active; 'I' for Inactive)
REMARK    1  A    between atoms: N1_2  and  C2_3 
REMARK    2  A    between atoms: C6_8  and  N2_9 
REMARK    3  A    between atoms: N2_9  and  C7_10 
REMARK    4  A    between atoms: C10_14  and  C11_15 
ROOT
HETATM    1  C7  UNL     1      26.103   2.646  50.915  1.00  0.00     0.727 A 
HETATM    2  N3  UNL     1      27.235   2.438  51.579  1.00  0.00    -0.075 NA
HETATM    3  C8  UNL     1      27.310   1.719  52.700  1.00  0.00     0.139 A 
HETATM    4  C9  UNL     1      26.199   1.151  53.226  1.00  0.00     0.053 A 
HETATM    5  C10 UNL     1      25.003   1.338  52.573  1.00  0.00     0.089 A 
HETATM    6  N5  UNL     1      25.038   2.076  51.458  1.00  0.00    -0.062 NA
ENDROOT
BRANCH   1   7
HETATM    7  N2  UNL     1      25.956   3.396  49.726  1.00  0.00    -0.185 N 
HETATM    8  H7  UNL     1      25.626   2.885  48.871  1.00  0.00     0.184 HD
BRANCH   7   9
HETATM    9  C6  UNL     1      26.203   4.767  49.535  1.00  0.00     0.090 A 
HETATM   10  C5  UNL     1      27.284   5.206  48.767  1.00  0.00     0.143 A 
HETATM   11  C4  UNL     1      27.568   6.532  48.549  1.00  0.00     0.047 A 
HETATM   12  F1  UNL     1      28.112   4.271  48.194  1.00  0.00    -0.204 F 
HETATM   13  C3  UNL     1      26.792   7.522  49.083  1.00  0.00     0.032 A 
HETATM   14  C2  UNL     1      25.716   7.147  49.847  1.00  0.00     0.029 A 
HETATM   15  C16 UNL     1      25.464   5.813  50.042  1.00  0.00     0.062 A 
BRANCH  14  16
HETATM   16  N1  UNL     1      24.910   8.168  50.403  1.00  0.00    -0.394 N 
HETATM   17  C1  UNL     1      23.529   7.932  50.706  1.00  0.00     0.146 C 
HETATM   18  H4  UNL     1      25.349   9.112  50.592  1.00  0.00     0.159 HD
ENDBRANCH  14  16
ENDBRANCH   7   9
ENDBRANCH   1   7
BRANCH   5  19
HETATM   19  C11 UNL     1      23.731   0.789  53.021  1.00  0.00     0.011 A 
HETATM   20  C12 UNL     1      23.737  -0.399  53.721  1.00  0.00     0.017 A 
HETATM   21  C13 UNL     1      22.573  -0.990  54.183  1.00  0.00     0.020 A 
HETATM   22  C14 UNL     1      21.373  -0.329  53.911  1.00  0.00     0.116 A 
HETATM   23  N4  UNL     1      21.361   0.844  53.220  1.00  0.00    -0.272 NA
HETATM   24  C15 UNL     1      22.515   1.388  52.786  1.00  0.00     0.130 A 
ENDBRANCH   5  19
TORSDOF 4
ENDMDL
MODEL 6
REMARK VINA RESULT:      -7.6      2.433      6.494
REMARK  4 active torsions:
REMARK  status: ('A' for Active; 'I' for Inactive)
REMARK    1  A    between atoms: N1_2  and  C2_3 
REMARK    2  A    between atoms: C6_8  and  N2_9 
REMARK    3  A    between atoms: N2_9  and  C7_10 
REMARK    4  A    between atoms: C10_14  and  C11_15 
ROOT
HETATM    1  C7  UNL     1      23.948   1.396  51.599  1.00  0.00     0.727 A 
HETATM    2  N3  UNL     1      22.966   0.915  52.355  1.00  0.00    -0.075 NA
HETATM    3  C8  UNL     1      23.166   0.092  53.386  1.00  0.00     0.139 A 
HETATM    4  C9  UNL     1      24.419  -0.301  53.716  1.00  0.00     0.053 A 
HETATM    5  C10 UNL     1      25.468   0.171  52.962  1.00  0.00     0.089 A 
HETATM    6  N5  UNL     1      25.158   0.991  51.952  1.00  0.00    -0.062 NA
ENDROOT
BRANCH   1   7
HETATM    7  N2  UNL     1      23.803   2.269  50.497  1.00  0.00    -0.185 N 
HETATM    8  H7  UNL     1      23.300   1.901  49.653  1.00  0.00     0.184 HD
BRANCH   7   9
HETATM    9  C6  UNL     1      24.256   3.595  50.381  1.00  0.00     0.090 A 
HETATM   10  C5  UNL     1      25.483   3.888  49.781  1.00  0.00     0.143 A 
HETATM   11  C4  UNL     1      25.971   5.165  49.642  1.00  0.00     0.047 A 
HETATM   12  F1  UNL     1      26.250   2.855  49.301  1.00  0.00    -0.204 F 
HETATM   13  C3  UNL     1      25.268   6.247  50.093  1.00  0.00     0.032 A 
HETATM   14  C2  UNL     1      24.056   6.016  50.691  1.00  0.00     0.029 A 
HETATM   15  C16 UNL     1      23.601   4.728  50.811  1.00  0.00     0.062 A 
BRANCH  14  16
HETATM   16  N1  UNL     1      23.325   7.132  51.160  1.00  0.00    -0.394 N 
HETATM   17  C1  UNL     1      21.931   7.279  50.860  1.00  0.00     0.146 C 
HETATM   18  H4  UNL     1      23.829   7.860  51.740  1.00  0.00     0.159 HD
ENDBRANCH  14  16
ENDBRANCH   7   9
ENDBRANCH   1   7
BRANCH   5  19
HETATM   19  C11 UNL     1      26.865  -0.166  53.200  1.00  0.00     0.011 A 
HETATM   20  C12 UNL     1      27.721   0.833  53.613  1.00  0.00     0.017 A 
HETATM   21  C13 UNL     1      29.064   0.599  53.861  1.00  0.00     0.020 A 
HETATM   22  C14 UNL     1      29.526  -0.706  53.677  1.00  0.00     0.116 A 
HETATM   23  N4  UNL     1      28.685  -1.696  53.270  1.00  0.00    -0.272 NA
HETATM   24  C15 UNL     1      27.384  -1.429  53.038  1.00  0.00     0.130 A 
ENDBRANCH   5  19
TORSDOF 4
ENDMDL
MODEL 7
REMARK VINA RESULT:      -7.6      3.540      5.467
REMARK  4 active torsions:
REMARK  status: ('A' for Active; 'I' for Inactive)
REMARK    1  A    between atoms: N1_2  and  C2_3 
REMARK    2  A    between atoms: C6_8  and  N2_9 
REMARK    3  A    between atoms: N2_9  and  C7_10 
REMARK    4  A    between atoms: C10_14  and  C11_15 
ROOT
HETATM    1  C7  UNL     1      26.329   2.527  50.954  1.00  0.00     0.727 A 
HETATM    2  N3  UNL     1      27.385   2.521  51.762  1.00  0.00    -0.075 NA
HETATM    3  C8  UNL     1      27.367   2.010  52.994  1.00  0.00     0.139 A 
HETATM    4  C9  UNL     1      26.235   1.457  53.490  1.00  0.00     0.053 A 
HETATM    5  C10 UNL     1      25.115   1.440  52.691  1.00  0.00     0.089 A 
HETATM    6  N5  UNL     1      25.241   1.979  51.473  1.00  0.00    -0.062 NA
ENDROOT
BRANCH   1   7
HETATM    7  N2  UNL     1      26.282   3.052  49.643  1.00  0.00    -0.185 N 
HETATM    8  H7  UNL     1      25.985   2.403  48.874  1.00  0.00     0.184 HD
BRANCH   7   9
HETATM    9  C6  UNL     1      26.589   4.359  49.225  1.00  0.00     0.090 A 
HETATM   10  C5  UNL     1      25.660   5.394  49.352  1.00  0.00     0.143 A 
HETATM   11  C4  UNL     1      25.909   6.687  48.960  1.00  0.00     0.047 A 
HETATM   12  F1  UNL     1      24.429   5.116  49.896  1.00  0.00    -0.204 F 
HETATM   13  C3  UNL     1      27.108   7.043  48.410  1.00  0.00     0.032 A 
HETATM   14  C2  UNL     1      28.058   6.066  48.261  1.00  0.00     0.029 A 
HETATM   15  C16 UNL     1      27.773   4.786  48.665  1.00  0.00     0.062 A 
BRANCH  14  16
HETATM   16  N1  UNL     1      29.301   6.429  47.692  1.00  0.00    -0.394 N 
HETATM   17  C1  UNL     1      30.495   5.700  48.004  1.00  0.00     0.146 C 
HETATM   18  H4  UNL     1      29.331   7.253  47.028  1.00  0.00     0.159 HD
ENDBRANCH  14  16
ENDBRANCH   7   9
ENDBRANCH   1   7
BRANCH   5  19
HETATM   19  C11 UNL     1      23.832   0.880  53.091  1.00  0.00     0.011 A 
HETATM   20  C12 UNL     1      23.823  -0.301  53.801  1.00  0.00     0.017 A 
HETATM   21  C13 UNL     1      22.647  -0.902  54.220  1.00  0.00     0.020 A 
HETATM   22  C14 UNL     1      21.452  -0.257  53.893  1.00  0.00     0.116 A 
HETATM   23  N4  UNL     1      21.456   0.910  53.192  1.00  0.00    -0.272 NA
HETATM   24  C15 UNL     1      22.620   1.464  52.802  1.00  0.00     0.130 A 
ENDBRANCH   5  19
TORSDOF 4
ENDMDL
MODEL 8
REMARK VINA RESULT:      -7.5      3.426      6.376
REMARK  4 active torsions:
REMARK  status: ('A' for Active; 'I' for Inactive)
REMARK    1  A    between atoms: N1_2  and  C2_3 
REMARK    2  A    between atoms: C6_8  and  N2_9 
REMARK    3  A    between atoms: N2_9  and  C7_10 
REMARK    4  A    between atoms: C10_14  and  C11_15 
ROOT
HETATM    1  C7  UNL     1      23.429   3.018  51.209  1.00  0.00     0.727 A 
HETATM    2  N3  UNL     1      22.591   3.850  51.820  1.00  0.00    -0.075 NA
HETATM    3  C8  UNL     1      22.727   5.177  51.803  1.00  0.00     0.139 A 
HETATM    4  C9  UNL     1      23.759   5.752  51.139  1.00  0.00     0.053 A 
HETATM    5  C10 UNL     1      24.653   4.931  50.492  1.00  0.00     0.089 A 
HETATM    6  N5  UNL     1      24.424   3.615  50.572  1.00  0.00    -0.062 NA
ENDROOT
BRANCH   1   7
HETATM    7  N2  UNL     1      23.341   1.608  51.190  1.00  0.00    -0.185 N 
HETATM    8  H7  UNL     1      23.281   1.141  50.253  1.00  0.00     0.184 HD
BRANCH   7   9
HETATM    9  C6  UNL     1      23.322   0.729  52.288  1.00  0.00     0.090 A 
HETATM   10  C5  UNL     1      22.141   0.102  52.689  1.00  0.00     0.143 A 
HETATM   11  C4  UNL     1      22.068  -0.764  53.754  1.00  0.00     0.047 A 
HETATM   12  F1  UNL     1      20.985   0.355  51.990  1.00  0.00    -0.204 F 
HETATM   13  C3  UNL     1      23.172  -1.068  54.499  1.00  0.00     0.032 A 
HETATM   14  C2  UNL     1      24.360  -0.479  54.149  1.00  0.00     0.029 A 
HETATM   15  C16 UNL     1      24.394   0.380  53.080  1.00  0.00     0.062 A 
BRANCH  14  16
HETATM   16  N1  UNL     1      25.506  -0.789  54.917  1.00  0.00    -0.394 N 
HETATM   17  C1  UNL     1      26.633   0.096  54.949  1.00  0.00     0.146 C 
HETATM   18  H4  UNL     1      25.515  -1.692  55.471  1.00  0.00     0.159 HD
ENDBRANCH  14  16
ENDBRANCH   7   9
ENDBRANCH   1   7
BRANCH   5  19
HETATM   19  C11 UNL     1      25.806   5.407  49.741  1.00  0.00     0.011 A 
HETATM   20  C12 UNL     1      26.712   4.480  49.270  1.00  0.00     0.017 A 
HETATM   21  C13 UNL     1      27.836   4.847  48.547  1.00  0.00     0.020 A 
HETATM   22  C14 UNL     1      28.020   6.211  48.308  1.00  0.00     0.116 A 
HETATM   23  N4  UNL     1      27.129   7.130  48.772  1.00  0.00    -0.272 NA
HETATM   24  C15 UNL     1      26.047   6.734  49.471  1.00  0.00     0.130 A 
ENDBRANCH   5  19
TORSDOF 4
ENDMDL
MODEL 9
REMARK VINA RESULT:      -7.5      3.453      6.692
REMARK  4 active torsions:
REMARK  status: ('A' for Active; 'I' for Inactive)
REMARK    1  A    between atoms: N1_2  and  C2_3 
REMARK    2  A    between atoms: C6_8  and  N2_9 
REMARK    3  A    between atoms: N2_9  and  C7_10 
REMARK    4  A    between atoms: C10_14  and  C11_15 
ROOT
HETATM    1  C7  UNL     1      25.516   2.837  50.333  1.00  0.00     0.727 A 
HETATM    2  N3  UNL     1      24.229   2.624  50.587  1.00  0.00    -0.075 NA
HETATM    3  C8  UNL     1      23.793   1.857  51.589  1.00  0.00     0.139 A 
HETATM    4  C9  UNL     1      24.673   1.244  52.415  1.00  0.00     0.053 A 
HETATM    5  C10 UNL     1      26.017   1.435  52.191  1.00  0.00     0.089 A 
HETATM    6  N5  UNL     1      26.346   2.222  51.161  1.00  0.00    -0.062 NA
ENDROOT
BRANCH   1   7
HETATM    7  N2  UNL     1      26.041   3.635  49.291  1.00  0.00    -0.185 N 
HETATM    8  H7  UNL     1      26.305   3.151  48.399  1.00  0.00     0.184 HD
BRANCH   7   9
HETATM    9  C6  UNL     1      26.261   5.024  49.295  1.00  0.00     0.090 A 
HETATM   10  C5  UNL     1      27.369   5.581  48.653  1.00  0.00     0.143 A 
HETATM   11  C4  UNL     1      27.630   6.929  48.627  1.00  0.00     0.047 A 
HETATM   12  F1  UNL     1      28.251   4.746  48.010  1.00  0.00    -0.204 F 
HETATM   13  C3  UNL     1      26.801   7.825  49.241  1.00  0.00     0.032 A 
HETATM   14  C2  UNL     1      25.697   7.332  49.888  1.00  0.00     0.029 A 
HETATM   15  C16 UNL     1      25.469   5.980  49.893  1.00  0.00     0.062 A 
BRANCH  14  16
HETATM   16  N1  UNL     1      24.835   8.255  50.527  1.00  0.00    -0.394 N 
HETATM   17  C1  UNL     1      23.412   8.097  50.467  1.00  0.00     0.146 C 
HETATM   18  H4  UNL     1      25.265   9.067  51.053  1.00  0.00     0.159 HD
ENDBRANCH  14  16
ENDBRANCH   7   9
ENDBRANCH   1   7
BRANCH   5  19
HETATM   19  C11 UNL     1      27.075   0.840  52.997  1.00  0.00     0.011 A 
HETATM   20  C12 UNL     1      27.520  -0.422  52.668  1.00  0.00     0.017 A 
HETATM   21  C13 UNL     1      28.522  -1.061  53.382  1.00  0.00     0.020 A 
HETATM   22  C14 UNL     1      29.073  -0.368  54.462  1.00  0.00     0.116 A 
HETATM   23  N4  UNL     1      28.636   0.879  54.791  1.00  0.00    -0.272 NA
HETATM   24  C15 UNL     1      27.660   1.468  54.072  1.00  0.00     0.130 A 
ENDBRANCH   5  19
TORSDOF 4
ENDMDL
