MODEL 1
REMARK VINA RESULT:      -8.4      0.000      0.000
REMARK  3 active torsions:
REMARK  status: ('A' for Active; 'I' for Inactive)
REMARK    1  A    between atoms: N1_2  and  C2_3 
REMARK    2  A    between atoms: N2_5  and  C4_6 
REMARK    3  A    between atoms: C8_11  and  C9_12 
ROOT
HETATM    1  C4  UNL     1      22.268   1.128  52.098  1.00  0.00     0.116 A 
HETATM    2  N3  UNL     1      23.065   1.547  51.170  1.00  0.00    -0.217 NA
HETATM    3  C5  UNL     1      24.405   1.602  51.671  1.00  0.00     0.131 A 
HETATM    4  C6  UNL     1      24.447   1.204  52.954  1.00  0.00    -0.000 A 
HETATM    5  C7  UNL     1      23.054   0.860  53.342  1.00  0.00     0.119 A 
HETATM    6  C8  UNL     1      25.908   1.442  52.934  1.00  0.00     0.150 A 
HETATM    7  N4  UNL     1      25.798   1.863  51.542  1.00  0.00    -0.362 N 
HETATM    8  H13 UNL     1      26.463   2.200  50.810  1.00  0.00     0.162 HD
ENDROOT
BRANCH   1   9
HETATM    9  N2  UNL     1      20.857   0.941  51.984  1.00  0.00    -0.318 N 
HETATM   10  C3  UNL     1      20.162   0.083  52.891  1.00  0.00     0.126 C 
HETATM   11  C2  UNL     1      18.985  -0.530  52.728  1.00  0.00     0.043 C 
HETATM   12  C18 UNL     1      18.109  -0.463  51.545  1.00  0.00     0.030 C 
HETATM   13  C17 UNL     1      18.125   0.337  50.488  1.00  0.00     0.004 C 
HETATM   14  C16 UNL     1      19.112   1.393  50.298  1.00  0.00     0.018 C 
HETATM   15  C15 UNL     1      20.272   1.689  50.899  1.00  0.00     0.098 C 
BRANCH  11  16
HETATM   16  N1  UNL     1      18.580  -1.313  53.832  1.00  0.00    -0.393 N 
HETATM   17  C1  UNL     1      17.791  -2.514  53.707  1.00  0.00     0.146 C 
HETATM   18  H4  UNL     1      18.881  -0.986  54.797  1.00  0.00     0.159 HD
ENDBRANCH  11  16
ENDBRANCH   1   9
BRANCH   6  19
HETATM   19  C9  UNL     1      26.773   0.250  53.003  1.00  0.00    -0.031 A 
HETATM   20  C10 UNL     1      28.016   0.472  53.596  1.00  0.00     0.012 A 
HETATM   21  C11 UNL     1      28.956  -0.511  53.751  1.00  0.00     0.043 A 
HETATM   22  C12 UNL     1      28.672  -1.784  53.303  1.00  0.00     0.116 A 
HETATM   23  F1  UNL     1      29.590  -2.768  53.448  1.00  0.00    -0.206 F 
HETATM   24  C13 UNL     1      27.445  -2.037  52.708  1.00  0.00     0.043 A 
HETATM   25  C14 UNL     1      26.502  -1.031  52.559  1.00  0.00     0.012 A 
ENDBRANCH   6  19
TORSDOF 3
ENDMDL
MODEL 2
REMARK VINA RESULT:      -8.4      4.050      5.817
REMARK  3 active torsions:
REMARK  status: ('A' for Active; 'I' for Inactive)
REMARK    1  A    between atoms: N1_2  and  C2_3 
REMARK    2  A    between atoms: N2_5  and  C4_6 
REMARK    3  A    between atoms: C8_11  and  C9_12 
ROOT
HETATM    1  C4  UNL     1      23.700   1.546  52.027  1.00  0.00     0.116 A 
HETATM    2  N3  UNL     1      23.194   1.632  50.841  1.00  0.00    -0.217 NA
HETATM    3  C5  UNL     1      23.492   2.914  50.278  1.00  0.00     0.131 A 
HETATM    4  C6  UNL     1      24.207   3.654  51.141  1.00  0.00    -0.000 A 
HETATM    5  C7  UNL     1      24.406   2.823  52.357  1.00  0.00     0.119 A 
HETATM    6  C8  UNL     1      24.217   4.740  50.134  1.00  0.00     0.150 A 
HETATM    7  N4  UNL     1      23.439   3.888  49.242  1.00  0.00    -0.362 N 
HETATM    8  H13 UNL     1      23.039   3.983  48.281  1.00  0.00     0.162 HD
ENDROOT
BRANCH   1   9
HETATM    9  N2  UNL     1      23.617   0.425  52.906  1.00  0.00    -0.318 N 
HETATM   10  C3  UNL     1      22.348  -0.131  53.256  1.00  0.00     0.126 C 
HETATM   11  C2  UNL     1      22.022  -0.871  54.322  1.00  0.00     0.043 C 
HETATM   12  C18 UNL     1      22.919  -1.294  55.412  1.00  0.00     0.030 C 
HETATM   13  C17 UNL     1      24.239  -1.261  55.521  1.00  0.00     0.004 C 
HETATM   14  C16 UNL     1      25.117  -0.748  54.476  1.00  0.00     0.018 C 
HETATM   15  C15 UNL     1      24.905  -0.037  53.361  1.00  0.00     0.098 C 
BRANCH  11  16
HETATM   16  N1  UNL     1      20.665  -1.264  54.364  1.00  0.00    -0.393 N 
HETATM   17  C1  UNL     1      19.644  -0.683  53.528  1.00  0.00     0.146 C 
HETATM   18  H4  UNL     1      20.402  -2.028  55.054  1.00  0.00     0.159 HD
ENDBRANCH  11  16
ENDBRANCH   1   9
BRANCH   6  19
HETATM   19  C9  UNL     1      25.512   5.040  49.496  1.00  0.00    -0.031 A 
HETATM   20  C10 UNL     1      25.624   6.338  49.000  1.00  0.00     0.012 A 
HETATM   21  C11 UNL     1      26.749   6.803  48.374  1.00  0.00     0.043 A 
HETATM   22  C12 UNL     1      27.828   5.958  48.222  1.00  0.00     0.116 A 
HETATM   23  F1  UNL     1      28.949   6.403  47.607  1.00  0.00    -0.206 F 
HETATM   24  C13 UNL     1      27.748   4.661  48.706  1.00  0.00     0.043 A 
HETATM   25  C14 UNL     1      26.602   4.203  49.338  1.00  0.00     0.012 A 
ENDBRANCH   6  19
TORSDOF 3
ENDMDL
MODEL 3
REMARK VINA RESULT:      -8.2      3.948      6.260
REMARK  3 active torsions:
REMARK  status: ('A' for Active; 'I' for Inactive)
REMARK    1  A    between atoms: N1_2  and  C2_3 
REMARK    2  A    between atoms: N2_5  and  C4_6 
REMARK    3  A    between atoms: C8_11  and  C9_12 
ROOT
HETATM    1  C4  UNL     1      24.537   3.619  51.465  1.00  0.00     0.116 A 
HETATM    2  N3  UNL     1      24.133   3.206  52.621  1.00  0.00    -0.217 NA
HETATM    3  C5  UNL     1      24.601   1.874  52.851  1.00  0.00     0.131 A 
HETATM    4  C6  UNL     1      25.322   1.438  51.805  1.00  0.00    -0.000 A 
HETATM    5  C7  UNL     1      25.343   2.542  50.809  1.00  0.00     0.119 A 
HETATM    6  C8  UNL     1      25.518   0.161  52.527  1.00  0.00     0.150 A 
HETATM    7  N4  UNL     1      24.726   0.690  53.632  1.00  0.00    -0.362 N 
HETATM    8  H13 UNL     1      24.412   0.333  54.562  1.00  0.00     0.162 HD
ENDROOT
BRANCH   1   9
HETATM    9  N2  UNL     1      24.274   4.893  50.878  1.00  0.00    -0.318 N 
HETATM   10  C3  UNL     1      25.348   5.732  50.448  1.00  0.00     0.126 C 
HETATM   11  C2  UNL     1      25.355   7.057  50.265  1.00  0.00     0.043 C 
HETATM   12  C18 UNL     1      24.227   7.984  50.470  1.00  0.00     0.030 C 
HETATM   13  C17 UNL     1      22.934   7.761  50.657  1.00  0.00     0.004 C 
HETATM   14  C16 UNL     1      22.348   6.426  50.694  1.00  0.00     0.018 C 
HETATM   15  C15 UNL     1      22.866   5.195  50.785  1.00  0.00     0.098 C 
BRANCH  11  16
HETATM   16  N1  UNL     1      26.594   7.577  49.829  1.00  0.00    -0.393 N 
HETATM   17  C1  UNL     1      27.032   8.922  50.109  1.00  0.00     0.146 C 
HETATM   18  H4  UNL     1      27.223   6.930  49.268  1.00  0.00     0.159 HD
ENDBRANCH  11  16
ENDBRANCH   1   9
BRANCH   6  19
HETATM   19  C9  UNL     1      26.881  -0.123  53.012  1.00  0.00    -0.031 A 
HETATM   20  C10 UNL     1      27.354  -1.395  52.691  1.00  0.00     0.012 A 
HETATM   21  C11 UNL     1      28.596  -1.843  53.054  1.00  0.00     0.043 A 
HETATM   22  C12 UNL     1      29.426  -1.006  53.770  1.00  0.00     0.116 A 
HETATM   23  F1  UNL     1      30.657  -1.433  54.136  1.00  0.00    -0.206 F 
HETATM   24  C13 UNL     1      28.985   0.265  54.105  1.00  0.00     0.043 A 
HETATM   25  C14 UNL     1      27.724   0.705  53.730  1.00  0.00     0.012 A 
ENDBRANCH   6  19
TORSDOF 3
ENDMDL
MODEL 4
REMARK VINA RESULT:      -8.1      1.480      2.755
REMARK  3 active torsions:
REMARK  status: ('A' for Active; 'I' for Inactive)
REMARK    1  A    between atoms: N1_2  and  C2_3 
REMARK    2  A    between atoms: N2_5  and  C4_6 
REMARK    3  A    between atoms: C8_11  and  C9_12 
ROOT
HETATM    1  C4  UNL     1      22.786   1.392  51.632  1.00  0.00     0.116 A 
HETATM    2  N3  UNL     1      23.639   2.068  50.936  1.00  0.00    -0.217 NA
HETATM    3  C5  UNL     1      24.832   2.275  51.698  1.00  0.00     0.131 A 
HETATM    4  C6  UNL     1      24.721   1.710  52.912  1.00  0.00    -0.000 A 
HETATM    5  C7  UNL     1      23.375   1.084  52.973  1.00  0.00     0.119 A 
HETATM    6  C8  UNL     1      26.089   2.191  53.212  1.00  0.00     0.150 A 
HETATM    7  N4  UNL     1      26.149   2.784  51.881  1.00  0.00    -0.362 N 
HETATM    8  H13 UNL     1      26.856   3.329  51.339  1.00  0.00     0.162 HD
ENDROOT
BRANCH   1   9
HETATM    9  N2  UNL     1      21.481   0.988  51.218  1.00  0.00    -0.318 N 
HETATM   10  C3  UNL     1      20.926   1.471  49.993  1.00  0.00     0.126 C 
HETATM   11  C2  UNL     1      19.641   1.553  49.629  1.00  0.00     0.043 C 
HETATM   12  C18 UNL     1      18.469   1.155  50.430  1.00  0.00     0.030 C 
HETATM   13  C17 UNL     1      18.372   0.450  51.548  1.00  0.00     0.004 C 
HETATM   14  C16 UNL     1      19.524  -0.107  52.247  1.00  0.00     0.018 C 
HETATM   15  C15 UNL     1      20.844   0.085  52.145  1.00  0.00     0.098 C 
BRANCH  11  16
HETATM   16  N1  UNL     1      19.435   2.082  48.336  1.00  0.00    -0.393 N 
HETATM   17  C1  UNL     1      20.426   2.855  47.628  1.00  0.00     0.146 C 
HETATM   18  H4  UNL     1      18.496   1.891  47.876  1.00  0.00     0.159 HD
ENDBRANCH  11  16
ENDBRANCH   1   9
BRANCH   6  19
HETATM   19  C9  UNL     1      27.142   1.165  53.324  1.00  0.00    -0.031 A 
HETATM   20  C10 UNL     1      28.358   1.637  53.816  1.00  0.00     0.012 A 
HETATM   21  C11 UNL     1      29.454   0.836  53.991  1.00  0.00     0.043 A 
HETATM   22  C12 UNL     1      29.364  -0.502  53.669  1.00  0.00     0.116 A 
HETATM   23  F1  UNL     1      30.437  -1.309  53.836  1.00  0.00    -0.206 F 
HETATM   24  C13 UNL     1      28.167  -1.003  53.177  1.00  0.00     0.043 A 
HETATM   25  C14 UNL     1      27.065  -0.179  53.006  1.00  0.00     0.012 A 
ENDBRANCH   6  19
TORSDOF 3
ENDMDL
MODEL 5
REMARK VINA RESULT:      -7.9      5.397      7.758
REMARK  3 active torsions:
REMARK  status: ('A' for Active; 'I' for Inactive)
REMARK    1  A    between atoms: N1_2  and  C2_3 
REMARK    2  A    between atoms: N2_5  and  C4_6 
REMARK    3  A    between atoms: C8_11  and  C9_12 
ROOT
HETATM    1  C4  UNL     1      25.638   2.910  51.282  1.00  0.00     0.116 A 
HETATM    2  N3  UNL     1      26.768   2.844  50.659  1.00  0.00    -0.217 NA
HETATM    3  C5  UNL     1      26.850   3.895  49.691  1.00  0.00     0.131 A 
HETATM    4  C6  UNL     1      25.734   4.643  49.710  1.00  0.00    -0.000 A 
HETATM    5  C7  UNL     1      24.847   4.063  50.752  1.00  0.00     0.119 A 
HETATM    6  C8  UNL     1      26.323   5.471  48.633  1.00  0.00     0.150 A 
HETATM    7  N4  UNL     1      27.509   4.622  48.660  1.00  0.00    -0.362 N 
HETATM    8  H13 UNL     1      28.415   4.591  48.141  1.00  0.00     0.162 HD
ENDROOT
BRANCH   1   9
HETATM    9  N2  UNL     1      25.187   2.035  52.317  1.00  0.00    -0.318 N 
HETATM   10  C3  UNL     1      26.068   1.640  53.370  1.00  0.00     0.126 C 
HETATM   11  C2  UNL     1      25.995   0.567  54.166  1.00  0.00     0.043 C 
HETATM   12  C18 UNL     1      24.962  -0.484  54.139  1.00  0.00     0.030 C 
HETATM   13  C17 UNL     1      23.788  -0.542  53.528  1.00  0.00     0.004 C 
HETATM   14  C16 UNL     1      23.265   0.534  52.693  1.00  0.00     0.018 C 
HETATM   15  C15 UNL     1      23.811   1.634  52.161  1.00  0.00     0.098 C 
BRANCH  11  16
HETATM   16  N1  UNL     1      27.038   0.474  55.114  1.00  0.00    -0.393 N 
HETATM   17  C1  UNL     1      28.410   0.203  54.761  1.00  0.00     0.146 C 
HETATM   18  H4  UNL     1      26.781   0.615  56.135  1.00  0.00     0.159 HD
ENDBRANCH  11  16
ENDBRANCH   1   9
BRANCH   6  19
HETATM   19  C9  UNL     1      26.713   6.846  48.993  1.00  0.00    -0.031 A 
HETATM   20  C10 UNL     1      27.709   7.394  48.184  1.00  0.00     0.012 A 
HETATM   21  C11 UNL     1      28.203   8.658  48.362  1.00  0.00     0.043 A 
HETATM   22  C12 UNL     1      27.702   9.435  49.386  1.00  0.00     0.116 A 
HETATM   23  F1  UNL     1      28.179  10.687  49.576  1.00  0.00    -0.206 F 
HETATM   24  C13 UNL     1      26.711   8.918  50.208  1.00  0.00     0.043 A 
HETATM   25  C14 UNL     1      26.220   7.636  50.015  1.00  0.00     0.012 A 
ENDBRANCH   6  19
TORSDOF 3
ENDMDL
MODEL 6
REMARK VINA RESULT:      -7.6      5.337      8.139
REMARK  3 active torsions:
REMARK  status: ('A' for Active; 'I' for Inactive)
REMARK    1  A    between atoms: N1_2  and  C2_3 
REMARK    2  A    between atoms: N2_5  and  C4_6 
REMARK    3  A    between atoms: C8_11  and  C9_12 
ROOT
HETATM    1  C4  UNL     1      25.772   5.553  49.717  1.00  0.00     0.116 A 
HETATM    2  N3  UNL     1      24.868   5.229  50.582  1.00  0.00    -0.217 NA
HETATM    3  C5  UNL     1      24.975   3.838  50.899  1.00  0.00     0.131 A 
HETATM    4  C6  UNL     1      25.979   3.272  50.208  1.00  0.00    -0.000 A 
HETATM    5  C7  UNL     1      26.586   4.344  49.377  1.00  0.00     0.119 A 
HETATM    6  C8  UNL     1      25.649   1.987  50.867  1.00  0.00     0.150 A 
HETATM    7  N4  UNL     1      24.573   2.659  51.588  1.00  0.00    -0.362 N 
HETATM    8  H13 UNL     1      23.852   2.372  52.287  1.00  0.00     0.162 HD
ENDROOT
BRANCH   1   9
HETATM    9  N2  UNL     1      25.984   6.847  49.155  1.00  0.00    -0.318 N 
HETATM   10  C3  UNL     1      27.045   7.680  49.628  1.00  0.00     0.126 C 
HETATM   11  C2  UNL     1      27.167   9.009  49.545  1.00  0.00     0.043 C 
HETATM   12  C18 UNL     1      26.211   9.949  48.931  1.00  0.00     0.030 C 
HETATM   13  C17 UNL     1      25.161   9.742  48.150  1.00  0.00     0.004 C 
HETATM   14  C16 UNL     1      24.728   8.416  47.723  1.00  0.00     0.018 C 
HETATM   15  C15 UNL     1      25.043   7.175  48.112  1.00  0.00     0.098 C 
BRANCH  11  16
HETATM   16  N1  UNL     1      28.352   9.521  50.120  1.00  0.00    -0.393 N 
HETATM   17  C1  UNL     1      29.626   9.523  49.444  1.00  0.00     0.146 C 
HETATM   18  H4  UNL     1      28.282   9.923  51.101  1.00  0.00     0.159 HD
ENDBRANCH  11  16
ENDBRANCH   1   9
BRANCH   6  19
HETATM   19  C9  UNL     1      26.628   1.473  51.842  1.00  0.00    -0.031 A 
HETATM   20  C10 UNL     1      26.620   0.087  51.992  1.00  0.00     0.012 A 
HETATM   21  C11 UNL     1      27.455  -0.576  52.851  1.00  0.00     0.043 A 
HETATM   22  C12 UNL     1      28.350   0.151  53.608  1.00  0.00     0.116 A 
HETATM   23  F1  UNL     1      29.183  -0.489  54.461  1.00  0.00    -0.206 F 
HETATM   24  C13 UNL     1      28.382   1.532  53.482  1.00  0.00     0.043 A 
HETATM   25  C14 UNL     1      27.530   2.189  52.607  1.00  0.00     0.012 A 
ENDBRANCH   6  19
TORSDOF 3
ENDMDL
MODEL 7
REMARK VINA RESULT:      -7.5      3.494      8.489
REMARK  3 active torsions:
REMARK  status: ('A' for Active; 'I' for Inactive)
REMARK    1  A    between atoms: N1_2  and  C2_3 
REMARK    2  A    between atoms: N2_5  and  C4_6 
REMARK    3  A    between atoms: C8_11  and  C9_12 
ROOT
HETATM    1  C4  UNL     1      22.722   0.004  53.333  1.00  0.00     0.116 A 
HETATM    2  N3  UNL     1      22.251  -1.165  53.621  1.00  0.00    -0.217 NA
HETATM    3  C5  UNL     1      20.823  -1.109  53.694  1.00  0.00     0.131 A 
HETATM    4  C6  UNL     1      20.386   0.136  53.445  1.00  0.00    -0.000 A 
HETATM    5  C7  UNL     1      21.589   0.970  53.187  1.00  0.00     0.119 A 
HETATM    6  C8  UNL     1      19.003  -0.357  53.637  1.00  0.00     0.150 A 
HETATM    7  N4  UNL     1      19.539  -1.688  53.900  1.00  0.00    -0.362 N 
HETATM    8  H13 UNL     1      19.134  -2.623  54.131  1.00  0.00     0.162 HD
ENDROOT
BRANCH   1   9
HETATM    9  N2  UNL     1      24.097   0.350  53.174  1.00  0.00    -0.318 N 
HETATM   10  C3  UNL     1      24.471   1.556  52.504  1.00  0.00     0.126 C 
HETATM   11  C2  UNL     1      25.630   1.860  51.910  1.00  0.00     0.043 C 
HETATM   12  C18 UNL     1      26.821   0.999  51.803  1.00  0.00     0.030 C 
HETATM   13  C17 UNL     1      27.139  -0.135  52.412  1.00  0.00     0.004 C 
HETATM   14  C16 UNL     1      26.276  -0.789  53.389  1.00  0.00     0.018 C 
HETATM   15  C15 UNL     1      24.997  -0.622  53.746  1.00  0.00     0.098 C 
BRANCH  11  16
HETATM   16  N1  UNL     1      25.669   3.151  51.338  1.00  0.00    -0.393 N 
HETATM   17  C1  UNL     1      26.493   3.492  50.205  1.00  0.00     0.146 C 
HETATM   18  H4  UNL     1      25.053   3.897  51.778  1.00  0.00     0.159 HD
ENDBRANCH  11  16
ENDBRANCH   1   9
BRANCH   6  19
HETATM   19  C9  UNL     1      18.149  -0.417  52.437  1.00  0.00    -0.031 A 
HETATM   20  C10 UNL     1      16.913  -1.032  52.638  1.00  0.00     0.012 A 
HETATM   21  C11 UNL     1      15.984  -1.182  51.645  1.00  0.00     0.043 A 
HETATM   22  C12 UNL     1      16.271  -0.707  50.382  1.00  0.00     0.116 A 
HETATM   23  F1  UNL     1      15.363  -0.847  49.389  1.00  0.00    -0.206 F 
HETATM   24  C13 UNL     1      17.491  -0.090  50.150  1.00  0.00     0.043 A 
HETATM   25  C14 UNL     1      18.423   0.055  51.167  1.00  0.00     0.012 A 
ENDBRANCH   6  19
TORSDOF 3
ENDMDL
MODEL 8
REMARK VINA RESULT:      -7.5      4.179      7.994
REMARK  3 active torsions:
REMARK  status: ('A' for Active; 'I' for Inactive)
REMARK    1  A    between atoms: N1_2  and  C2_3 
REMARK    2  A    between atoms: N2_5  and  C4_6 
REMARK    3  A    between atoms: C8_11  and  C9_12 
ROOT
HETATM    1  C4  UNL     1      24.161   2.831  51.587  1.00  0.00     0.116 A 
HETATM    2  N3  UNL     1      24.389   1.560  51.541  1.00  0.00    -0.217 NA
HETATM    3  C5  UNL     1      23.346   0.855  52.223  1.00  0.00     0.131 A 
HETATM    4  C6  UNL     1      22.437   1.714  52.713  1.00  0.00    -0.000 A 
HETATM    5  C7  UNL     1      22.891   3.079  52.339  1.00  0.00     0.119 A 
HETATM    6  C8  UNL     1      21.691   0.552  53.247  1.00  0.00     0.150 A 
HETATM    7  N4  UNL     1      22.712  -0.330  52.692  1.00  0.00    -0.362 N 
HETATM    8  H13 UNL     1      22.873  -1.362  52.669  1.00  0.00     0.162 HD
ENDROOT
BRANCH   1   9
HETATM    9  N2  UNL     1      24.973   3.860  51.023  1.00  0.00    -0.318 N 
HETATM   10  C3  UNL     1      24.607   5.234  51.164  1.00  0.00     0.126 C 
HETATM   11  C2  UNL     1      24.969   6.279  50.411  1.00  0.00     0.043 C 
HETATM   12  C18 UNL     1      25.850   6.255  49.230  1.00  0.00     0.030 C 
HETATM   13  C17 UNL     1      26.651   5.312  48.755  1.00  0.00     0.004 C 
HETATM   14  C16 UNL     1      26.811   4.006  49.383  1.00  0.00     0.018 C 
HETATM   15  C15 UNL     1      26.136   3.353  50.337  1.00  0.00     0.098 C 
BRANCH  11  16
HETATM   16  N1  UNL     1      24.424   7.514  50.830  1.00  0.00    -0.393 N 
HETATM   17  C1  UNL     1      23.346   8.180  50.142  1.00  0.00     0.146 C 
HETATM   18  H4  UNL     1      24.842   7.960  51.699  1.00  0.00     0.159 HD
ENDBRANCH  11  16
ENDBRANCH   1   9
BRANCH   6  19
HETATM   19  C9  UNL     1      20.398   0.244  52.608  1.00  0.00    -0.031 A 
HETATM   20  C10 UNL     1      19.546  -0.545  53.381  1.00  0.00     0.012 A 
HETATM   21  C11 UNL     1      18.304  -0.935  52.959  1.00  0.00     0.043 A 
HETATM   22  C12 UNL     1      17.863  -0.535  51.714  1.00  0.00     0.116 A 
HETATM   23  F1  UNL     1      16.637  -0.912  51.283  1.00  0.00    -0.206 F 
HETATM   24  C13 UNL     1      18.687   0.250  50.922  1.00  0.00     0.043 A 
HETATM   25  C14 UNL     1      19.944   0.638  51.363  1.00  0.00     0.012 A 
ENDBRANCH   6  19
TORSDOF 3
ENDMDL
MODEL 9
REMARK VINA RESULT:      -7.4      2.569      2.801
REMARK  3 active torsions:
REMARK  status: ('A' for Active; 'I' for Inactive)
REMARK    1  A    between atoms: N1_2  and  C2_3 
REMARK    2  A    between atoms: N2_5  and  C4_6 
REMARK    3  A    between atoms: C8_11  and  C9_12 
ROOT
HETATM    1  C4  UNL     1      23.375   2.326  51.814  1.00  0.00     0.116 A 
HETATM    2  N3  UNL     1      24.365   3.117  52.068  1.00  0.00    -0.217 NA
HETATM    3  C5  UNL     1      25.235   2.511  53.029  1.00  0.00     0.131 A 
HETATM    4  C6  UNL     1      24.774   1.301  53.387  1.00  0.00    -0.000 A 
HETATM    5  C7  UNL     1      23.520   1.076  52.624  1.00  0.00     0.119 A 
HETATM    6  C8  UNL     1      25.942   1.172  54.289  1.00  0.00     0.150 A 
HETATM    7  N4  UNL     1      26.391   2.492  53.860  1.00  0.00    -0.362 N 
HETATM    8  H13 UNL     1      27.201   3.113  54.083  1.00  0.00     0.162 HD
ENDROOT
BRANCH   1   9
HETATM    9  N2  UNL     1      22.299   2.576  50.910  1.00  0.00    -0.318 N 
HETATM   10  C3  UNL     1      21.081   3.163  51.374  1.00  0.00     0.126 C 
HETATM   11  C2  UNL     1      19.863   3.109  50.825  1.00  0.00     0.043 C 
HETATM   12  C18 UNL     1      19.482   2.413  49.583  1.00  0.00     0.030 C 
HETATM   13  C17 UNL     1      20.218   1.882  48.617  1.00  0.00     0.004 C 
HETATM   14  C16 UNL     1      21.676   1.897  48.620  1.00  0.00     0.018 C 
HETATM   15  C15 UNL     1      22.593   2.181  49.554  1.00  0.00     0.098 C 
BRANCH  11  16
HETATM   16  N1  UNL     1      18.868   3.806  51.547  1.00  0.00    -0.393 N 
HETATM   17  C1  UNL     1      17.490   3.879  51.131  1.00  0.00     0.146 C 
HETATM   18  H4  UNL     1      19.170   4.296  52.441  1.00  0.00     0.159 HD
ENDBRANCH  11  16
ENDBRANCH   1   9
BRANCH   6  19
HETATM   19  C9  UNL     1      26.962   0.176  53.911  1.00  0.00    -0.031 A 
HETATM   20  C10 UNL     1      28.211   0.379  54.499  1.00  0.00     0.012 A 
HETATM   21  C11 UNL     1      29.284  -0.440  54.271  1.00  0.00     0.043 A 
HETATM   22  C12 UNL     1      29.137  -1.517  53.422  1.00  0.00     0.116 A 
HETATM   23  F1  UNL     1      30.187  -2.336  53.187  1.00  0.00    -0.206 F 
HETATM   24  C13 UNL     1      27.907  -1.745  52.822  1.00  0.00     0.043 A 
HETATM   25  C14 UNL     1      26.828  -0.908  53.063  1.00  0.00     0.012 A 
ENDBRANCH   6  19
TORSDOF 3
ENDMDL
