MODEL 1
REMARK VINA RESULT:      -8.8      0.000      0.000
REMARK  4 active torsions:
REMARK  status: ('A' for Active; 'I' for Inactive)
REMARK    1  A    between atoms: C7_7  and  C8_8 
REMARK    2  A    between atoms: C8_8  and  O1_9 
REMARK    3  A    between atoms: O1_9  and  N1_10 
REMARK    4  A    between atoms: N1_10  and  C9_11 
ROOT
HETATM    1  C9  UNL     1      25.429   3.080  51.187  1.00  0.00     0.162 A 
HETATM    2  N2  UNL     1      25.885   4.013  50.354  1.00  0.00    -0.222 NA
HETATM    3  C10 UNL     1      25.204   4.413  49.281  1.00  0.00     0.236 A 
HETATM    4  N3  UNL     1      24.021   3.818  49.084  1.00  0.00    -0.234 NA
HETATM    5  C11 UNL     1      23.567   2.886  49.917  1.00  0.00     0.114 A 
HETATM    6  S1  UNL     1      22.039   1.979  49.842  1.00  0.00    -0.073 SA
HETATM    7  C12 UNL     1      22.365   1.001  51.373  1.00  0.00    -0.008 A 
HETATM    8  C13 UNL     1      23.638   1.473  51.803  1.00  0.00    -0.028 A 
HETATM    9  C14 UNL     1      24.232   2.435  51.045  1.00  0.00     0.055 A 
HETATM   10  C15 UNL     1      24.138   0.848  53.024  1.00  0.00     0.041 C 
HETATM   11  C16 UNL     1      23.261  -0.171  53.608  1.00  0.00     0.005 C 
HETATM   12  C17 UNL     1      21.791  -0.022  53.453  1.00  0.00     0.005 C 
HETATM   13  C18 UNL     1      21.507   0.006  51.964  1.00  0.00     0.047 C 
ENDROOT
BRANCH   1  14
HETATM   14  N1  UNL     1      26.323   2.816  52.256  1.00  0.00    -0.248 N 
HETATM   15  H8  UNL     1      26.531   2.828  53.273  1.00  0.00     0.196 HD
BRANCH  14  16
HETATM   16  O1  UNL     1      27.551   2.298  52.114  1.00  0.00    -0.278 OA
BRANCH  16  17
HETATM   17  C8  UNL     1      28.308   2.242  53.254  1.00  0.00     0.215 C 
BRANCH  17  18
HETATM   18  C7  UNL     1      28.002   1.044  54.107  1.00  0.00     0.079 A 
HETATM   19  C4  UNL     1      28.863  -0.157  53.898  1.00  0.00    -0.040 A 
HETATM   20  C3  UNL     1      29.644  -1.263  53.703  1.00  0.00     0.008 A 
HETATM   21  C5  UNL     1      27.561  -0.211  53.513  1.00  0.00    -0.040 A 
HETATM   22  C2  UNL     1      29.198  -2.439  53.136  1.00  0.00     0.001 A 
HETATM   23  C1  UNL     1      27.872  -2.482  52.748  1.00  0.00     0.001 A 
HETATM   24  C6  UNL     1      27.058  -1.367  52.938  1.00  0.00     0.008 A 
ENDBRANCH  17  18
ENDBRANCH  16  17
ENDBRANCH  14  16
ENDBRANCH   1  14
TORSDOF 4
ENDMDL
MODEL 2
REMARK VINA RESULT:      -8.3      1.754      1.987
REMARK  4 active torsions:
REMARK  status: ('A' for Active; 'I' for Inactive)
REMARK    1  A    between atoms: C7_7  and  C8_8 
REMARK    2  A    between atoms: C8_8  and  O1_9 
REMARK    3  A    between atoms: O1_9  and  N1_10 
REMARK    4  A    between atoms: N1_10  and  C9_11 
ROOT
HETATM    1  C9  UNL     1      23.633   3.336  52.096  1.00  0.00     0.162 A 
HETATM    2  N2  UNL     1      23.582   4.561  51.577  1.00  0.00    -0.222 NA
HETATM    3  C10 UNL     1      22.436   5.153  51.244  1.00  0.00     0.236 A 
HETATM    4  N3  UNL     1      21.324   4.440  51.462  1.00  0.00    -0.234 NA
HETATM    5  C11 UNL     1      21.376   3.215  51.979  1.00  0.00     0.114 A 
HETATM    6  S1  UNL     1      20.036   2.106  52.346  1.00  0.00    -0.073 SA
HETATM    7  C12 UNL     1      21.121   0.761  52.991  1.00  0.00    -0.008 A 
HETATM    8  C13 UNL     1      22.433   1.301  52.862  1.00  0.00    -0.028 A 
HETATM    9  C14 UNL     1      22.538   2.555  52.343  1.00  0.00     0.055 A 
HETATM   10  C15 UNL     1      23.502   0.417  53.315  1.00  0.00     0.041 C 
HETATM   11  C16 UNL     1      23.063  -0.887  53.819  1.00  0.00     0.005 C 
HETATM   12  C17 UNL     1      21.745  -0.983  54.499  1.00  0.00     0.005 C 
HETATM   13  C18 UNL     1      20.702  -0.520  53.501  1.00  0.00     0.047 C 
ENDROOT
BRANCH   1  14
HETATM   14  N1  UNL     1      24.958   2.912  52.370  1.00  0.00    -0.248 N 
HETATM   15  H8  UNL     1      25.656   2.530  53.037  1.00  0.00     0.196 HD
BRANCH  14  16
HETATM   16  O1  UNL     1      25.962   2.922  51.482  1.00  0.00    -0.278 OA
BRANCH  16  17
HETATM   17  C8  UNL     1      27.170   2.474  51.947  1.00  0.00     0.215 C 
BRANCH  17  18
HETATM   18  C7  UNL     1      27.043   1.524  53.104  1.00  0.00     0.079 A 
HETATM   19  C4  UNL     1      28.274   0.770  53.482  1.00  0.00    -0.040 A 
HETATM   20  C3  UNL     1      29.398   0.069  53.825  1.00  0.00     0.008 A 
HETATM   21  C5  UNL     1      27.237   0.091  52.926  1.00  0.00    -0.040 A 
HETATM   22  C2  UNL     1      29.553  -1.289  53.644  1.00  0.00     0.001 A 
HETATM   23  C1  UNL     1      28.491  -1.969  53.078  1.00  0.00     0.001 A 
HETATM   24  C6  UNL     1      27.336  -1.276  52.720  1.00  0.00     0.008 A 
ENDBRANCH  17  18
ENDBRANCH  16  17
ENDBRANCH  14  16
ENDBRANCH   1  14
TORSDOF 4
ENDMDL
MODEL 3
REMARK VINA RESULT:      -8.3      2.361      5.947
REMARK  4 active torsions:
REMARK  status: ('A' for Active; 'I' for Inactive)
REMARK    1  A    between atoms: C7_7  and  C8_8 
REMARK    2  A    between atoms: C8_8  and  O1_9 
REMARK    3  A    between atoms: O1_9  and  N1_10 
REMARK    4  A    between atoms: N1_10  and  C9_11 
ROOT
HETATM    1  C9  UNL     1      26.957   2.186  52.647  1.00  0.00     0.162 A 
HETATM    2  N2  UNL     1      28.237   2.380  52.953  1.00  0.00    -0.222 NA
HETATM    3  C10 UNL     1      28.861   1.691  53.907  1.00  0.00     0.236 A 
HETATM    4  N3  UNL     1      28.119   0.781  54.551  1.00  0.00    -0.234 NA
HETATM    5  C11 UNL     1      26.839   0.588  54.244  1.00  0.00     0.114 A 
HETATM    6  S1  UNL     1      25.685  -0.556  54.966  1.00  0.00    -0.073 SA
HETATM    7  C12 UNL     1      24.274  -0.050  53.889  1.00  0.00    -0.008 A 
HETATM    8  C13 UNL     1      24.833   0.966  53.064  1.00  0.00    -0.028 A 
HETATM    9  C14 UNL     1      26.144   1.275  53.263  1.00  0.00     0.055 A 
HETATM   10  C15 UNL     1      23.905   1.546  52.098  1.00  0.00     0.041 C 
HETATM   11  C16 UNL     1      22.544   1.001  52.136  1.00  0.00     0.005 C 
HETATM   12  C17 UNL     1      22.355  -0.423  52.517  1.00  0.00     0.005 C 
HETATM   13  C18 UNL     1      22.936  -0.585  53.907  1.00  0.00     0.047 C 
ENDROOT
BRANCH   1  14
HETATM   14  N1  UNL     1      26.508   3.033  51.601  1.00  0.00    -0.248 N 
HETATM   15  H8  UNL     1      25.810   3.706  51.231  1.00  0.00     0.196 HD
BRANCH  14  16
HETATM   16  O1  UNL     1      27.136   3.196  50.428  1.00  0.00    -0.278 OA
BRANCH  16  17
HETATM   17  C8  UNL     1      26.466   3.940  49.493  1.00  0.00     0.215 C 
BRANCH  17  18
HETATM   18  C7  UNL     1      25.051   4.251  49.890  1.00  0.00     0.079 A 
HETATM   19  C4  UNL     1      23.981   3.486  49.186  1.00  0.00    -0.040 A 
HETATM   20  C3  UNL     1      22.996   2.794  48.535  1.00  0.00     0.008 A 
HETATM   21  C5  UNL     1      24.108   4.815  48.934  1.00  0.00    -0.040 A 
HETATM   22  C2  UNL     1      22.117   3.356  47.634  1.00  0.00     0.001 A 
HETATM   23  C1  UNL     1      22.255   4.709  47.385  1.00  0.00     0.001 A 
HETATM   24  C6  UNL     1      23.252   5.434  48.037  1.00  0.00     0.008 A 
ENDBRANCH  17  18
ENDBRANCH  16  17
ENDBRANCH  14  16
ENDBRANCH   1  14
TORSDOF 4
ENDMDL
MODEL 4
REMARK VINA RESULT:      -8.2      3.003      6.278
REMARK  4 active torsions:
REMARK  status: ('A' for Active; 'I' for Inactive)
REMARK    1  A    between atoms: C7_7  and  C8_8 
REMARK    2  A    between atoms: C8_8  and  O1_9 
REMARK    3  A    between atoms: O1_9  and  N1_10 
REMARK    4  A    between atoms: N1_10  and  C9_11 
ROOT
HETATM    1  C9  UNL     1      22.450   0.163  52.711  1.00  0.00     0.162 A 
HETATM    2  N2  UNL     1      21.202  -0.222  52.966  1.00  0.00    -0.222 NA
HETATM    3  C10 UNL     1      20.875  -0.935  54.043  1.00  0.00     0.236 A 
HETATM    4  N3  UNL     1      21.885  -1.249  54.865  1.00  0.00    -0.234 NA
HETATM    5  C11 UNL     1      23.132  -0.863  54.609  1.00  0.00     0.114 A 
HETATM    6  S1  UNL     1      24.605  -1.168  55.557  1.00  0.00    -0.073 SA
HETATM    7  C12 UNL     1      25.722  -0.260  54.402  1.00  0.00    -0.008 A 
HETATM    8  C13 UNL     1      24.842   0.199  53.381  1.00  0.00    -0.028 A 
HETATM    9  C14 UNL     1      23.525  -0.121  53.507  1.00  0.00     0.055 A 
HETATM   10  C15 UNL     1      25.488   0.965  52.320  1.00  0.00     0.041 C 
HETATM   11  C16 UNL     1      26.937   1.133  52.464  1.00  0.00     0.005 C 
HETATM   12  C17 UNL     1      27.514   1.212  53.832  1.00  0.00     0.005 C 
HETATM   13  C18 UNL     1      27.145  -0.077  54.538  1.00  0.00     0.047 C 
ENDROOT
BRANCH   1  14
HETATM   14  N1  UNL     1      22.559   0.911  51.511  1.00  0.00    -0.248 N 
HETATM   15  H8  UNL     1      22.897   0.990  50.533  1.00  0.00     0.196 HD
BRANCH  14  16
HETATM   16  O1  UNL     1      22.054   2.139  51.328  1.00  0.00    -0.278 OA
BRANCH  16  17
HETATM   17  C8  UNL     1      22.972   3.143  51.169  1.00  0.00     0.215 C 
BRANCH  17  18
HETATM   18  C7  UNL     1      23.521   3.226  49.773  1.00  0.00     0.079 A 
HETATM   19  C4  UNL     1      25.007   3.272  49.646  1.00  0.00    -0.040 A 
HETATM   20  C3  UNL     1      26.369   3.325  49.525  1.00  0.00     0.008 A 
HETATM   21  C5  UNL     1      24.290   4.383  49.334  1.00  0.00    -0.040 A 
HETATM   22  C2  UNL     1      27.070   4.436  49.106  1.00  0.00     0.001 A 
HETATM   23  C1  UNL     1      26.329   5.560  48.792  1.00  0.00     0.001 A 
HETATM   24  C6  UNL     1      24.940   5.529  48.907  1.00  0.00     0.008 A 
ENDBRANCH  17  18
ENDBRANCH  16  17
ENDBRANCH  14  16
ENDBRANCH   1  14
TORSDOF 4
ENDMDL
MODEL 5
REMARK VINA RESULT:      -8.0      2.759      5.906
REMARK  4 active torsions:
REMARK  status: ('A' for Active; 'I' for Inactive)
REMARK    1  A    between atoms: C7_7  and  C8_8 
REMARK    2  A    between atoms: C8_8  and  O1_9 
REMARK    3  A    between atoms: O1_9  and  N1_10 
REMARK    4  A    between atoms: N1_10  and  C9_11 
ROOT
HETATM    1  C9  UNL     1      22.346   2.779  51.983  1.00  0.00     0.162 A 
HETATM    2  N2  UNL     1      21.047   3.016  52.147  1.00  0.00    -0.222 NA
HETATM    3  C10 UNL     1      20.233   2.163  52.766  1.00  0.00     0.236 A 
HETATM    4  N3  UNL     1      20.800   1.038  53.220  1.00  0.00    -0.234 NA
HETATM    5  C11 UNL     1      22.099   0.802  53.056  1.00  0.00     0.114 A 
HETATM    6  S1  UNL     1      23.045  -0.611  53.575  1.00  0.00    -0.073 SA
HETATM    7  C12 UNL     1      24.643   0.017  52.900  1.00  0.00    -0.008 A 
HETATM    8  C13 UNL     1      24.292   1.274  52.330  1.00  0.00    -0.028 A 
HETATM    9  C14 UNL     1      22.988   1.654  52.421  1.00  0.00     0.055 A 
HETATM   10  C15 UNL     1      25.403   1.996  51.716  1.00  0.00     0.041 C 
HETATM   11  C16 UNL     1      26.698   1.312  51.772  1.00  0.00     0.005 C 
HETATM   12  C17 UNL     1      26.994   0.436  52.935  1.00  0.00     0.005 C 
HETATM   13  C18 UNL     1      25.925  -0.638  52.958  1.00  0.00     0.047 C 
ENDROOT
BRANCH   1  14
HETATM   14  N1  UNL     1      23.013   3.825  51.296  1.00  0.00    -0.248 N 
HETATM   15  H8  UNL     1      23.562   4.151  50.478  1.00  0.00     0.196 HD
BRANCH  14  16
HETATM   16  O1  UNL     1      23.103   5.089  51.733  1.00  0.00    -0.278 OA
BRANCH  16  17
HETATM   17  C8  UNL     1      24.106   5.839  51.178  1.00  0.00     0.215 C 
BRANCH  17  18
HETATM   18  C7  UNL     1      24.408   5.463  49.755  1.00  0.00     0.079 A 
HETATM   19  C4  UNL     1      25.746   4.855  49.499  1.00  0.00    -0.040 A 
HETATM   20  C3  UNL     1      26.976   4.306  49.258  1.00  0.00     0.008 A 
HETATM   21  C5  UNL     1      25.493   6.101  49.021  1.00  0.00    -0.040 A 
HETATM   22  C2  UNL     1      27.985   4.936  48.560  1.00  0.00     0.001 A 
HETATM   23  C1  UNL     1      27.716   6.203  48.079  1.00  0.00     0.001 A 
HETATM   24  C6  UNL     1      26.469   6.782  48.312  1.00  0.00     0.008 A 
ENDBRANCH  17  18
ENDBRANCH  16  17
ENDBRANCH  14  16
ENDBRANCH   1  14
TORSDOF 4
ENDMDL
MODEL 6
REMARK VINA RESULT:      -8.0      2.453      4.658
REMARK  4 active torsions:
REMARK  status: ('A' for Active; 'I' for Inactive)
REMARK    1  A    between atoms: C7_7  and  C8_8 
REMARK    2  A    between atoms: C8_8  and  O1_9 
REMARK    3  A    between atoms: O1_9  and  N1_10 
REMARK    4  A    between atoms: N1_10  and  C9_11 
ROOT
HETATM    1  C9  UNL     1      23.208   3.293  51.158  1.00  0.00     0.162 A 
HETATM    2  N2  UNL     1      22.021   3.174  51.747  1.00  0.00    -0.222 NA
HETATM    3  C10 UNL     1      21.272   4.226  52.073  1.00  0.00     0.236 A 
HETATM    4  N3  UNL     1      21.785   5.425  51.772  1.00  0.00    -0.234 NA
HETATM    5  C11 UNL     1      22.972   5.543  51.183  1.00  0.00     0.114 A 
HETATM    6  S1  UNL     1      23.831   7.024  50.700  1.00  0.00    -0.073 SA
HETATM    7  C12 UNL     1      25.296   6.136  50.014  1.00  0.00    -0.008 A 
HETATM    8  C13 UNL     1      24.980   4.763  50.225  1.00  0.00    -0.028 A 
HETATM    9  C14 UNL     1      23.790   4.484  50.822  1.00  0.00     0.055 A 
HETATM   10  C15 UNL     1      25.998   3.826  49.759  1.00  0.00     0.041 C 
HETATM   11  C16 UNL     1      27.186   4.442  49.160  1.00  0.00     0.005 C 
HETATM   12  C17 UNL     1      27.032   5.726  48.427  1.00  0.00     0.005 C 
HETATM   13  C18 UNL     1      26.463   6.727  49.412  1.00  0.00     0.047 C 
ENDROOT
BRANCH   1  14
HETATM   14  N1  UNL     1      23.824   2.040  50.907  1.00  0.00    -0.248 N 
HETATM   15  H8  UNL     1      24.422   1.441  50.306  1.00  0.00     0.196 HD
BRANCH  14  16
HETATM   16  O1  UNL     1      23.716   0.964  51.699  1.00  0.00    -0.278 OA
BRANCH  16  17
HETATM   17  C8  UNL     1      24.733   0.784  52.599  1.00  0.00     0.215 C 
BRANCH  17  18
HETATM   18  C7  UNL     1      26.095   0.984  51.997  1.00  0.00     0.079 A 
HETATM   19  C4  UNL     1      27.220   0.243  52.641  1.00  0.00    -0.040 A 
HETATM   20  C3  UNL     1      28.255  -0.426  53.234  1.00  0.00     0.008 A 
HETATM   21  C5  UNL     1      27.174   1.596  52.763  1.00  0.00    -0.040 A 
HETATM   22  C2  UNL     1      29.263   0.182  53.954  1.00  0.00     0.001 A 
HETATM   23  C1  UNL     1      29.205   1.557  54.071  1.00  0.00     0.001 A 
HETATM   24  C6  UNL     1      28.160   2.260  53.474  1.00  0.00     0.008 A 
ENDBRANCH  17  18
ENDBRANCH  16  17
ENDBRANCH  14  16
ENDBRANCH   1  14
TORSDOF 4
ENDMDL
MODEL 7
REMARK VINA RESULT:      -7.9      2.915      5.611
REMARK  4 active torsions:
REMARK  status: ('A' for Active; 'I' for Inactive)
REMARK    1  A    between atoms: C7_7  and  C8_8 
REMARK    2  A    between atoms: C8_8  and  O1_9 
REMARK    3  A    between atoms: O1_9  and  N1_10 
REMARK    4  A    between atoms: N1_10  and  C9_11 
ROOT
HETATM    1  C9  UNL     1      24.478   0.291  52.991  1.00  0.00     0.162 A 
HETATM    2  N2  UNL     1      25.350  -0.176  53.881  1.00  0.00    -0.222 NA
HETATM    3  C10 UNL     1      24.983  -0.908  54.932  1.00  0.00     0.236 A 
HETATM    4  N3  UNL     1      23.671  -1.150  55.045  1.00  0.00    -0.234 NA
HETATM    5  C11 UNL     1      22.800  -0.682  54.155  1.00  0.00     0.114 A 
HETATM    6  S1  UNL     1      21.033  -0.884  54.117  1.00  0.00    -0.073 SA
HETATM    7  C12 UNL     1      20.800   0.094  52.569  1.00  0.00    -0.008 A 
HETATM    8  C13 UNL     1      22.124   0.489  52.223  1.00  0.00    -0.028 A 
HETATM    9  C14 UNL     1      23.128   0.081  53.047  1.00  0.00     0.055 A 
HETATM   10  C15 UNL     1      22.222   1.290  51.007  1.00  0.00     0.041 C 
HETATM   11  C16 UNL     1      20.947   1.572  50.341  1.00  0.00     0.005 C 
HETATM   12  C17 UNL     1      19.858   0.563  50.425  1.00  0.00     0.005 C 
HETATM   13  C18 UNL     1      19.555   0.368  51.897  1.00  0.00     0.047 C 
ENDROOT
BRANCH   1  14
HETATM   14  N1  UNL     1      25.097   1.044  51.960  1.00  0.00    -0.248 N 
HETATM   15  H8  UNL     1      25.016   1.621  51.101  1.00  0.00     0.196 HD
BRANCH  14  16
HETATM   16  O1  UNL     1      26.419   1.233  51.841  1.00  0.00    -0.278 OA
BRANCH  16  17
HETATM   17  C8  UNL     1      26.807   2.489  51.455  1.00  0.00     0.215 C 
BRANCH  17  18
HETATM   18  C7  UNL     1      26.172   2.933  50.168  1.00  0.00     0.079 A 
HETATM   19  C4  UNL     1      26.937   3.928  49.361  1.00  0.00    -0.040 A 
HETATM   20  C3  UNL     1      27.631   4.848  48.622  1.00  0.00     0.008 A 
HETATM   21  C5  UNL     1      25.783   4.322  49.961  1.00  0.00    -0.040 A 
HETATM   22  C2  UNL     1      27.237   6.158  48.444  1.00  0.00     0.001 A 
HETATM   23  C1  UNL     1      26.062   6.547  49.060  1.00  0.00     0.001 A 
HETATM   24  C6  UNL     1      25.339   5.626  49.817  1.00  0.00     0.008 A 
ENDBRANCH  17  18
ENDBRANCH  16  17
ENDBRANCH  14  16
ENDBRANCH   1  14
TORSDOF 4
ENDMDL
MODEL 8
REMARK VINA RESULT:      -7.9      2.201      6.085
REMARK  4 active torsions:
REMARK  status: ('A' for Active; 'I' for Inactive)
REMARK    1  A    between atoms: C7_7  and  C8_8 
REMARK    2  A    between atoms: C8_8  and  O1_9 
REMARK    3  A    between atoms: O1_9  and  N1_10 
REMARK    4  A    between atoms: N1_10  and  C9_11 
ROOT
HETATM    1  C9  UNL     1      26.407   1.622  52.920  1.00  0.00     0.162 A 
HETATM    2  N2  UNL     1      27.579   1.448  53.526  1.00  0.00    -0.222 NA
HETATM    3  C10 UNL     1      27.776   0.517  54.457  1.00  0.00     0.236 A 
HETATM    4  N3  UNL     1      26.716  -0.245  54.756  1.00  0.00    -0.234 NA
HETATM    5  C11 UNL     1      25.544  -0.070  54.150  1.00  0.00     0.114 A 
HETATM    6  S1  UNL     1      24.024  -0.961  54.392  1.00  0.00    -0.073 SA
HETATM    7  C12 UNL     1      23.076   0.008  53.140  1.00  0.00    -0.008 A 
HETATM    8  C13 UNL     1      24.034   0.939  52.646  1.00  0.00    -0.028 A 
HETATM    9  C14 UNL     1      25.286   0.881  53.176  1.00  0.00     0.055 A 
HETATM   10  C15 UNL     1      23.529   1.844  51.618  1.00  0.00     0.041 C 
HETATM   11  C16 UNL     1      22.119   1.661  51.264  1.00  0.00     0.005 C 
HETATM   12  C17 UNL     1      21.534   0.297  51.340  1.00  0.00     0.005 C 
HETATM   13  C18 UNL     1      21.694  -0.169  52.773  1.00  0.00     0.047 C 
ENDROOT
BRANCH   1  14
HETATM   14  N1  UNL     1      26.432   2.671  51.966  1.00  0.00    -0.248 N 
HETATM   15  H8  UNL     1      26.133   3.620  51.670  1.00  0.00     0.196 HD
BRANCH  14  16
HETATM   16  O1  UNL     1      27.108   2.634  50.808  1.00  0.00    -0.278 OA
BRANCH  16  17
HETATM   17  C8  UNL     1      26.506   3.259  49.749  1.00  0.00     0.215 C 
BRANCH  17  18
HETATM   18  C7  UNL     1      25.618   4.398  50.162  1.00  0.00     0.079 A 
HETATM   19  C4  UNL     1      24.397   4.622  49.334  1.00  0.00    -0.040 A 
HETATM   20  C3  UNL     1      23.282   4.837  48.571  1.00  0.00     0.008 A 
HETATM   21  C5  UNL     1      25.398   5.539  49.283  1.00  0.00    -0.040 A 
HETATM   22  C2  UNL     1      23.102   5.929  47.747  1.00  0.00     0.001 A 
HETATM   23  C1  UNL     1      24.128   6.854  47.703  1.00  0.00     0.001 A 
HETATM   24  C6  UNL     1      25.273   6.656  48.473  1.00  0.00     0.008 A 
ENDBRANCH  17  18
ENDBRANCH  16  17
ENDBRANCH  14  16
ENDBRANCH   1  14
TORSDOF 4
ENDMDL
MODEL 9
REMARK VINA RESULT:      -7.5      2.628      6.304
REMARK  4 active torsions:
REMARK  status: ('A' for Active; 'I' for Inactive)
REMARK    1  A    between atoms: C7_7  and  C8_8 
REMARK    2  A    between atoms: C8_8  and  O1_9 
REMARK    3  A    between atoms: O1_9  and  N1_10 
REMARK    4  A    between atoms: N1_10  and  C9_11 
ROOT
HETATM    1  C9  UNL     1      25.110   1.152  52.896  1.00  0.00     0.162 A 
HETATM    2  N2  UNL     1      26.152   0.805  53.647  1.00  0.00    -0.222 NA
HETATM    3  C10 UNL     1      27.390   1.230  53.400  1.00  0.00     0.236 A 
HETATM    4  N3  UNL     1      27.531   2.035  52.339  1.00  0.00    -0.234 NA
HETATM    5  C11 UNL     1      26.488   2.382  51.589  1.00  0.00     0.114 A 
HETATM    6  S1  UNL     1      26.453   3.429  50.152  1.00  0.00    -0.073 SA
HETATM    7  C12 UNL     1      24.634   3.267  49.888  1.00  0.00    -0.008 A 
HETATM    8  C13 UNL     1      24.220   2.409  50.947  1.00  0.00    -0.028 A 
HETATM    9  C14 UNL     1      25.183   1.970  51.802  1.00  0.00     0.055 A 
HETATM   10  C15 UNL     1      22.790   2.116  50.968  1.00  0.00     0.041 C 
HETATM   11  C16 UNL     1      22.009   2.738  49.895  1.00  0.00     0.005 C 
HETATM   12  C17 UNL     1      22.442   4.060  49.370  1.00  0.00     0.005 C 
HETATM   13  C18 UNL     1      23.853   3.882  48.846  1.00  0.00     0.047 C 
ENDROOT
BRANCH   1  14
HETATM   14  N1  UNL     1      23.893   0.581  53.347  1.00  0.00    -0.248 N 
HETATM   15  H8  UNL     1      23.027   0.651  53.916  1.00  0.00     0.196 HD
BRANCH  14  16
HETATM   16  O1  UNL     1      23.443  -0.633  52.996  1.00  0.00    -0.278 OA
BRANCH  16  17
HETATM   17  C8  UNL     1      22.341  -1.078  53.677  1.00  0.00     0.215 C 
BRANCH  17  18
HETATM   18  C7  UNL     1      21.219  -0.079  53.702  1.00  0.00     0.079 A 
HETATM   19  C4  UNL     1      19.839  -0.629  53.564  1.00  0.00    -0.040 A 
HETATM   20  C3  UNL     1      18.572  -1.128  53.428  1.00  0.00     0.008 A 
HETATM   21  C5  UNL     1      20.353   0.108  52.545  1.00  0.00    -0.040 A 
HETATM   22  C2  UNL     1      17.775  -0.934  52.319  1.00  0.00     0.001 A 
HETATM   23  C1  UNL     1      18.309  -0.183  51.289  1.00  0.00     0.001 A 
HETATM   24  C6  UNL     1      19.597   0.336  51.407  1.00  0.00     0.008 A 
ENDBRANCH  17  18
ENDBRANCH  16  17
ENDBRANCH  14  16
ENDBRANCH   1  14
TORSDOF 4
ENDMDL
