MODEL 1
REMARK VINA RESULT:      -8.1      0.000      0.000
REMARK  9 active torsions:
REMARK  status: ('A' for Active; 'I' for Inactive)
REMARK    1  A    between atoms: O1_2  and  C2_3 
REMARK    2  A    between atoms: C2_3  and  C3_4 
REMARK    3  A    between atoms: C7_10  and  N3_11 
REMARK    4  A    between atoms: N3_11  and  C8_12 
REMARK    5  A    between atoms: C15_21  and  O2_22 
REMARK    6  A    between atoms: O2_22  and  C16_23 
REMARK    7  A    between atoms: C16_23  and  C17_24 
REMARK    8  A    between atoms: C17_24  and  C18_25 
REMARK    9  A    between atoms: C18_25  and  N4_26 
ROOT
HETATM    1  C3  UNL     1      20.303   0.807  52.688  1.00  0.00    -0.021 A 
HETATM    2  C4  UNL     1      20.071  -0.132  53.587  1.00  0.00     0.040 A 
HETATM    3  C5  UNL     1      21.382  -0.524  54.079  1.00  0.00     0.071 A 
HETATM    4  N1  UNL     1      21.571  -1.479  55.032  1.00  0.00    -0.241 NA
HETATM    5  C6  UNL     1      22.827  -1.762  55.415  1.00  0.00     0.235 A 
HETATM    6  N2  UNL     1      23.824  -1.086  54.839  1.00  0.00    -0.224 NA
HETATM    7  C7  UNL     1      23.688  -0.142  53.901  1.00  0.00     0.141 A 
HETATM    8  C14 UNL     1      22.403   0.178  53.477  1.00  0.00     0.050 A 
HETATM    9  C15 UNL     1      21.779   1.097  52.521  1.00  0.00     0.192 A 
ENDROOT
BRANCH   7  10
HETATM   10  N3  UNL     1      24.779   0.549  53.318  1.00  0.00    -0.340 N 
HETATM   11  H8  UNL     1      24.558   1.420  52.782  1.00  0.00     0.167 HD
BRANCH  10  12
HETATM   12  C8  UNL     1      26.135   0.213  53.367  1.00  0.00     0.035 A 
HETATM   13  C9  UNL     1      26.716  -0.974  52.979  1.00  0.00     0.032 A 
HETATM   14  C10 UNL     1      28.057  -1.279  53.039  1.00  0.00     0.046 A 
HETATM   15  C11 UNL     1      28.922  -0.324  53.529  1.00  0.00     0.138 A 
HETATM   16  F1  UNL     1      30.243  -0.548  53.618  1.00  0.00    -0.204 F 
HETATM   17  C12 UNL     1      28.419   0.890  53.939  1.00  0.00     0.074 A 
HETATM   18 CL1  UNL     1      29.514   2.093  54.558  1.00  0.00    -0.081 Cl
HETATM   19  C13 UNL     1      27.080   1.123  53.851  1.00  0.00     0.056 A 
ENDBRANCH  10  12
ENDBRANCH   7  10
BRANCH   9  20
HETATM   20  O2  UNL     1      22.043   0.842  51.192  1.00  0.00    -0.376 OA
BRANCH  20  21
HETATM   21  C16 UNL     1      22.796   1.776  50.536  1.00  0.00     0.170 C 
BRANCH  21  22
HETATM   22  C17 UNL     1      22.908   3.084  51.282  1.00  0.00     0.056 C 
BRANCH  22  23
HETATM   23  C18 UNL     1      24.365   3.476  51.302  1.00  0.00     0.274 C 
BRANCH  23  24
HETATM   24  N4  UNL     1      24.816   3.935  50.001  1.00  0.00     0.092 N 
HETATM   25  C19 UNL     1      26.240   3.769  49.985  1.00  0.00     0.298 C 
HETATM   26  C20 UNL     1      26.950   4.624  48.980  1.00  0.00     0.198 C 
HETATM   27  O3  UNL     1      26.545   5.957  49.176  1.00  0.00    -0.388 OA
HETATM   28  C21 UNL     1      25.210   5.988  48.708  1.00  0.00     0.198 C 
HETATM   29  C22 UNL     1      24.366   5.268  49.726  1.00  0.00     0.298 C 
ENDBRANCH  23  24
ENDBRANCH  22  23
ENDBRANCH  21  22
ENDBRANCH  20  21
ENDBRANCH   9  20
BRANCH   1  30
HETATM   30  C2  UNL     1      19.400   1.610  51.827  1.00  0.00     0.204 C 
BRANCH  30  31
HETATM   31  O1  UNL     1      19.363   2.941  52.241  1.00  0.00    -0.392 OA
HETATM   32  C1  UNL     1      18.650   3.745  51.388  1.00  0.00     0.201 C 
ENDBRANCH  30  31
ENDBRANCH   1  30
TORSDOF 9
ENDMDL
MODEL 2
REMARK VINA RESULT:      -7.9      3.338      6.249
REMARK  9 active torsions:
REMARK  status: ('A' for Active; 'I' for Inactive)
REMARK    1  A    between atoms: O1_2  and  C2_3 
REMARK    2  A    between atoms: C2_3  and  C3_4 
REMARK    3  A    between atoms: C7_10  and  N3_11 
REMARK    4  A    between atoms: N3_11  and  C8_12 
REMARK    5  A    between atoms: C15_21  and  O2_22 
REMARK    6  A    between atoms: O2_22  and  C16_23 
REMARK    7  A    between atoms: C16_23  and  C17_24 
REMARK    8  A    between atoms: C17_24  and  C18_25 
REMARK    9  A    between atoms: C18_25  and  N4_26 
ROOT
HETATM    1  C3  UNL     1      21.816   0.777  52.066  1.00  0.00    -0.021 A 
HETATM    2  C4  UNL     1      21.007   0.715  51.025  1.00  0.00     0.040 A 
HETATM    3  C5  UNL     1      21.683   1.451  49.969  1.00  0.00     0.071 A 
HETATM    4  N1  UNL     1      21.165   1.617  48.720  1.00  0.00    -0.241 NA
HETATM    5  C6  UNL     1      21.876   2.314  47.819  1.00  0.00     0.235 A 
HETATM    6  N2  UNL     1      23.057   2.807  48.201  1.00  0.00    -0.224 NA
HETATM    7  C7  UNL     1      23.606   2.671  49.413  1.00  0.00     0.141 A 
HETATM    8  C14 UNL     1      22.899   1.956  50.374  1.00  0.00     0.050 A 
HETATM    9  C15 UNL     1      23.079   1.559  51.773  1.00  0.00     0.192 A 
ENDROOT
BRANCH   7  10
HETATM   10  N3  UNL     1      24.865   3.212  49.771  1.00  0.00    -0.340 N 
HETATM   11  H8  UNL     1      25.417   2.695  50.494  1.00  0.00     0.167 HD
BRANCH  10  12
HETATM   12  C8  UNL     1      25.478   4.367  49.275  1.00  0.00     0.035 A 
HETATM   13  C9  UNL     1      24.874   5.566  48.968  1.00  0.00     0.032 A 
HETATM   14  C10 UNL     1      25.502   6.690  48.480  1.00  0.00     0.046 A 
HETATM   15  C11 UNL     1      26.863   6.636  48.268  1.00  0.00     0.138 A 
HETATM   16  F1  UNL     1      27.545   7.690  47.794  1.00  0.00    -0.204 F 
HETATM   17  C12 UNL     1      27.541   5.472  48.549  1.00  0.00     0.074 A 
HETATM   18 CL1  UNL     1      29.259   5.407  48.281  1.00  0.00    -0.081 Cl
HETATM   19  C13 UNL     1      26.854   4.398  49.031  1.00  0.00     0.056 A 
ENDBRANCH  10  12
ENDBRANCH   7  10
BRANCH   9  20
HETATM   20  O2  UNL     1      23.079   2.590  52.688  1.00  0.00    -0.376 OA
BRANCH  20  21
HETATM   21  C16 UNL     1      24.298   2.950  53.192  1.00  0.00     0.170 C 
BRANCH  21  22
HETATM   22  C17 UNL     1      25.283   1.807  53.247  1.00  0.00     0.056 C 
BRANCH  22  23
HETATM   23  C18 UNL     1      26.470   2.184  52.397  1.00  0.00     0.274 C 
BRANCH  23  24
HETATM   24  N4  UNL     1      27.608   1.318  52.648  1.00  0.00     0.092 N 
HETATM   25  C19 UNL     1      27.146  -0.025  52.452  1.00  0.00     0.298 C 
HETATM   26  C20 UNL     1      27.975  -1.070  53.133  1.00  0.00     0.198 C 
HETATM   27  O3  UNL     1      28.100  -0.714  54.488  1.00  0.00    -0.388 OA
HETATM   28  C21 UNL     1      28.970   0.401  54.478  1.00  0.00     0.198 C 
HETATM   29  C22 UNL     1      28.189   1.569  53.935  1.00  0.00     0.298 C 
ENDBRANCH  23  24
ENDBRANCH  22  23
ENDBRANCH  21  22
ENDBRANCH  20  21
ENDBRANCH   9  20
BRANCH   1  30
HETATM   30  C2  UNL     1      21.715   0.234  53.444  1.00  0.00     0.204 C 
BRANCH  30  31
HETATM   31  O1  UNL     1      22.739  -0.677  53.700  1.00  0.00    -0.392 OA
HETATM   32  C1  UNL     1      22.675  -1.209  54.964  1.00  0.00     0.201 C 
ENDBRANCH  30  31
ENDBRANCH   1  30
TORSDOF 9
ENDMDL
MODEL 3
REMARK VINA RESULT:      -7.9      2.361      6.248
REMARK  9 active torsions:
REMARK  status: ('A' for Active; 'I' for Inactive)
REMARK    1  A    between atoms: O1_2  and  C2_3 
REMARK    2  A    between atoms: C2_3  and  C3_4 
REMARK    3  A    between atoms: C7_10  and  N3_11 
REMARK    4  A    between atoms: N3_11  and  C8_12 
REMARK    5  A    between atoms: C15_21  and  O2_22 
REMARK    6  A    between atoms: O2_22  and  C16_23 
REMARK    7  A    between atoms: C16_23  and  C17_24 
REMARK    8  A    between atoms: C17_24  and  C18_25 
REMARK    9  A    between atoms: C18_25  and  N4_26 
ROOT
HETATM    1  C3  UNL     1      23.607   6.273  50.326  1.00  0.00    -0.021 A 
HETATM    2  C4  UNL     1      24.547   6.869  49.617  1.00  0.00     0.040 A 
HETATM    3  C5  UNL     1      25.587   5.869  49.442  1.00  0.00     0.071 A 
HETATM    4  N1  UNL     1      26.741   6.099  48.754  1.00  0.00    -0.241 NA
HETATM    5  C6  UNL     1      27.635   5.101  48.652  1.00  0.00     0.235 A 
HETATM    6  N2  UNL     1      27.340   3.936  49.232  1.00  0.00    -0.224 NA
HETATM    7  C7  UNL     1      26.224   3.663  49.917  1.00  0.00     0.141 A 
HETATM    8  C14 UNL     1      25.274   4.671  50.045  1.00  0.00     0.050 A 
HETATM    9  C15 UNL     1      23.961   4.843  50.672  1.00  0.00     0.192 A 
ENDROOT
BRANCH   7  10
HETATM   10  N3  UNL     1      25.956   2.408  50.516  1.00  0.00    -0.340 N 
HETATM   11  H8  UNL     1      25.136   1.871  50.149  1.00  0.00     0.167 HD
BRANCH  10  12
HETATM   12  C8  UNL     1      26.656   1.781  51.551  1.00  0.00     0.035 A 
HETATM   13  C9  UNL     1      27.437   2.380  52.513  1.00  0.00     0.032 A 
HETATM   14  C10 UNL     1      28.118   1.737  53.523  1.00  0.00     0.046 A 
HETATM   15  C11 UNL     1      28.026   0.364  53.599  1.00  0.00     0.138 A 
HETATM   16  F1  UNL     1      28.661  -0.332  54.555  1.00  0.00    -0.204 F 
HETATM   17  C12 UNL     1      27.265  -0.311  52.673  1.00  0.00     0.074 A 
HETATM   18 CL1  UNL     1      27.151  -2.044  52.773  1.00  0.00    -0.081 Cl
HETATM   19  C13 UNL     1      26.618   0.391  51.701  1.00  0.00     0.056 A 
ENDBRANCH  10  12
ENDBRANCH   7  10
BRANCH   9  20
HETATM   20  O2  UNL     1      23.948   4.797  52.050  1.00  0.00    -0.376 OA
BRANCH  20  21
HETATM   21  C16 UNL     1      23.432   3.662  52.611  1.00  0.00     0.170 C 
BRANCH  21  22
HETATM   22  C17 UNL     1      22.552   2.876  51.669  1.00  0.00     0.056 C 
BRANCH  22  23
HETATM   23  C18 UNL     1      22.858   1.413  51.871  1.00  0.00     0.274 C 
BRANCH  23  24
HETATM   24  N4  UNL     1      22.602   0.993  53.237  1.00  0.00     0.092 N 
HETATM   25  C19 UNL     1      23.379  -0.192  53.449  1.00  0.00     0.298 C 
HETATM   26  C20 UNL     1      22.893  -1.058  54.571  1.00  0.00     0.198 C 
HETATM   27  O3  UNL     1      21.526  -1.315  54.363  1.00  0.00    -0.388 OA
HETATM   28  C21 UNL     1      20.892  -0.082  54.638  1.00  0.00     0.198 C 
HETATM   29  C22 UNL     1      21.199   0.841  53.488  1.00  0.00     0.298 C 
ENDBRANCH  23  24
ENDBRANCH  22  23
ENDBRANCH  21  22
ENDBRANCH  20  21
ENDBRANCH   9  20
BRANCH   1  30
HETATM   30  C2  UNL     1      22.295   6.741  50.839  1.00  0.00     0.204 C 
BRANCH  30  31
HETATM   31  O1  UNL     1      21.946   7.970  50.281  1.00  0.00    -0.392 OA
HETATM   32  C1  UNL     1      20.639   8.014  49.864  1.00  0.00     0.201 C 
ENDBRANCH  30  31
ENDBRANCH   1  30
TORSDOF 9
ENDMDL
MODEL 4
REMARK VINA RESULT:      -7.7      3.354      6.029
REMARK  9 active torsions:
REMARK  status: ('A' for Active; 'I' for Inactive)
REMARK    1  A    between atoms: O1_2  and  C2_3 
REMARK    2  A    between atoms: C2_3  and  C3_4 
REMARK    3  A    between atoms: C7_10  and  N3_11 
REMARK    4  A    between atoms: N3_11  and  C8_12 
REMARK    5  A    between atoms: C15_21  and  O2_22 
REMARK    6  A    between atoms: O2_22  and  C16_23 
REMARK    7  A    between atoms: C16_23  and  C17_24 
REMARK    8  A    between atoms: C17_24  and  C18_25 
REMARK    9  A    between atoms: C18_25  and  N4_26 
ROOT
HETATM    1  C3  UNL     1      21.774   0.296  53.009  1.00  0.00    -0.021 A 
HETATM    2  C4  UNL     1      20.780   1.099  53.339  1.00  0.00     0.040 A 
HETATM    3  C5  UNL     1      20.818   2.176  52.364  1.00  0.00     0.071 A 
HETATM    4  N1  UNL     1      19.941   3.218  52.363  1.00  0.00    -0.241 NA
HETATM    5  C6  UNL     1      20.066   4.160  51.413  1.00  0.00     0.235 A 
HETATM    6  N2  UNL     1      21.048   4.019  50.518  1.00  0.00    -0.224 NA
HETATM    7  C7  UNL     1      21.932   3.016  50.479  1.00  0.00     0.141 A 
HETATM    8  C14 UNL     1      21.835   2.022  51.447  1.00  0.00     0.050 A 
HETATM    9  C15 UNL     1      22.539   0.786  51.799  1.00  0.00     0.192 A 
ENDROOT
BRANCH   7  10
HETATM   10  N3  UNL     1      22.957   2.910  49.508  1.00  0.00    -0.340 N 
HETATM   11  H8  UNL     1      22.895   2.111  48.836  1.00  0.00     0.167 HD
BRANCH  10  12
HETATM   12  C8  UNL     1      24.061   3.749  49.327  1.00  0.00     0.035 A 
HETATM   13  C9  UNL     1      25.387   3.441  49.540  1.00  0.00     0.032 A 
HETATM   14  C10 UNL     1      26.457   4.288  49.355  1.00  0.00     0.046 A 
HETATM   15  C11 UNL     1      26.205   5.569  48.915  1.00  0.00     0.138 A 
HETATM   16  F1  UNL     1      27.196   6.452  48.711  1.00  0.00    -0.204 F 
HETATM   17  C12 UNL     1      24.905   5.956  48.680  1.00  0.00     0.074 A 
HETATM   18 CL1  UNL     1      24.591   7.575  48.125  1.00  0.00    -0.081 Cl
HETATM   19  C13 UNL     1      23.896   5.064  48.885  1.00  0.00     0.056 A 
ENDBRANCH  10  12
ENDBRANCH   7  10
BRANCH   9  20
HETATM   20  O2  UNL     1      23.836   0.945  52.239  1.00  0.00    -0.376 OA
BRANCH  20  21
HETATM   21  C16 UNL     1      24.084   2.054  53.000  1.00  0.00     0.170 C 
BRANCH  21  22
HETATM   22  C17 UNL     1      25.513   2.141  53.482  1.00  0.00     0.056 C 
BRANCH  22  23
HETATM   23  C18 UNL     1      26.411   1.983  52.280  1.00  0.00     0.274 C 
BRANCH  23  24
HETATM   24  N4  UNL     1      27.618   1.245  52.605  1.00  0.00     0.092 N 
HETATM   25  C19 UNL     1      27.255  -0.142  52.612  1.00  0.00     0.298 C 
HETATM   26  C20 UNL     1      28.180  -1.020  53.398  1.00  0.00     0.198 C 
HETATM   27  O3  UNL     1      28.314  -0.470  54.686  1.00  0.00    -0.388 OA
HETATM   28  C21 UNL     1      29.095   0.692  54.491  1.00  0.00     0.198 C 
HETATM   29  C22 UNL     1      28.212   1.713  53.823  1.00  0.00     0.298 C 
ENDBRANCH  23  24
ENDBRANCH  22  23
ENDBRANCH  21  22
ENDBRANCH  20  21
ENDBRANCH   9  20
BRANCH   1  30
HETATM   30  C2  UNL     1      22.271  -0.973  53.599  1.00  0.00     0.204 C 
BRANCH  30  31
HETATM   31  O1  UNL     1      22.263  -0.917  54.992  1.00  0.00    -0.392 OA
HETATM   32  C1  UNL     1      23.447  -1.332  55.549  1.00  0.00     0.201 C 
ENDBRANCH  30  31
ENDBRANCH   1  30
TORSDOF 9
ENDMDL
MODEL 5
REMARK VINA RESULT:      -7.6      3.075      6.404
REMARK  9 active torsions:
REMARK  status: ('A' for Active; 'I' for Inactive)
REMARK    1  A    between atoms: O1_2  and  C2_3 
REMARK    2  A    between atoms: C2_3  and  C3_4 
REMARK    3  A    between atoms: C7_10  and  N3_11 
REMARK    4  A    between atoms: N3_11  and  C8_12 
REMARK    5  A    between atoms: C15_21  and  O2_22 
REMARK    6  A    between atoms: O2_22  and  C16_23 
REMARK    7  A    between atoms: C16_23  and  C17_24 
REMARK    8  A    between atoms: C17_24  and  C18_25 
REMARK    9  A    between atoms: C18_25  and  N4_26 
ROOT
HETATM    1  C3  UNL     1      23.841   4.566  49.686  1.00  0.00    -0.021 A 
HETATM    2  C4  UNL     1      23.218   4.296  48.554  1.00  0.00     0.040 A 
HETATM    3  C5  UNL     1      22.061   3.502  48.934  1.00  0.00     0.071 A 
HETATM    4  N1  UNL     1      21.153   3.022  48.038  1.00  0.00    -0.241 NA
HETATM    5  C6  UNL     1      20.119   2.299  48.499  1.00  0.00     0.235 A 
HETATM    6  N2  UNL     1      20.038   2.092  49.815  1.00  0.00    -0.224 NA
HETATM    7  C7  UNL     1      20.903   2.541  50.732  1.00  0.00     0.141 A 
HETATM    8  C14 UNL     1      21.988   3.293  50.294  1.00  0.00     0.050 A 
HETATM    9  C15 UNL     1      23.144   3.967  50.889  1.00  0.00     0.192 A 
ENDROOT
BRANCH   7  10
HETATM   10  N3  UNL     1      20.774   2.295  52.121  1.00  0.00    -0.340 N 
HETATM   11  H8  UNL     1      20.498   3.104  52.724  1.00  0.00     0.167 HD
BRANCH  10  12
HETATM   12  C8  UNL     1      20.971   1.091  52.804  1.00  0.00     0.035 A 
HETATM   13  C9  UNL     1      20.021   0.144  53.117  1.00  0.00     0.032 A 
HETATM   14  C10 UNL     1      20.241  -1.035  53.793  1.00  0.00     0.046 A 
HETATM   15  C11 UNL     1      21.525  -1.319  54.206  1.00  0.00     0.138 A 
HETATM   16  F1  UNL     1      21.818  -2.448  54.870  1.00  0.00    -0.204 F 
HETATM   17  C12 UNL     1      22.532  -0.422  53.933  1.00  0.00     0.074 A 
HETATM   18 CL1  UNL     1      24.152  -0.784  54.457  1.00  0.00    -0.081 Cl
HETATM   19  C13 UNL     1      22.241   0.726  53.259  1.00  0.00     0.056 A 
ENDBRANCH  10  12
ENDBRANCH   7  10
BRANCH   9  20
HETATM   20  O2  UNL     1      24.083   3.139  51.467  1.00  0.00    -0.376 OA
BRANCH  20  21
HETATM   21  C16 UNL     1      24.265   3.281  52.815  1.00  0.00     0.170 C 
BRANCH  21  22
HETATM   22  C17 UNL     1      25.442   2.497  53.345  1.00  0.00     0.056 C 
BRANCH  22  23
HETATM   23  C18 UNL     1      25.891   1.554  52.257  1.00  0.00     0.274 C 
BRANCH  23  24
HETATM   24  N4  UNL     1      27.220   1.030  52.514  1.00  0.00     0.092 N 
HETATM   25  C19 UNL     1      27.106  -0.399  52.478  1.00  0.00     0.298 C 
HETATM   26  C20 UNL     1      28.200  -1.125  53.200  1.00  0.00     0.198 C 
HETATM   27  O3  UNL     1      28.283  -0.604  54.504  1.00  0.00    -0.388 OA
HETATM   28  C21 UNL     1      28.841   0.685  54.331  1.00  0.00     0.198 C 
HETATM   29  C22 UNL     1      27.768   1.555  53.731  1.00  0.00     0.298 C 
ENDBRANCH  23  24
ENDBRANCH  22  23
ENDBRANCH  21  22
ENDBRANCH  20  21
ENDBRANCH   9  20
BRANCH   1  30
HETATM   30  C2  UNL     1      25.077   5.331  49.988  1.00  0.00     0.204 C 
BRANCH  30  31
HETATM   31  O1  UNL     1      26.070   5.072  49.044  1.00  0.00    -0.392 OA
HETATM   32  C1  UNL     1      26.826   3.969  49.354  1.00  0.00     0.201 C 
ENDBRANCH  30  31
ENDBRANCH   1  30
TORSDOF 9
ENDMDL
MODEL 6
REMARK VINA RESULT:      -7.4      3.540      5.890
REMARK  9 active torsions:
REMARK  status: ('A' for Active; 'I' for Inactive)
REMARK    1  A    between atoms: O1_2  and  C2_3 
REMARK    2  A    between atoms: C2_3  and  C3_4 
REMARK    3  A    between atoms: C7_10  and  N3_11 
REMARK    4  A    between atoms: N3_11  and  C8_12 
REMARK    5  A    between atoms: C15_21  and  O2_22 
REMARK    6  A    between atoms: O2_22  and  C16_23 
REMARK    7  A    between atoms: C16_23  and  C17_24 
REMARK    8  A    between atoms: C17_24  and  C18_25 
REMARK    9  A    between atoms: C18_25  and  N4_26 
ROOT
HETATM    1  C3  UNL     1      25.610  -0.402  53.978  1.00  0.00    -0.021 A 
HETATM    2  C4  UNL     1      24.904  -1.003  54.917  1.00  0.00     0.040 A 
HETATM    3  C5  UNL     1      23.523  -0.925  54.469  1.00  0.00     0.071 A 
HETATM    4  N1  UNL     1      22.476  -1.439  55.171  1.00  0.00    -0.241 NA
HETATM    5  C6  UNL     1      21.239  -1.313  54.662  1.00  0.00     0.235 A 
HETATM    6  N2  UNL     1      21.107  -0.688  53.489  1.00  0.00    -0.224 NA
HETATM    7  C7  UNL     1      22.103  -0.167  52.764  1.00  0.00     0.141 A 
HETATM    8  C14 UNL     1      23.398  -0.277  53.259  1.00  0.00     0.050 A 
HETATM    9  C15 UNL     1      24.748   0.117  52.847  1.00  0.00     0.192 A 
ENDROOT
BRANCH   7  10
HETATM   10  N3  UNL     1      21.912   0.488  51.523  1.00  0.00    -0.340 N 
HETATM   11  H8  UNL     1      22.070  -0.078  50.657  1.00  0.00     0.167 HD
BRANCH  10  12
HETATM   12  C8  UNL     1      21.533   1.815  51.299  1.00  0.00     0.035 A 
HETATM   13  C9  UNL     1      20.951   2.680  52.199  1.00  0.00     0.032 A 
HETATM   14  C10 UNL     1      20.585   3.984  51.951  1.00  0.00     0.046 A 
HETATM   15  C11 UNL     1      20.812   4.497  50.692  1.00  0.00     0.138 A 
HETATM   16  F1  UNL     1      20.483   5.759  50.375  1.00  0.00    -0.204 F 
HETATM   17  C12 UNL     1      21.389   3.695  49.734  1.00  0.00     0.074 A 
HETATM   18 CL1  UNL     1      21.674   4.345  48.146  1.00  0.00    -0.081 Cl
HETATM   19  C13 UNL     1      21.726   2.413  50.050  1.00  0.00     0.056 A 
ENDBRANCH  10  12
ENDBRANCH   7  10
BRANCH   9  20
HETATM   20  O2  UNL     1      24.986   1.475  52.813  1.00  0.00    -0.376 OA
BRANCH  20  21
HETATM   21  C16 UNL     1      25.181   2.023  51.576  1.00  0.00     0.170 C 
BRANCH  21  22
HETATM   22  C17 UNL     1      24.801   3.482  51.502  1.00  0.00     0.056 C 
BRANCH  22  23
HETATM   23  C18 UNL     1      25.214   3.995  50.144  1.00  0.00     0.274 C 
BRANCH  23  24
HETATM   24  N4  UNL     1      25.150   5.443  50.074  1.00  0.00     0.092 N 
HETATM   25  C19 UNL     1      24.179   5.854  51.046  1.00  0.00     0.298 C 
HETATM   26  C20 UNL     1      23.594   7.210  50.800  1.00  0.00     0.198 C 
HETATM   27  O3  UNL     1      23.112   7.246  49.479  1.00  0.00    -0.388 OA
HETATM   28  C21 UNL     1      24.280   7.273  48.682  1.00  0.00     0.198 C 
HETATM   29  C22 UNL     1      24.888   5.896  48.739  1.00  0.00     0.298 C 
ENDBRANCH  23  24
ENDBRANCH  22  23
ENDBRANCH  21  22
ENDBRANCH  20  21
ENDBRANCH   9  20
BRANCH   1  30
HETATM   30  C2  UNL     1      27.065  -0.144  53.832  1.00  0.00     0.204 C 
BRANCH  30  31
HETATM   31  O1  UNL     1      27.544   0.637  54.883  1.00  0.00    -0.392 OA
HETATM   32  C1  UNL     1      28.857   1.001  54.720  1.00  0.00     0.201 C 
ENDBRANCH  30  31
ENDBRANCH   1  30
TORSDOF 9
ENDMDL
MODEL 7
REMARK VINA RESULT:      -7.4      2.674      4.006
REMARK  9 active torsions:
REMARK  status: ('A' for Active; 'I' for Inactive)
REMARK    1  A    between atoms: O1_2  and  C2_3 
REMARK    2  A    between atoms: C2_3  and  C3_4 
REMARK    3  A    between atoms: C7_10  and  N3_11 
REMARK    4  A    between atoms: N3_11  and  C8_12 
REMARK    5  A    between atoms: C15_21  and  O2_22 
REMARK    6  A    between atoms: O2_22  and  C16_23 
REMARK    7  A    between atoms: C16_23  and  C17_24 
REMARK    8  A    between atoms: C17_24  and  C18_25 
REMARK    9  A    between atoms: C18_25  and  N4_26 
ROOT
HETATM    1  C3  UNL     1      22.819   3.761  49.537  1.00  0.00    -0.021 A 
HETATM    2  C4  UNL     1      21.858   3.044  50.091  1.00  0.00     0.040 A 
HETATM    3  C5  UNL     1      22.473   2.403  51.242  1.00  0.00     0.071 A 
HETATM    4  N1  UNL     1      21.801   1.571  52.085  1.00  0.00    -0.241 NA
HETATM    5  C6  UNL     1      22.467   1.034  53.121  1.00  0.00     0.235 A 
HETATM    6  N2  UNL     1      23.756   1.349  53.266  1.00  0.00    -0.224 NA
HETATM    7  C7  UNL     1      24.458   2.160  52.466  1.00  0.00     0.141 A 
HETATM    8  C14 UNL     1      23.803   2.735  51.382  1.00  0.00     0.050 A 
HETATM    9  C15 UNL     1      24.132   3.642  50.280  1.00  0.00     0.192 A 
ENDROOT
BRANCH   7  10
HETATM   10  N3  UNL     1      25.827   2.465  52.662  1.00  0.00    -0.340 N 
HETATM   11  H8  UNL     1      26.107   3.469  52.574  1.00  0.00     0.167 HD
BRANCH  10  12
HETATM   12  C8  UNL     1      26.871   1.585  52.964  1.00  0.00     0.035 A 
HETATM   13  C9  UNL     1      28.094   1.899  53.514  1.00  0.00     0.032 A 
HETATM   14  C10 UNL     1      29.107   1.011  53.801  1.00  0.00     0.046 A 
HETATM   15  C11 UNL     1      28.902  -0.323  53.520  1.00  0.00     0.138 A 
HETATM   16  F1  UNL     1      29.842  -1.248  53.772  1.00  0.00    -0.204 F 
HETATM   17  C12 UNL     1      27.705  -0.718  52.968  1.00  0.00     0.074 A 
HETATM   18 CL1  UNL     1      27.451  -2.403  52.616  1.00  0.00    -0.081 Cl
HETATM   19  C13 UNL     1      26.748   0.216  52.711  1.00  0.00     0.056 A 
ENDBRANCH  10  12
ENDBRANCH   7  10
BRANCH   9  20
HETATM   20  O2  UNL     1      25.023   3.149  49.349  1.00  0.00    -0.376 OA
BRANCH  20  21
HETATM   21  C16 UNL     1      26.321   3.559  49.480  1.00  0.00     0.170 C 
BRANCH  21  22
HETATM   22  C17 UNL     1      26.540   4.992  49.059  1.00  0.00     0.056 C 
BRANCH  22  23
HETATM   23  C18 UNL     1      27.940   5.098  48.506  1.00  0.00     0.274 C 
BRANCH  23  24
HETATM   24  N4  UNL     1      28.235   6.441  48.043  1.00  0.00     0.092 N 
HETATM   25  C19 UNL     1      29.659   6.589  48.108  1.00  0.00     0.298 C 
HETATM   26  C20 UNL     1      30.132   8.009  48.168  1.00  0.00     0.198 C 
HETATM   27  O3  UNL     1      29.456   8.650  49.222  1.00  0.00    -0.388 OA
HETATM   28  C21 UNL     1      28.130   8.794  48.751  1.00  0.00     0.198 C 
HETATM   29  C22 UNL     1      27.498   7.427  48.780  1.00  0.00     0.298 C 
ENDBRANCH  23  24
ENDBRANCH  22  23
ENDBRANCH  21  22
ENDBRANCH  20  21
ENDBRANCH   9  20
BRANCH   1  30
HETATM   30  C2  UNL     1      22.846   4.641  48.343  1.00  0.00     0.204 C 
BRANCH  30  31
HETATM   31  O1  UNL     1      21.727   4.430  47.537  1.00  0.00    -0.392 OA
HETATM   32  C1  UNL     1      21.940   3.481  46.569  1.00  0.00     0.201 C 
ENDBRANCH  30  31
ENDBRANCH   1  30
TORSDOF 9
ENDMDL
MODEL 8
REMARK VINA RESULT:      -7.2      3.440      6.548
REMARK  9 active torsions:
REMARK  status: ('A' for Active; 'I' for Inactive)
REMARK    1  A    between atoms: O1_2  and  C2_3 
REMARK    2  A    between atoms: C2_3  and  C3_4 
REMARK    3  A    between atoms: C7_10  and  N3_11 
REMARK    4  A    between atoms: N3_11  and  C8_12 
REMARK    5  A    between atoms: C15_21  and  O2_22 
REMARK    6  A    between atoms: O2_22  and  C16_23 
REMARK    7  A    between atoms: C16_23  and  C17_24 
REMARK    8  A    between atoms: C17_24  and  C18_25 
REMARK    9  A    between atoms: C18_25  and  N4_26 
ROOT
HETATM    1  C3  UNL     1      21.360   2.747  51.546  1.00  0.00    -0.021 A 
HETATM    2  C4  UNL     1      20.431   3.567  51.092  1.00  0.00     0.040 A 
HETATM    3  C5  UNL     1      21.129   4.802  50.778  1.00  0.00     0.071 A 
HETATM    4  N1  UNL     1      20.511   5.907  50.276  1.00  0.00    -0.241 NA
HETATM    5  C6  UNL     1      21.254   6.997  50.021  1.00  0.00     0.235 A 
HETATM    6  N2  UNL     1      22.564   6.934  50.273  1.00  0.00    -0.224 NA
HETATM    7  C7  UNL     1      23.215   5.873  50.765  1.00  0.00     0.141 A 
HETATM    8  C14 UNL     1      22.479   4.727  51.043  1.00  0.00     0.050 A 
HETATM    9  C15 UNL     1      22.733   3.382  51.568  1.00  0.00     0.192 A 
ENDROOT
BRANCH   7  10
HETATM   10  N3  UNL     1      24.609   5.855  51.016  1.00  0.00    -0.340 N 
HETATM   11  H8  UNL     1      24.911   5.740  52.010  1.00  0.00     0.167 HD
BRANCH  10  12
HETATM   12  C8  UNL     1      25.652   5.971  50.092  1.00  0.00     0.035 A 
HETATM   13  C9  UNL     1      26.348   4.949  49.486  1.00  0.00     0.032 A 
HETATM   14  C10 UNL     1      27.374   5.091  48.579  1.00  0.00     0.046 A 
HETATM   15  C11 UNL     1      27.759   6.366  48.226  1.00  0.00     0.138 A 
HETATM   16  F1  UNL     1      28.751   6.586  47.348  1.00  0.00    -0.204 F 
HETATM   17  C12 UNL     1      27.113   7.443  48.788  1.00  0.00     0.074 A 
HETATM   18 CL1  UNL     1      27.602   9.052  48.341  1.00  0.00    -0.081 Cl
HETATM   19  C13 UNL     1      26.106   7.227  49.680  1.00  0.00     0.056 A 
ENDBRANCH  10  12
ENDBRANCH   7  10
BRANCH   9  20
HETATM   20  O2  UNL     1      23.131   3.324  52.887  1.00  0.00    -0.376 OA
BRANCH  20  21
HETATM   21  C16 UNL     1      24.434   2.974  53.110  1.00  0.00     0.170 C 
BRANCH  21  22
HETATM   22  C17 UNL     1      24.992   2.046  52.058  1.00  0.00     0.056 C 
BRANCH  22  23
HETATM   23  C18 UNL     1      26.473   2.310  51.954  1.00  0.00     0.274 C 
BRANCH  23  24
HETATM   24  N4  UNL     1      27.251   1.108  52.191  1.00  0.00     0.092 N 
HETATM   25  C19 UNL     1      26.325   0.014  52.168  1.00  0.00     0.298 C 
HETATM   26  C20 UNL     1      26.803  -1.217  52.875  1.00  0.00     0.198 C 
HETATM   27  O3  UNL     1      27.201  -0.848  54.173  1.00  0.00    -0.388 OA
HETATM   28  C21 UNL     1      28.402  -0.127  53.979  1.00  0.00     0.198 C 
HETATM   29  C22 UNL     1      28.027   1.209  53.392  1.00  0.00     0.298 C 
ENDBRANCH  23  24
ENDBRANCH  22  23
ENDBRANCH  21  22
ENDBRANCH  20  21
ENDBRANCH   9  20
BRANCH   1  30
HETATM   30  C2  UNL     1      21.305   1.345  52.032  1.00  0.00     0.204 C 
BRANCH  30  31
HETATM   31  O1  UNL     1      20.333   1.195  53.020  1.00  0.00    -0.392 OA
HETATM   32  C1  UNL     1      20.238  -0.095  53.482  1.00  0.00     0.201 C 
ENDBRANCH  30  31
ENDBRANCH   1  30
TORSDOF 9
ENDMDL
MODEL 9
REMARK VINA RESULT:      -7.2      3.519      6.250
REMARK  9 active torsions:
REMARK  status: ('A' for Active; 'I' for Inactive)
REMARK    1  A    between atoms: O1_2  and  C2_3 
REMARK    2  A    between atoms: C2_3  and  C3_4 
REMARK    3  A    between atoms: C7_10  and  N3_11 
REMARK    4  A    between atoms: N3_11  and  C8_12 
REMARK    5  A    between atoms: C15_21  and  O2_22 
REMARK    6  A    between atoms: O2_22  and  C16_23 
REMARK    7  A    between atoms: C16_23  and  C17_24 
REMARK    8  A    between atoms: C17_24  and  C18_25 
REMARK    9  A    between atoms: C18_25  and  N4_26 
ROOT
HETATM    1  C3  UNL     1      24.644   7.465  50.308  1.00  0.00    -0.021 A 
HETATM    2  C4  UNL     1      23.393   7.471  50.727  1.00  0.00     0.040 A 
HETATM    3  C5  UNL     1      23.079   6.082  51.020  1.00  0.00     0.071 A 
HETATM    4  N1  UNL     1      21.868   5.668  51.485  1.00  0.00    -0.241 NA
HETATM    5  C6  UNL     1      21.687   4.359  51.725  1.00  0.00     0.235 A 
HETATM    6  N2  UNL     1      22.711   3.533  51.495  1.00  0.00    -0.224 NA
HETATM    7  C7  UNL     1      23.917   3.892  51.040  1.00  0.00     0.141 A 
HETATM    8  C14 UNL     1      24.142   5.240  50.779  1.00  0.00     0.050 A 
HETATM    9  C15 UNL     1      25.243   6.075  50.292  1.00  0.00     0.192 A 
ENDROOT
BRANCH   7  10
HETATM   10  N3  UNL     1      24.974   2.978  50.811  1.00  0.00    -0.340 N 
HETATM   11  H8  UNL     1      25.241   2.798  49.816  1.00  0.00     0.167 HD
BRANCH  10  12
HETATM   12  C8  UNL     1      25.723   2.273  51.759  1.00  0.00     0.035 A 
HETATM   13  C9  UNL     1      27.064   2.415  52.038  1.00  0.00     0.032 A 
HETATM   14  C10 UNL     1      27.778   1.705  52.977  1.00  0.00     0.046 A 
HETATM   15  C11 UNL     1      27.111   0.756  53.722  1.00  0.00     0.138 A 
HETATM   16  F1  UNL     1      27.739   0.025  54.656  1.00  0.00    -0.204 F 
HETATM   17  C12 UNL     1      25.768   0.552  53.503  1.00  0.00     0.074 A 
HETATM   18 CL1  UNL     1      24.930  -0.647  54.445  1.00  0.00    -0.081 Cl
HETATM   19  C13 UNL     1      25.125   1.292  52.556  1.00  0.00     0.056 A 
ENDBRANCH  10  12
ENDBRANCH   7  10
BRANCH   9  20
HETATM   20  O2  UNL     1      25.616   5.864  48.981  1.00  0.00    -0.376 OA
BRANCH  20  21
HETATM   21  C16 UNL     1      26.812   5.231  48.788  1.00  0.00     0.170 C 
BRANCH  21  22
HETATM   22  C17 UNL     1      27.878   6.130  48.209  1.00  0.00     0.056 C 
BRANCH  22  23
HETATM   23  C18 UNL     1      29.183   5.375  48.245  1.00  0.00     0.274 C 
BRANCH  23  24
HETATM   24  N4  UNL     1      30.316   6.249  48.002  1.00  0.00     0.092 N 
HETATM   25  C19 UNL     1      31.261   5.990  49.048  1.00  0.00     0.298 C 
HETATM   26  C20 UNL     1      32.239   7.099  49.287  1.00  0.00     0.198 C 
HETATM   27  O3  UNL     1      31.514   8.290  49.471  1.00  0.00    -0.388 OA
HETATM   28  C21 UNL     1      31.017   8.599  48.184  1.00  0.00     0.198 C 
HETATM   29  C22 UNL     1      29.911   7.620  47.888  1.00  0.00     0.298 C 
ENDBRANCH  23  24
ENDBRANCH  22  23
ENDBRANCH  21  22
ENDBRANCH  20  21
ENDBRANCH   9  20
BRANCH   1  30
HETATM   30  C2  UNL     1      25.552   8.549  49.856  1.00  0.00     0.204 C 
BRANCH  30  31
HETATM   31  O1  UNL     1      26.768   8.502  50.538  1.00  0.00    -0.392 OA
HETATM   32  C1  UNL     1      27.667   9.435  50.086  1.00  0.00     0.201 C 
ENDBRANCH  30  31
ENDBRANCH   1  30
TORSDOF 9
ENDMDL
