MODEL 1
REMARK VINA RESULT:      -8.2      0.000      0.000
REMARK  2 active torsions:
REMARK  status: ('A' for Active; 'I' for Inactive)
REMARK    1  A    between atoms: C3_3  and  C4_4 
REMARK       I    between atoms: C4_4  and  N1_6 
REMARK    2  A    between atoms: N1_6  and  C5_7 
ROOT
HETATM    1  C1  UNL     1      30.163  -1.493  53.826  1.00  0.00     0.112 C 
HETATM    2  C2  UNL     1      29.125  -0.469  53.794  1.00  0.00    -0.101 C 
HETATM    3  C3  UNL     1      28.238   0.382  53.753  1.00  0.00    -0.006 C 
ENDROOT
BRANCH   3   4
HETATM    4  C4  UNL     1      27.196   1.384  53.681  1.00  0.00     0.297 C 
HETATM    5  O1  UNL     1      27.480   2.516  54.168  1.00  0.00    -0.258 OA
HETATM    6  N1  UNL     1      25.974   0.988  53.072  1.00  0.00    -0.339 N 
HETATM    7  H4  UNL     1      25.869   0.013  52.704  1.00  0.00     0.164 HD
BRANCH   6   8
HETATM    8  C5  UNL     1      24.751   1.791  52.861  1.00  0.00     0.133 C 
HETATM    9  C6  UNL     1      24.645   2.115  51.415  1.00  0.00     0.021 C 
HETATM   10  C7  UNL     1      25.258   3.195  50.859  1.00  0.00     0.115 C 
HETATM   11  N2  UNL     1      24.819   3.002  49.482  1.00  0.00    -0.260 NA
HETATM   12  C8  UNL     1      23.558   3.341  49.278  1.00  0.00     0.078 C 
HETATM   13  C9  UNL     1      23.156   3.805  50.646  1.00  0.00     0.033 C 
HETATM   14  C18 UNL     1      22.584   3.317  48.195  1.00  0.00     0.088 C 
HETATM   15  C10 UNL     1      22.147   3.472  51.492  1.00  0.00     0.005 C 
HETATM   16  C11 UNL     1      20.936   2.689  51.145  1.00  0.00     0.029 C 
HETATM   17  C12 UNL     1      20.827   1.546  50.403  1.00  0.00     0.033 C 
HETATM   18  C13 UNL     1      20.515   0.688  51.553  1.00  0.00     0.048 C 
HETATM   19  N3  UNL     1      21.001   1.474  48.966  1.00  0.00    -0.364 N 
HETATM   20  C14 UNL     1      21.198   0.394  52.608  1.00  0.00     0.013 C 
HETATM   21 BR1  UNL     1      19.820  -0.742  53.335  1.00  0.00    -0.051 Br
HETATM   22  C15 UNL     1      22.382   0.458  53.420  1.00  0.00     0.017 C 
HETATM   23  C16 UNL     1      23.613   1.015  53.375  1.00  0.00     0.004 C 
HETATM   24  C17 UNL     1      21.920   2.140  48.055  1.00  0.00     0.113 C 
HETATM   25  H14 UNL     1      20.340   0.827  48.493  1.00  0.00     0.165 HD
HETATM   26  C19 UNL     1      22.362   4.447  47.381  1.00  0.00     0.103 C 
HETATM   27  N4  UNL     1      22.175   5.367  46.733  1.00  0.00    -0.191 NA
ENDBRANCH   6   8
ENDBRANCH   3   4
TORSDOF 2
ENDMDL
MODEL 2
REMARK VINA RESULT:      -7.7      1.869      2.152
REMARK  2 active torsions:
REMARK  status: ('A' for Active; 'I' for Inactive)
REMARK    1  A    between atoms: C3_3  and  C4_4 
REMARK       I    between atoms: C4_4  and  N1_6 
REMARK    2  A    between atoms: N1_6  and  C5_7 
ROOT
HETATM    1  C1  UNL     1      28.288  -2.187  52.938  1.00  0.00     0.112 C 
HETATM    2  C2  UNL     1      27.240  -1.186  53.093  1.00  0.00    -0.101 C 
HETATM    3  C3  UNL     1      26.360  -0.333  53.203  1.00  0.00    -0.006 C 
ENDROOT
BRANCH   3   4
HETATM    4  C4  UNL     1      25.341   0.686  53.327  1.00  0.00     0.297 C 
HETATM    5  O1  UNL     1      25.731   1.813  53.749  1.00  0.00    -0.258 OA
HETATM    6  N1  UNL     1      24.020   0.312  52.962  1.00  0.00    -0.339 N 
HETATM    7  H4  UNL     1      23.830  -0.660  52.623  1.00  0.00     0.164 HD
BRANCH   6   8
HETATM    8  C5  UNL     1      22.792   1.137  52.984  1.00  0.00     0.133 C 
HETATM    9  C6  UNL     1      22.616   1.753  51.644  1.00  0.00     0.021 C 
HETATM   10  C7  UNL     1      23.207   2.928  51.294  1.00  0.00     0.115 C 
HETATM   11  N2  UNL     1      22.699   3.023  49.931  1.00  0.00    -0.260 NA
HETATM   12  C8  UNL     1      21.432   3.392  49.865  1.00  0.00     0.078 C 
HETATM   13  C9  UNL     1      21.102   3.560  51.318  1.00  0.00     0.033 C 
HETATM   14  C18 UNL     1      20.405   3.589  48.852  1.00  0.00     0.088 C 
HETATM   15  C10 UNL     1      20.134   3.054  52.126  1.00  0.00     0.005 C 
HETATM   16  C11 UNL     1      18.902   2.355  51.686  1.00  0.00     0.029 C 
HETATM   17  C12 UNL     1      18.749   1.391  50.729  1.00  0.00     0.033 C 
HETATM   18  C13 UNL     1      18.490   0.311  51.689  1.00  0.00     0.048 C 
HETATM   19  N3  UNL     1      18.851   1.620  49.301  1.00  0.00    -0.364 N 
HETATM   20  C14 UNL     1      19.222  -0.192  52.624  1.00  0.00     0.013 C 
HETATM   21 BR1  UNL     1      17.875  -1.461  53.168  1.00  0.00    -0.051 Br
HETATM   22  C15 UNL     1      20.446  -0.294  53.371  1.00  0.00     0.017 C 
HETATM   23  C16 UNL     1      21.677   0.266  53.382  1.00  0.00     0.004 C 
HETATM   24  C17 UNL     1      19.727   2.465  48.503  1.00  0.00     0.113 C 
HETATM   25  H14 UNL     1      18.162   1.083  48.738  1.00  0.00     0.165 HD
HETATM   26  C19 UNL     1      20.150   4.863  48.302  1.00  0.00     0.103 C 
HETATM   27  N4  UNL     1      19.936   5.897  47.870  1.00  0.00    -0.191 NA
ENDBRANCH   6   8
ENDBRANCH   3   4
TORSDOF 2
ENDMDL
MODEL 3
REMARK VINA RESULT:      -7.3      6.727      8.754
REMARK  2 active torsions:
REMARK  status: ('A' for Active; 'I' for Inactive)
REMARK    1  A    between atoms: C3_3  and  C4_4 
REMARK       I    between atoms: C4_4  and  N1_6 
REMARK    2  A    between atoms: N1_6  and  C5_7 
ROOT
HETATM    1  C1  UNL     1      26.094   1.248  53.368  1.00  0.00     0.112 C 
HETATM    2  C2  UNL     1      26.048   2.102  52.188  1.00  0.00    -0.101 C 
HETATM    3  C3  UNL     1      25.993   2.809  51.182  1.00  0.00    -0.006 C 
ENDROOT
BRANCH   3   4
HETATM    4  C4  UNL     1      25.932   3.622  49.986  1.00  0.00     0.297 C 
HETATM    5  O1  UNL     1      24.881   3.509  49.292  1.00  0.00    -0.258 OA
HETATM    6  N1  UNL     1      27.054   4.454  49.726  1.00  0.00    -0.339 N 
HETATM    7  H4  UNL     1      27.866   4.455  50.388  1.00  0.00     0.164 HD
BRANCH   6   8
HETATM    8  C5  UNL     1      27.266   5.382  48.594  1.00  0.00     0.133 C 
HETATM    9  C6  UNL     1      26.805   6.734  49.002  1.00  0.00     0.021 C 
HETATM   10  C7  UNL     1      25.511   7.135  48.880  1.00  0.00     0.115 C 
HETATM   11  N2  UNL     1      25.655   8.482  49.417  1.00  0.00    -0.260 NA
HETATM   12  C8  UNL     1      26.222   9.328  48.576  1.00  0.00     0.078 C 
HETATM   13  C9  UNL     1      26.451   8.444  47.386  1.00  0.00     0.033 C 
HETATM   14  C18 UNL     1      26.668  10.714  48.557  1.00  0.00     0.088 C 
HETATM   15  C10 UNL     1      27.544   8.136  46.642  1.00  0.00     0.005 C 
HETATM   16  C11 UNL     1      28.843   8.854  46.654  1.00  0.00     0.029 C 
HETATM   17  C12 UNL     1      29.570   9.309  47.718  1.00  0.00     0.033 C 
HETATM   18  C13 UNL     1      30.629   8.302  47.577  1.00  0.00     0.048 C 
HETATM   19  N3  UNL     1      29.203  10.439  48.548  1.00  0.00    -0.364 N 
HETATM   20  C14 UNL     1      30.598   7.015  47.660  1.00  0.00     0.013 C 
HETATM   21 BR1  UNL     1      32.484   6.822  47.307  1.00  0.00    -0.051 Br
HETATM   22  C15 UNL     1      29.924   5.767  47.897  1.00  0.00     0.017 C 
HETATM   23  C16 UNL     1      28.690   5.329  48.235  1.00  0.00     0.004 C 
HETATM   24  C17 UNL     1      27.920  10.914  49.047  1.00  0.00     0.113 C 
HETATM   25  H14 UNL     1      30.007  11.029  48.837  1.00  0.00     0.165 HD
HETATM   26  C19 UNL     1      25.847  11.745  48.055  1.00  0.00     0.103 C 
HETATM   27  N4  UNL     1      25.186  12.574  47.634  1.00  0.00    -0.191 NA
ENDBRANCH   6   8
ENDBRANCH   3   4
TORSDOF 2
ENDMDL
MODEL 4
REMARK VINA RESULT:      -7.3      4.080      7.420
REMARK  2 active torsions:
REMARK  status: ('A' for Active; 'I' for Inactive)
REMARK    1  A    between atoms: C3_3  and  C4_4 
REMARK       I    between atoms: C4_4  and  N1_6 
REMARK    2  A    between atoms: N1_6  and  C5_7 
ROOT
HETATM    1  C1  UNL     1      13.254   4.463  53.686  1.00  0.00     0.112 C 
HETATM    2  C2  UNL     1      14.307   3.825  52.908  1.00  0.00    -0.101 C 
HETATM    3  C3  UNL     1      15.191   3.266  52.259  1.00  0.00    -0.006 C 
ENDROOT
BRANCH   3   4
HETATM    4  C4  UNL     1      16.237   2.598  51.514  1.00  0.00     0.297 C 
HETATM    5  O1  UNL     1      15.853   1.830  50.585  1.00  0.00    -0.258 OA
HETATM    6  N1  UNL     1      17.574   2.878  51.906  1.00  0.00    -0.339 N 
HETATM    7  H4  UNL     1      17.756   3.541  52.696  1.00  0.00     0.164 HD
BRANCH   6   8
HETATM    8  C5  UNL     1      18.829   2.349  51.330  1.00  0.00     0.133 C 
HETATM    9  C6  UNL     1      19.870   3.405  51.421  1.00  0.00     0.021 C 
HETATM   10  C7  UNL     1      20.026   4.364  50.469  1.00  0.00     0.115 C 
HETATM   11  N2  UNL     1      21.142   5.082  51.073  1.00  0.00    -0.260 NA
HETATM   12  C8  UNL     1      22.300   4.461  50.945  1.00  0.00     0.078 C 
HETATM   13  C9  UNL     1      21.892   3.239  50.178  1.00  0.00     0.033 C 
HETATM   14  C18 UNL     1      23.684   4.634  51.367  1.00  0.00     0.088 C 
HETATM   15  C10 UNL     1      22.051   1.906  50.382  1.00  0.00     0.005 C 
HETATM   16  C11 UNL     1      22.970   1.272  51.359  1.00  0.00     0.029 C 
HETATM   17  C12 UNL     1      23.207   1.603  52.664  1.00  0.00     0.033 C 
HETATM   18  C13 UNL     1      22.521   0.425  53.211  1.00  0.00     0.048 C 
HETATM   19  N3  UNL     1      23.929   2.781  53.100  1.00  0.00    -0.364 N 
HETATM   20  C14 UNL     1      21.292   0.041  53.132  1.00  0.00     0.013 C 
HETATM   21 BR1  UNL     1      21.593  -1.551  54.178  1.00  0.00    -0.051 Br
HETATM   22  C15 UNL     1      19.926   0.212  52.721  1.00  0.00     0.017 C 
HETATM   23  C16 UNL     1      19.172   1.121  52.062  1.00  0.00     0.004 C 
HETATM   24  C17 UNL     1      23.964   4.149  52.606  1.00  0.00     0.113 C 
HETATM   25  H14 UNL     1      24.546   2.618  53.920  1.00  0.00     0.165 HD
HETATM   26  C19 UNL     1      24.637   5.251  50.530  1.00  0.00     0.103 C 
HETATM   27  N4  UNL     1      25.409   5.736  49.845  1.00  0.00    -0.191 NA
ENDBRANCH   6   8
ENDBRANCH   3   4
TORSDOF 2
ENDMDL
MODEL 5
REMARK VINA RESULT:      -7.1      3.239      4.934
REMARK  2 active torsions:
REMARK  status: ('A' for Active; 'I' for Inactive)
REMARK    1  A    between atoms: C3_3  and  C4_4 
REMARK       I    between atoms: C4_4  and  N1_6 
REMARK    2  A    between atoms: N1_6  and  C5_7 
ROOT
HETATM    1  C1  UNL     1      28.379   6.915  47.666  1.00  0.00     0.112 C 
HETATM    2  C2  UNL     1      27.257   6.699  48.570  1.00  0.00    -0.101 C 
HETATM    3  C3  UNL     1      26.306   6.539  49.335  1.00  0.00    -0.006 C 
ENDROOT
BRANCH   3   4
HETATM    4  C4  UNL     1      25.197   6.366  50.248  1.00  0.00     0.297 C 
HETATM    5  O1  UNL     1      24.680   7.429  50.699  1.00  0.00    -0.258 OA
HETATM    6  N1  UNL     1      24.811   5.029  50.533  1.00  0.00    -0.339 N 
HETATM    7  H4  UNL     1      25.324   4.233  50.086  1.00  0.00     0.164 HD
BRANCH   6   8
HETATM    8  C5  UNL     1      23.723   4.556  51.417  1.00  0.00     0.133 C 
HETATM    9  C6  UNL     1      22.542   4.230  50.576  1.00  0.00     0.021 C 
HETATM   10  C7  UNL     1      21.623   5.164  50.211  1.00  0.00     0.115 C 
HETATM   11  N2  UNL     1      20.744   4.302  49.431  1.00  0.00    -0.260 NA
HETATM   12  C8  UNL     1      19.977   3.522  50.170  1.00  0.00     0.078 C 
HETATM   13  C9  UNL     1      20.393   3.930  51.552  1.00  0.00     0.033 C 
HETATM   14  C18 UNL     1      18.996   2.460  49.982  1.00  0.00     0.088 C 
HETATM   15  C10 UNL     1      20.845   3.249  52.636  1.00  0.00     0.005 C 
HETATM   16  C11 UNL     1      20.792   1.779  52.833  1.00  0.00     0.029 C 
HETATM   17  C12 UNL     1      21.090   0.777  51.952  1.00  0.00     0.033 C 
HETATM   18  C13 UNL     1      22.327   0.381  52.638  1.00  0.00     0.048 C 
HETATM   19  N3  UNL     1      20.283   0.419  50.803  1.00  0.00    -0.364 N 
HETATM   20  C14 UNL     1      23.420   1.027  52.864  1.00  0.00     0.013 C 
HETATM   21 BR1  UNL     1      24.246  -0.449  53.791  1.00  0.00    -0.051 Br
HETATM   22  C15 UNL     1      24.267   2.183  52.749  1.00  0.00     0.017 C 
HETATM   23  C16 UNL     1      24.236   3.410  52.180  1.00  0.00     0.004 C 
HETATM   24  C17 UNL     1      19.525   1.216  49.850  1.00  0.00     0.113 C 
HETATM   25  H14 UNL     1      20.227  -0.604  50.629  1.00  0.00     0.165 HD
HETATM   26  C19 UNL     1      17.613   2.734  49.956  1.00  0.00     0.103 C 
HETATM   27  N4  UNL     1      16.494   2.956  49.950  1.00  0.00    -0.191 NA
ENDBRANCH   6   8
ENDBRANCH   3   4
TORSDOF 2
ENDMDL
MODEL 6
REMARK VINA RESULT:      -6.9      1.258      1.405
REMARK  2 active torsions:
REMARK  status: ('A' for Active; 'I' for Inactive)
REMARK    1  A    between atoms: C3_3  and  C4_4 
REMARK       I    between atoms: C4_4  and  N1_6 
REMARK    2  A    between atoms: N1_6  and  C5_7 
ROOT
HETATM    1  C1  UNL     1      30.239  -0.078  53.268  1.00  0.00     0.112 C 
HETATM    2  C2  UNL     1      28.948   0.581  53.409  1.00  0.00    -0.101 C 
HETATM    3  C3  UNL     1      27.860   1.148  53.509  1.00  0.00    -0.006 C 
ENDROOT
BRANCH   3   4
HETATM    4  C4  UNL     1      26.591   1.836  53.622  1.00  0.00     0.297 C 
HETATM    5  O1  UNL     1      26.116   1.934  54.790  1.00  0.00    -0.258 OA
HETATM    6  N1  UNL     1      26.023   2.324  52.415  1.00  0.00    -0.339 N 
HETATM    7  H4  UNL     1      26.524   2.177  51.507  1.00  0.00     0.164 HD
BRANCH   6   8
HETATM    8  C5  UNL     1      24.752   3.058  52.229  1.00  0.00     0.133 C 
HETATM    9  C6  UNL     1      24.652   3.472  50.806  1.00  0.00     0.021 C 
HETATM   10  C7  UNL     1      25.201   4.625  50.338  1.00  0.00     0.115 C 
HETATM   11  N2  UNL     1      24.802   4.498  48.941  1.00  0.00    -0.260 NA
HETATM   12  C8  UNL     1      23.526   4.766  48.731  1.00  0.00     0.078 C 
HETATM   13  C9  UNL     1      23.068   5.108  50.117  1.00  0.00     0.033 C 
HETATM   14  C18 UNL     1      22.576   4.752  47.626  1.00  0.00     0.088 C 
HETATM   15  C10 UNL     1      22.068   4.653  50.915  1.00  0.00     0.005 C 
HETATM   16  C11 UNL     1      20.919   3.818  50.489  1.00  0.00     0.029 C 
HETATM   17  C12 UNL     1      20.901   2.723  49.670  1.00  0.00     0.033 C 
HETATM   18  C13 UNL     1      20.626   1.770  50.752  1.00  0.00     0.048 C 
HETATM   19  N3  UNL     1      21.106   2.761  48.235  1.00  0.00    -0.364 N 
HETATM   20  C14 UNL     1      21.306   1.451  51.800  1.00  0.00     0.013 C 
HETATM   21 BR1  UNL     1      19.995   0.180  52.418  1.00  0.00    -0.051 Br
HETATM   22  C15 UNL     1      22.468   1.537  52.642  1.00  0.00     0.017 C 
HETATM   23  C16 UNL     1      23.660   2.175  52.663  1.00  0.00     0.004 C 
HETATM   24  C17 UNL     1      21.995   3.546  47.392  1.00  0.00     0.113 C 
HETATM   25  H14 UNL     1      20.499   2.106  47.705  1.00  0.00     0.165 HD
HETATM   26  C19 UNL     1      22.295   5.918  46.884  1.00  0.00     0.103 C 
HETATM   27  N4  UNL     1      22.058   6.866  46.295  1.00  0.00    -0.191 NA
ENDBRANCH   6   8
ENDBRANCH   3   4
TORSDOF 2
ENDMDL
MODEL 7
REMARK VINA RESULT:      -6.8      3.512      7.031
REMARK  2 active torsions:
REMARK  status: ('A' for Active; 'I' for Inactive)
REMARK    1  A    between atoms: C3_3  and  C4_4 
REMARK       I    between atoms: C4_4  and  N1_6 
REMARK    2  A    between atoms: N1_6  and  C5_7 
ROOT
HETATM    1  C1  UNL     1      14.671   2.613  47.460  1.00  0.00     0.112 C 
HETATM    2  C2  UNL     1      16.007   2.660  48.040  1.00  0.00    -0.101 C 
HETATM    3  C3  UNL     1      17.140   2.681  48.519  1.00  0.00    -0.006 C 
ENDROOT
BRANCH   3   4
HETATM    4  C4  UNL     1      18.470   2.684  49.091  1.00  0.00     0.297 C 
HETATM    5  O1  UNL     1      18.550   3.017  50.308  1.00  0.00    -0.258 OA
HETATM    6  N1  UNL     1      19.534   2.312  48.225  1.00  0.00    -0.339 N 
HETATM    7  H4  UNL     1      19.330   2.053  47.232  1.00  0.00     0.164 HD
BRANCH   6   8
HETATM    8  C5  UNL     1      20.979   2.224  48.532  1.00  0.00     0.133 C 
HETATM    9  C6  UNL     1      21.455   3.570  48.943  1.00  0.00     0.021 C 
HETATM   10  C7  UNL     1      21.865   4.507  48.047  1.00  0.00     0.115 C 
HETATM   11  N2  UNL     1      22.196   5.569  48.989  1.00  0.00    -0.260 NA
HETATM   12  C8  UNL     1      23.335   5.371  49.629  1.00  0.00     0.078 C 
HETATM   13  C9  UNL     1      23.780   4.068  49.034  1.00  0.00     0.033 C 
HETATM   14  C18 UNL     1      24.122   6.006  50.678  1.00  0.00     0.088 C 
HETATM   15  C10 UNL     1      24.140   2.870  49.561  1.00  0.00     0.005 C 
HETATM   16  C11 UNL     1      24.464   2.600  50.983  1.00  0.00     0.029 C 
HETATM   17  C12 UNL     1      23.815   3.015  52.113  1.00  0.00     0.033 C 
HETATM   18  C13 UNL     1      23.283   1.686  52.439  1.00  0.00     0.048 C 
HETATM   19  N3  UNL     1      23.815   4.375  52.613  1.00  0.00    -0.364 N 
HETATM   20  C14 UNL     1      22.476   0.910  51.799  1.00  0.00     0.013 C 
HETATM   21 BR1  UNL     1      22.535  -0.469  53.145  1.00  0.00    -0.051 Br
HETATM   22  C15 UNL     1      21.604   0.605  50.697  1.00  0.00     0.017 C 
HETATM   23  C16 UNL     1      21.153   1.196  49.567  1.00  0.00     0.004 C 
HETATM   24  C17 UNL     1      23.761   5.667  51.943  1.00  0.00     0.113 C 
HETATM   25  H14 UNL     1      23.869   4.444  53.648  1.00  0.00     0.165 HD
HETATM   26  C19 UNL     1      25.176   6.891  50.371  1.00  0.00     0.103 C 
HETATM   27  N4  UNL     1      26.038   7.595  50.120  1.00  0.00    -0.191 NA
ENDBRANCH   6   8
ENDBRANCH   3   4
TORSDOF 2
ENDMDL
MODEL 8
REMARK VINA RESULT:      -6.8      3.308      5.910
REMARK  2 active torsions:
REMARK  status: ('A' for Active; 'I' for Inactive)
REMARK    1  A    between atoms: C3_3  and  C4_4 
REMARK       I    between atoms: C4_4  and  N1_6 
REMARK    2  A    between atoms: N1_6  and  C5_7 
ROOT
HETATM    1  C1  UNL     1      26.819   8.751  49.490  1.00  0.00     0.112 C 
HETATM    2  C2  UNL     1      26.402   7.356  49.434  1.00  0.00    -0.101 C 
HETATM    3  C3  UNL     1      26.031   6.183  49.395  1.00  0.00    -0.006 C 
ENDROOT
BRANCH   3   4
HETATM    4  C4  UNL     1      25.588   4.805  49.371  1.00  0.00     0.297 C 
HETATM    5  O1  UNL     1      26.500   3.929  49.380  1.00  0.00    -0.258 OA
HETATM    6  N1  UNL     1      24.183   4.590  49.343  1.00  0.00    -0.339 N 
HETATM    7  H4  UNL     1      23.531   5.409  49.343  1.00  0.00     0.164 HD
BRANCH   6   8
HETATM    8  C5  UNL     1      23.452   3.304  49.318  1.00  0.00     0.133 C 
HETATM    9  C6  UNL     1      23.190   2.885  50.719  1.00  0.00     0.021 C 
HETATM   10  C7  UNL     1      24.090   2.175  51.452  1.00  0.00     0.115 C 
HETATM   11  N2  UNL     1      23.319   2.066  52.685  1.00  0.00    -0.260 NA
HETATM   12  C8  UNL     1      22.345   1.177  52.621  1.00  0.00     0.078 C 
HETATM   13  C9  UNL     1      22.514   0.660  51.223  1.00  0.00     0.033 C 
HETATM   14  C18 UNL     1      21.256   0.689  53.456  1.00  0.00     0.088 C 
HETATM   15  C10 UNL     1      21.680   0.542  50.158  1.00  0.00     0.005 C 
HETATM   16  C11 UNL     1      20.201   0.662  50.185  1.00  0.00     0.029 C 
HETATM   17  C12 UNL     1      19.419   1.583  50.825  1.00  0.00     0.033 C 
HETATM   18  C13 UNL     1      19.012   2.268  49.591  1.00  0.00     0.048 C 
HETATM   19  N3  UNL     1      19.218   1.644  52.259  1.00  0.00    -0.364 N 
HETATM   20  C14 UNL     1      19.697   2.902  48.702  1.00  0.00     0.013 C 
HETATM   21 BR1  UNL     1      18.151   3.321  47.628  1.00  0.00    -0.051 Br
HETATM   22  C15 UNL     1      20.925   3.435  48.178  1.00  0.00     0.017 C 
HETATM   23  C16 UNL     1      22.231   3.502  48.525  1.00  0.00     0.004 C 
HETATM   24  C17 UNL     1      20.113   1.421  53.385  1.00  0.00     0.113 C 
HETATM   25  H14 UNL     1      18.248   1.887  52.538  1.00  0.00     0.165 HD
HETATM   26  C19 UNL     1      21.403  -0.462  54.258  1.00  0.00     0.103 C 
HETATM   27  N4  UNL     1      21.520  -1.402  54.894  1.00  0.00    -0.191 NA
ENDBRANCH   6   8
ENDBRANCH   3   4
TORSDOF 2
ENDMDL
MODEL 9
REMARK VINA RESULT:      -6.7      4.206      5.378
REMARK  2 active torsions:
REMARK  status: ('A' for Active; 'I' for Inactive)
REMARK    1  A    between atoms: C3_3  and  C4_4 
REMARK       I    between atoms: C4_4  and  N1_6 
REMARK    2  A    between atoms: N1_6  and  C5_7 
ROOT
HETATM    1  C1  UNL     1      30.624   5.522  47.878  1.00  0.00     0.112 C 
HETATM    2  C2  UNL     1      29.201   5.590  48.184  1.00  0.00    -0.101 C 
HETATM    3  C3  UNL     1      28.004   5.663  48.457  1.00  0.00    -0.006 C 
ENDROOT
BRANCH   3   4
HETATM    4  C4  UNL     1      26.600   5.747  48.801  1.00  0.00     0.297 C 
HETATM    5  O1  UNL     1      25.866   6.375  47.984  1.00  0.00    -0.258 OA
HETATM    6  N1  UNL     1      26.203   5.117  50.010  1.00  0.00    -0.339 N 
HETATM    7  H4  UNL     1      26.915   4.623  50.598  1.00  0.00     0.164 HD
BRANCH   6   8
HETATM    8  C5  UNL     1      24.851   5.040  50.605  1.00  0.00     0.133 C 
HETATM    9  C6  UNL     1      24.054   6.192  50.111  1.00  0.00     0.021 C 
HETATM   10  C7  UNL     1      24.076   7.411  50.715  1.00  0.00     0.115 C 
HETATM   11  N2  UNL     1      23.149   8.103  49.829  1.00  0.00    -0.260 NA
HETATM   12  C8  UNL     1      21.884   7.784  50.034  1.00  0.00     0.078 C 
HETATM   13  C9  UNL     1      22.010   6.806  51.164  1.00  0.00     0.033 C 
HETATM   14  C18 UNL     1      20.578   8.076  49.459  1.00  0.00     0.088 C 
HETATM   15  C10 UNL     1      21.584   5.531  51.355  1.00  0.00     0.005 C 
HETATM   16  C11 UNL     1      20.579   4.812  50.535  1.00  0.00     0.029 C 
HETATM   17  C12 UNL     1      20.449   4.759  49.175  1.00  0.00     0.033 C 
HETATM   18  C13 UNL     1      20.889   3.362  49.068  1.00  0.00     0.048 C 
HETATM   19  N3  UNL     1      19.997   5.858  48.345  1.00  0.00    -0.364 N 
HETATM   20  C14 UNL     1      22.009   2.796  49.366  1.00  0.00     0.013 C 
HETATM   21 BR1  UNL     1      21.412   1.045  48.823  1.00  0.00    -0.051 Br
HETATM   22  C15 UNL     1      23.371   2.825  49.826  1.00  0.00     0.017 C 
HETATM   23  C16 UNL     1      24.280   3.733  50.247  1.00  0.00     0.004 C 
HETATM   24  C17 UNL     1      20.234   7.293  48.403  1.00  0.00     0.113 C 
HETATM   25  H14 UNL     1      19.381   5.568  47.561  1.00  0.00     0.165 HD
HETATM   26  C19 UNL     1      19.752   9.091  49.986  1.00  0.00     0.103 C 
HETATM   27  N4  UNL     1      19.080   9.902  50.425  1.00  0.00    -0.191 NA
ENDBRANCH   6   8
ENDBRANCH   3   4
TORSDOF 2
ENDMDL
