MODEL 1
REMARK VINA RESULT:      -7.0      0.000      0.000
REMARK  4 active torsions:
REMARK  status: ('A' for Active; 'I' for Inactive)
REMARK    1  A    between atoms: C4_4  and  C5_5 
REMARK    2  A    between atoms: C4_4  and  C8_12 
REMARK    3  A    between atoms: C6_7  and  N2_8 
REMARK    4  A    between atoms: C12_16  and  N3_17 
ROOT
HETATM    1  C1  UNL     1      26.769  -0.097  51.935  1.00  0.00     0.048 C 
HETATM    2  C2  UNL     1      25.888   1.019  52.324  1.00  0.00    -0.065 A 
HETATM    3  C3  UNL     1      25.071   1.608  51.476  1.00  0.00    -0.004 A 
HETATM    4  C4  UNL     1      24.106   2.736  51.650  1.00  0.00     0.041 A 
HETATM    5  C14 UNL     1      24.091   3.270  53.045  1.00  0.00     0.046 A 
HETATM    6  C15 UNL     1      25.038   2.556  53.942  1.00  0.00    -0.025 A 
HETATM    7  C16 UNL     1      25.860   1.552  53.682  1.00  0.00     0.002 A 
ENDROOT
BRANCH   4   8
HETATM    8  C5  UNL     1      24.502   3.864  50.720  1.00  0.00     0.261 C 
HETATM    9  N1  UNL     1      24.075   5.111  51.329  1.00  0.00    -0.234 NA
HETATM   10  C6  UNL     1      24.559   6.216  50.830  1.00  0.00     0.159 C 
HETATM   11  S1  UNL     1      25.713   6.195  49.436  1.00  0.00    -0.067 SA
HETATM   12  C7  UNL     1      26.312   4.460  49.409  1.00  0.00     0.252 C 
HETATM   13  O1  UNL     1      25.884   3.790  50.550  1.00  0.00    -0.353 OA
BRANCH  10  14
HETATM   14  N2  UNL     1      24.227   7.510  51.329  1.00  0.00    -0.379 N 
HETATM   15  H6  UNL     1      23.783   8.447  51.169  1.00  0.00     0.158 HD
HETATM   16  H7  UNL     1      24.600   7.544  52.323  1.00  0.00     0.158 HD
ENDBRANCH  10  14
ENDBRANCH   4   8
BRANCH   4  17
HETATM   17  C8  UNL     1      22.752   2.184  51.255  1.00  0.00     0.009 A 
HETATM   18  C9  UNL     1      22.608   2.188  49.765  1.00  0.00     0.025 C 
HETATM   19  C10 UNL     1      21.653   2.892  51.924  1.00  0.00    -0.010 A 
HETATM   20  C11 UNL     1      20.937   2.063  52.690  1.00  0.00     0.026 A 
HETATM   21  C12 UNL     1      21.547   0.731  52.558  1.00  0.00     0.022 A 
HETATM   22  C13 UNL     1      22.582   0.803  51.739  1.00  0.00     0.017 A 
BRANCH  21  23
HETATM   23  N3  UNL     1      21.147  -0.489  53.180  1.00  0.00    -0.399 N 
HETATM   24  H15 UNL     1      20.609  -1.271  52.729  1.00  0.00     0.156 HD
HETATM   25  H16 UNL     1      21.391  -0.664  54.193  1.00  0.00     0.156 HD
ENDBRANCH  21  23
ENDBRANCH   4  17
TORSDOF 4
ENDMDL
MODEL 2
REMARK VINA RESULT:      -7.0      2.231      4.792
REMARK  4 active torsions:
REMARK  status: ('A' for Active; 'I' for Inactive)
REMARK    1  A    between atoms: C4_4  and  C5_5 
REMARK    2  A    between atoms: C4_4  and  C8_12 
REMARK    3  A    between atoms: C6_7  and  N2_8 
REMARK    4  A    between atoms: C12_16  and  N3_17 
ROOT
HETATM    1  C1  UNL     1      22.410   2.012  47.303  1.00  0.00     0.048 C 
HETATM    2  C2  UNL     1      22.224   1.814  48.752  1.00  0.00    -0.065 A 
HETATM    3  C3  UNL     1      22.788   2.590  49.654  1.00  0.00    -0.004 A 
HETATM    4  C4  UNL     1      22.738   2.573  51.146  1.00  0.00     0.041 A 
HETATM    5  C14 UNL     1      21.890   1.466  51.682  1.00  0.00     0.046 A 
HETATM    6  C15 UNL     1      21.288   0.635  50.605  1.00  0.00    -0.025 A 
HETATM    7  C16 UNL     1      21.398   0.738  49.291  1.00  0.00     0.002 A 
ENDROOT
BRANCH   4   8
HETATM    8  C5  UNL     1      24.144   2.388  51.680  1.00  0.00     0.261 C 
HETATM    9  N1  UNL     1      24.223   1.061  52.267  1.00  0.00    -0.234 NA
HETATM   10  C6  UNL     1      25.413   0.597  52.535  1.00  0.00     0.159 C 
HETATM   11  S1  UNL     1      26.902   1.566  52.190  1.00  0.00    -0.067 SA
HETATM   12  C7  UNL     1      26.311   2.848  51.017  1.00  0.00     0.252 C 
HETATM   13  O1  UNL     1      25.015   2.556  50.604  1.00  0.00    -0.353 OA
BRANCH  10  14
HETATM   14  N2  UNL     1      25.639  -0.687  53.112  1.00  0.00    -0.379 N 
HETATM   15  H6  UNL     1      26.281  -1.503  53.263  1.00  0.00     0.158 HD
HETATM   16  H7  UNL     1      24.745  -0.936  53.630  1.00  0.00     0.158 HD
ENDBRANCH  10  14
ENDBRANCH   4   8
BRANCH   4  17
HETATM   17  C8  UNL     1      22.200   3.929  51.556  1.00  0.00     0.009 A 
HETATM   18  C9  UNL     1      20.955   3.765  52.370  1.00  0.00     0.025 C 
HETATM   19  C10 UNL     1      21.999   4.813  50.401  1.00  0.00    -0.010 A 
HETATM   20  C11 UNL     1      22.753   5.913  50.495  1.00  0.00     0.026 A 
HETATM   21  C12 UNL     1      23.506   5.804  51.753  1.00  0.00     0.022 A 
HETATM   22  C13 UNL     1      23.190   4.671  52.356  1.00  0.00     0.017 A 
BRANCH  21  23
HETATM   23  N3  UNL     1      24.447   6.726  52.302  1.00  0.00    -0.399 N 
HETATM   24  H15 UNL     1      25.449   6.844  52.007  1.00  0.00     0.156 HD
HETATM   25  H16 UNL     1      24.150   7.371  53.084  1.00  0.00     0.156 HD
ENDBRANCH  21  23
ENDBRANCH   4  17
TORSDOF 4
ENDMDL
MODEL 3
REMARK VINA RESULT:      -7.0      2.621      5.014
REMARK  4 active torsions:
REMARK  status: ('A' for Active; 'I' for Inactive)
REMARK    1  A    between atoms: C4_4  and  C5_5 
REMARK    2  A    between atoms: C4_4  and  C8_12 
REMARK    3  A    between atoms: C6_7  and  N2_8 
REMARK    4  A    between atoms: C12_16  and  N3_17 
ROOT
HETATM    1  C1  UNL     1      21.058   0.699  50.805  1.00  0.00     0.048 C 
HETATM    2  C2  UNL     1      22.053   1.677  51.281  1.00  0.00    -0.065 A 
HETATM    3  C3  UNL     1      23.269   1.754  50.780  1.00  0.00    -0.004 A 
HETATM    4  C4  UNL     1      24.419   2.651  51.104  1.00  0.00     0.041 A 
HETATM    5  C14 UNL     1      24.103   3.621  52.196  1.00  0.00     0.046 A 
HETATM    6  C15 UNL     1      22.715   3.472  52.709  1.00  0.00    -0.025 A 
HETATM    7  C16 UNL     1      21.760   2.631  52.345  1.00  0.00     0.002 A 
ENDROOT
BRANCH   4   8
HETATM    8  C5  UNL     1      25.588   1.801  51.556  1.00  0.00     0.261 C 
HETATM    9  N1  UNL     1      26.408   2.609  52.442  1.00  0.00    -0.234 NA
HETATM   10  C6  UNL     1      27.308   1.988  53.156  1.00  0.00     0.159 C 
HETATM   11  S1  UNL     1      27.524   0.195  53.046  1.00  0.00    -0.067 SA
HETATM   12  C7  UNL     1      25.970  -0.372  52.252  1.00  0.00     0.252 C 
HETATM   13  O1  UNL     1      25.058   0.676  52.187  1.00  0.00    -0.353 OA
BRANCH  10  14
HETATM   14  N2  UNL     1      28.180   2.655  54.065  1.00  0.00    -0.379 N 
HETATM   15  H6  UNL     1      28.530   3.554  54.478  1.00  0.00     0.158 HD
HETATM   16  H7  UNL     1      28.735   1.890  54.552  1.00  0.00     0.158 HD
ENDBRANCH  10  14
ENDBRANCH   4   8
BRANCH   4  17
HETATM   17  C8  UNL     1      24.761   3.365  49.813  1.00  0.00     0.009 A 
HETATM   18  C9  UNL     1      23.720   3.083  48.776  1.00  0.00     0.025 C 
HETATM   19  C10 UNL     1      26.116   3.041  49.347  1.00  0.00    -0.010 A 
HETATM   20  C11 UNL     1      26.883   4.134  49.285  1.00  0.00     0.026 A 
HETATM   21  C12 UNL     1      26.046   5.263  49.718  1.00  0.00     0.022 A 
HETATM   22  C13 UNL     1      24.836   4.822  50.019  1.00  0.00     0.017 A 
BRANCH  21  23
HETATM   23  N3  UNL     1      26.407   6.640  49.825  1.00  0.00    -0.399 N 
HETATM   24  H15 UNL     1      26.395   7.349  49.049  1.00  0.00     0.156 HD
HETATM   25  H16 UNL     1      26.726   7.026  50.755  1.00  0.00     0.156 HD
ENDBRANCH  21  23
ENDBRANCH   4  17
TORSDOF 4
ENDMDL
MODEL 4
REMARK VINA RESULT:      -6.6      1.932      2.543
REMARK  4 active torsions:
REMARK  status: ('A' for Active; 'I' for Inactive)
REMARK    1  A    between atoms: C4_4  and  C5_5 
REMARK    2  A    between atoms: C4_4  and  C8_12 
REMARK    3  A    between atoms: C6_7  and  N2_8 
REMARK    4  A    between atoms: C12_16  and  N3_17 
ROOT
HETATM    1  C1  UNL     1      26.542   0.399  52.009  1.00  0.00     0.048 C 
HETATM    2  C2  UNL     1      25.655   1.574  52.083  1.00  0.00    -0.065 A 
HETATM    3  C3  UNL     1      25.137   2.143  51.014  1.00  0.00    -0.004 A 
HETATM    4  C4  UNL     1      24.231   3.320  50.858  1.00  0.00     0.041 A 
HETATM    5  C14 UNL     1      23.865   3.942  52.166  1.00  0.00     0.046 A 
HETATM    6  C15 UNL     1      24.486   3.246  53.324  1.00  0.00    -0.025 A 
HETATM    7  C16 UNL     1      25.287   2.193  53.353  1.00  0.00     0.002 A 
ENDROOT
BRANCH   4   8
HETATM    8  C5  UNL     1      24.932   4.369  50.020  1.00  0.00     0.261 C 
HETATM    9  N1  UNL     1      24.667   5.665  50.620  1.00  0.00    -0.234 NA
HETATM   10  C6  UNL     1      25.398   6.669  50.218  1.00  0.00     0.159 C 
HETATM   11  S1  UNL     1      26.688   6.455  48.967  1.00  0.00    -0.067 SA
HETATM   12  C7  UNL     1      26.964   4.640  48.949  1.00  0.00     0.252 C 
HETATM   13  O1  UNL     1      26.288   4.045  50.009  1.00  0.00    -0.353 OA
BRANCH  10  14
HETATM   14  N2  UNL     1      25.247   7.995  50.720  1.00  0.00    -0.379 N 
HETATM   15  H6  UNL     1      24.896   8.973  50.580  1.00  0.00     0.158 HD
HETATM   16  H7  UNL     1      25.700   7.997  51.682  1.00  0.00     0.158 HD
ENDBRANCH  10  14
ENDBRANCH   4   8
BRANCH   4  17
HETATM   17  C8  UNL     1      23.007   2.803  50.131  1.00  0.00     0.009 A 
HETATM   18  C9  UNL     1      22.662   1.428  50.612  1.00  0.00     0.025 C 
HETATM   19  C10 UNL     1      23.168   2.860  48.672  1.00  0.00    -0.010 A 
HETATM   20  C11 UNL     1      22.249   3.652  48.112  1.00  0.00     0.026 A 
HETATM   21  C12 UNL     1      21.413   4.169  49.206  1.00  0.00     0.022 A 
HETATM   22  C13 UNL     1      21.847   3.684  50.357  1.00  0.00     0.017 A 
BRANCH  21  23
HETATM   23  N3  UNL     1      20.297   5.055  49.121  1.00  0.00    -0.399 N 
HETATM   24  H15 UNL     1      19.454   4.938  48.506  1.00  0.00     0.156 HD
HETATM   25  H16 UNL     1      20.277   5.928  49.717  1.00  0.00     0.156 HD
ENDBRANCH  21  23
ENDBRANCH   4  17
TORSDOF 4
ENDMDL
MODEL 5
REMARK VINA RESULT:      -6.6      2.197      2.454
REMARK  4 active torsions:
REMARK  status: ('A' for Active; 'I' for Inactive)
REMARK    1  A    between atoms: C4_4  and  C5_5 
REMARK    2  A    between atoms: C4_4  and  C8_12 
REMARK    3  A    between atoms: C6_7  and  N2_8 
REMARK    4  A    between atoms: C12_16  and  N3_17 
ROOT
HETATM    1  C1  UNL     1      26.436   0.689  51.689  1.00  0.00     0.048 C 
HETATM    2  C2  UNL     1      25.243   1.468  52.067  1.00  0.00    -0.065 A 
HETATM    3  C3  UNL     1      24.062   1.270  51.518  1.00  0.00    -0.004 A 
HETATM    4  C4  UNL     1      22.741   1.930  51.744  1.00  0.00     0.041 A 
HETATM    5  C14 UNL     1      22.804   3.004  52.781  1.00  0.00     0.046 A 
HETATM    6  C15 UNL     1      24.167   3.168  53.353  1.00  0.00    -0.025 A 
HETATM    7  C16 UNL     1      25.287   2.519  53.078  1.00  0.00     0.002 A 
ENDROOT
BRANCH   4   8
HETATM    8  C5  UNL     1      22.282   2.559  50.445  1.00  0.00     0.261 C 
HETATM    9  N1  UNL     1      21.801   3.896  50.746  1.00  0.00    -0.234 NA
HETATM   10  C6  UNL     1      21.618   4.706  49.738  1.00  0.00     0.159 C 
HETATM   11  S1  UNL     1      21.950   4.185  48.038  1.00  0.00    -0.067 SA
HETATM   12  C7  UNL     1      22.996   2.692  48.249  1.00  0.00     0.252 C 
HETATM   13  O1  UNL     1      23.376   2.560  49.581  1.00  0.00    -0.353 OA
BRANCH  10  14
HETATM   14  N2  UNL     1      21.150   6.045  49.887  1.00  0.00    -0.379 N 
HETATM   15  H6  UNL     1      21.333   7.074  49.804  1.00  0.00     0.158 HD
HETATM   16  H7  UNL     1      20.154   5.967  50.250  1.00  0.00     0.158 HD
ENDBRANCH  10  14
ENDBRANCH   4   8
BRANCH   4  17
HETATM   17  C8  UNL     1      21.791   0.823  52.152  1.00  0.00     0.009 A 
HETATM   18  C9  UNL     1      21.152   0.220  50.941  1.00  0.00     0.025 C 
HETATM   19  C10 UNL     1      20.802   1.281  53.136  1.00  0.00    -0.010 A 
HETATM   20  C11 UNL     1      20.905   0.600  54.281  1.00  0.00     0.026 A 
HETATM   21  C12 UNL     1      21.997  -0.368  54.101  1.00  0.00     0.022 A 
HETATM   22  C13 UNL     1      22.502  -0.239  52.886  1.00  0.00     0.017 A 
BRANCH  21  23
HETATM   23  N3  UNL     1      22.493  -1.324  55.038  1.00  0.00    -0.399 N 
HETATM   24  H15 UNL     1      22.310  -1.334  56.073  1.00  0.00     0.156 HD
HETATM   25  H16 UNL     1      23.111  -2.113  54.703  1.00  0.00     0.156 HD
ENDBRANCH  21  23
ENDBRANCH   4  17
TORSDOF 4
ENDMDL
MODEL 6
REMARK VINA RESULT:      -6.3      2.591      4.239
REMARK  4 active torsions:
REMARK  status: ('A' for Active; 'I' for Inactive)
REMARK    1  A    between atoms: C4_4  and  C5_5 
REMARK    2  A    between atoms: C4_4  and  C8_12 
REMARK    3  A    between atoms: C6_7  and  N2_8 
REMARK    4  A    between atoms: C12_16  and  N3_17 
ROOT
HETATM    1  C1  UNL     1      26.940   4.651  48.878  1.00  0.00     0.048 C 
HETATM    2  C2  UNL     1      25.729   4.700  49.717  1.00  0.00    -0.065 A 
HETATM    3  C3  UNL     1      24.963   3.648  49.922  1.00  0.00    -0.004 A 
HETATM    4  C4  UNL     1      23.714   3.473  50.721  1.00  0.00     0.041 A 
HETATM    5  C14 UNL     1      23.279   4.734  51.394  1.00  0.00     0.046 A 
HETATM    6  C15 UNL     1      24.191   5.875  51.115  1.00  0.00    -0.025 A 
HETATM    7  C16 UNL     1      25.291   5.923  50.381  1.00  0.00     0.002 A 
ENDROOT
BRANCH   4   8
HETATM    8  C5  UNL     1      22.601   3.027  49.795  1.00  0.00     0.261 C 
HETATM    9  N1  UNL     1      21.567   4.047  49.822  1.00  0.00    -0.234 NA
HETATM   10  C6  UNL     1      20.652   3.995  48.892  1.00  0.00     0.159 C 
HETATM   11  S1  UNL     1      20.672   2.705  47.622  1.00  0.00    -0.067 SA
HETATM   12  C7  UNL     1      22.384   2.051  47.710  1.00  0.00     0.252 C 
HETATM   13  O1  UNL     1      23.163   2.860  48.530  1.00  0.00    -0.353 OA
BRANCH  10  14
HETATM   14  N2  UNL     1      19.580   4.930  48.797  1.00  0.00    -0.379 N 
HETATM   15  H6  UNL     1      19.246   5.889  48.536  1.00  0.00     0.158 HD
HETATM   16  H7  UNL     1      18.718   4.423  49.159  1.00  0.00     0.158 HD
ENDBRANCH  10  14
ENDBRANCH   4   8
BRANCH   4  17
HETATM   17  C8  UNL     1      24.019   2.385  51.731  1.00  0.00     0.009 A 
HETATM   18  C9  UNL     1      22.968   1.321  51.676  1.00  0.00     0.025 C 
HETATM   19  C10 UNL     1      24.197   2.925  53.085  1.00  0.00    -0.010 A 
HETATM   20  C11 UNL     1      25.423   2.670  53.552  1.00  0.00     0.026 A 
HETATM   21  C12 UNL     1      26.131   1.927  52.499  1.00  0.00     0.022 A 
HETATM   22  C13 UNL     1      25.328   1.766  51.460  1.00  0.00     0.017 A 
BRANCH  21  23
HETATM   23  N3  UNL     1      27.468   1.428  52.517  1.00  0.00    -0.399 N 
HETATM   24  H15 UNL     1      28.285   1.854  53.023  1.00  0.00     0.156 HD
HETATM   25  H16 UNL     1      27.706   0.549  51.981  1.00  0.00     0.156 HD
ENDBRANCH  21  23
ENDBRANCH   4  17
TORSDOF 4
ENDMDL
MODEL 7
REMARK VINA RESULT:      -6.3      8.460     11.230
REMARK  4 active torsions:
REMARK  status: ('A' for Active; 'I' for Inactive)
REMARK    1  A    between atoms: C4_4  and  C5_5 
REMARK    2  A    between atoms: C4_4  and  C8_12 
REMARK    3  A    between atoms: C6_7  and  N2_8 
REMARK    4  A    between atoms: C12_16  and  N3_17 
ROOT
HETATM    1  C1  UNL     1      28.978   8.603  45.217  1.00  0.00     0.048 C 
HETATM    2  C2  UNL     1      29.519   7.810  46.336  1.00  0.00    -0.065 A 
HETATM    3  C3  UNL     1      30.810   7.703  46.572  1.00  0.00    -0.004 A 
HETATM    4  C4  UNL     1      31.566   6.966  47.629  1.00  0.00     0.041 A 
HETATM    5  C14 UNL     1      30.670   6.228  48.569  1.00  0.00     0.046 A 
HETATM    6  C15 UNL     1      29.230   6.396  48.238  1.00  0.00    -0.025 A 
HETATM    7  C16 UNL     1      28.657   7.084  47.263  1.00  0.00     0.002 A 
ENDROOT
BRANCH   4   8
HETATM    8  C5  UNL     1      32.480   5.958  46.963  1.00  0.00     0.261 C 
HETATM    9  N1  UNL     1      31.852   4.653  47.070  1.00  0.00    -0.234 NA
HETATM   10  C6  UNL     1      32.335   3.695  46.326  1.00  0.00     0.159 C 
HETATM   11  S1  UNL     1      33.729   3.982  45.208  1.00  0.00    -0.067 SA
HETATM   12  C7  UNL     1      33.780   5.811  45.056  1.00  0.00     0.252 C 
HETATM   13  O1  UNL     1      32.649   6.370  45.642  1.00  0.00    -0.353 OA
BRANCH  10  14
HETATM   14  N2  UNL     1      31.818   2.366  46.329  1.00  0.00    -0.379 N 
HETATM   15  H6  UNL     1      31.594   1.492  46.863  1.00  0.00     0.158 HD
HETATM   16  H7  UNL     1      31.521   2.166  45.329  1.00  0.00     0.158 HD
ENDBRANCH  10  14
ENDBRANCH   4   8
BRANCH   4  17
HETATM   17  C8  UNL     1      32.385   8.013  48.355  1.00  0.00     0.009 A 
HETATM   18  C9  UNL     1      31.665   8.472  49.584  1.00  0.00     0.025 C 
HETATM   19  C10 UNL     1      32.755   9.130  47.476  1.00  0.00    -0.010 A 
HETATM   20  C11 UNL     1      34.083   9.242  47.365  1.00  0.00     0.026 A 
HETATM   21  C12 UNL     1      34.667   8.174  48.190  1.00  0.00     0.022 A 
HETATM   22  C13 UNL     1      33.698   7.474  48.754  1.00  0.00     0.017 A 
BRANCH  21  23
HETATM   23  N3  UNL     1      36.047   7.875  48.398  1.00  0.00    -0.399 N 
HETATM   24  H15 UNL     1      36.682   7.367  47.733  1.00  0.00     0.156 HD
HETATM   25  H16 UNL     1      36.517   8.173  49.297  1.00  0.00     0.156 HD
ENDBRANCH  21  23
ENDBRANCH   4  17
TORSDOF 4
ENDMDL
MODEL 8
REMARK VINA RESULT:      -6.3      2.571      4.642
REMARK  4 active torsions:
REMARK  status: ('A' for Active; 'I' for Inactive)
REMARK    1  A    between atoms: C4_4  and  C5_5 
REMARK    2  A    between atoms: C4_4  and  C8_12 
REMARK    3  A    between atoms: C6_7  and  N2_8 
REMARK    4  A    between atoms: C12_16  and  N3_17 
ROOT
HETATM    1  C1  UNL     1      22.290   2.913  46.935  1.00  0.00     0.048 C 
HETATM    2  C2  UNL     1      22.158   2.372  48.300  1.00  0.00    -0.065 A 
HETATM    3  C3  UNL     1      22.589   3.017  49.364  1.00  0.00    -0.004 A 
HETATM    4  C4  UNL     1      22.560   2.664  50.815  1.00  0.00     0.041 A 
HETATM    5  C14 UNL     1      21.925   1.337  51.073  1.00  0.00     0.046 A 
HETATM    6  C15 UNL     1      21.466   0.671  49.825  1.00  0.00    -0.025 A 
HETATM    7  C16 UNL     1      21.540   1.078  48.568  1.00  0.00     0.002 A 
ENDROOT
BRANCH   4   8
HETATM    8  C5  UNL     1      23.982   2.612  51.333  1.00  0.00     0.261 C 
HETATM    9  N1  UNL     1      24.195   1.298  51.913  1.00  0.00    -0.234 NA
HETATM   10  C6  UNL     1      25.427   0.949  52.167  1.00  0.00     0.159 C 
HETATM   11  S1  UNL     1      26.812   2.058  51.811  1.00  0.00    -0.067 SA
HETATM   12  C7  UNL     1      26.088   3.282  50.651  1.00  0.00     0.252 C 
HETATM   13  O1  UNL     1      24.822   2.868  50.250  1.00  0.00    -0.353 OA
BRANCH  10  14
HETATM   14  N2  UNL     1      25.782  -0.310  52.735  1.00  0.00    -0.379 N 
HETATM   15  H6  UNL     1      25.696  -1.355  52.726  1.00  0.00     0.158 HD
HETATM   16  H7  UNL     1      26.437  -0.091  53.543  1.00  0.00     0.158 HD
ENDBRANCH  10  14
ENDBRANCH   4   8
BRANCH   4  17
HETATM   17  C8  UNL     1      21.797   3.782  51.496  1.00  0.00     0.009 A 
HETATM   18  C9  UNL     1      22.700   4.532  52.424  1.00  0.00     0.025 C 
HETATM   19  C10 UNL     1      20.587   3.293  52.169  1.00  0.00    -0.010 A 
HETATM   20  C11 UNL     1      19.487   3.858  51.660  1.00  0.00     0.026 A 
HETATM   21  C12 UNL     1      19.933   4.773  50.599  1.00  0.00     0.022 A 
HETATM   22  C13 UNL     1      21.251   4.728  50.507  1.00  0.00     0.017 A 
BRANCH  21  23
HETATM   23  N3  UNL     1      19.135   5.606  49.759  1.00  0.00    -0.399 N 
HETATM   24  H15 UNL     1      18.837   5.395  48.774  1.00  0.00     0.156 HD
HETATM   25  H16 UNL     1      18.790   6.537  50.122  1.00  0.00     0.156 HD
ENDBRANCH  21  23
ENDBRANCH   4  17
TORSDOF 4
ENDMDL
MODEL 9
REMARK VINA RESULT:      -6.3      2.105      2.714
REMARK  4 active torsions:
REMARK  status: ('A' for Active; 'I' for Inactive)
REMARK    1  A    between atoms: C4_4  and  C5_5 
REMARK    2  A    between atoms: C4_4  and  C8_12 
REMARK    3  A    between atoms: C6_7  and  N2_8 
REMARK    4  A    between atoms: C12_16  and  N3_17 
ROOT
HETATM    1  C1  UNL     1      25.310   1.396  51.869  1.00  0.00     0.048 C 
HETATM    2  C2  UNL     1      24.651   2.705  51.712  1.00  0.00    -0.065 A 
HETATM    3  C3  UNL     1      24.513   3.296  50.543  1.00  0.00    -0.004 A 
HETATM    4  C4  UNL     1      23.890   4.598  50.159  1.00  0.00     0.041 A 
HETATM    5  C14 UNL     1      23.335   5.340  51.331  1.00  0.00     0.046 A 
HETATM    6  C15 UNL     1      23.529   4.611  52.613  1.00  0.00    -0.025 A 
HETATM    7  C16 UNL     1      24.103   3.441  52.847  1.00  0.00     0.002 A 
ENDROOT
BRANCH   4   8
HETATM    8  C5  UNL     1      24.944   5.470  49.509  1.00  0.00     0.261 C 
HETATM    9  N1  UNL     1      24.983   6.731  50.229  1.00  0.00    -0.234 NA
HETATM   10  C6  UNL     1      26.004   7.514  50.009  1.00  0.00     0.159 C 
HETATM   11  S1  UNL     1      27.317   7.048  48.854  1.00  0.00    -0.067 SA
HETATM   12  C7  UNL     1      27.079   5.239  48.650  1.00  0.00     0.252 C 
HETATM   13  O1  UNL     1      26.150   4.773  49.574  1.00  0.00    -0.353 OA
BRANCH  10  14
HETATM   14  N2  UNL     1      26.170   8.778  50.646  1.00  0.00    -0.379 N 
HETATM   15  H6  UNL     1      26.279   9.818  50.562  1.00  0.00     0.158 HD
HETATM   16  H7  UNL     1      26.198   8.579  51.690  1.00  0.00     0.158 HD
ENDBRANCH  10  14
ENDBRANCH   4   8
BRANCH   4  17
HETATM   17  C8  UNL     1      22.806   4.257  49.158  1.00  0.00     0.009 A 
HETATM   18  C9  UNL     1      22.963   5.088  47.923  1.00  0.00     0.025 C 
HETATM   19  C10 UNL     1      21.462   4.371  49.741  1.00  0.00    -0.010 A 
HETATM   20  C11 UNL     1      20.820   3.199  49.714  1.00  0.00     0.026 A 
HETATM   21  C12 UNL     1      21.734   2.229  49.094  1.00  0.00     0.022 A 
HETATM   22  C13 UNL     1      22.867   2.835  48.778  1.00  0.00     0.017 A 
BRANCH  21  23
HETATM   23  N3  UNL     1      21.511   0.843  48.841  1.00  0.00    -0.399 N 
HETATM   24  H15 UNL     1      22.136   0.202  48.290  1.00  0.00     0.156 HD
HETATM   25  H16 UNL     1      20.645   0.374  49.223  1.00  0.00     0.156 HD
ENDBRANCH  21  23
ENDBRANCH   4  17
TORSDOF 4
ENDMDL
