MODEL 1
REMARK VINA RESULT:      -8.4      0.000      0.000
REMARK  8 active torsions:
REMARK  status: ('A' for Active; 'I' for Inactive)
REMARK    1  A    between atoms: C5_5  and  C6_6 
REMARK       I    between atoms: C6_6  and  N1_8 
REMARK    2  A    between atoms: N1_8  and  C7_9 
REMARK    3  A    between atoms: C7_9  and  C8_10 
REMARK    4  A    between atoms: C8_10  and  O2_11 
REMARK    5  A    between atoms: C12_15  and  O3_16 
REMARK    6  A    between atoms: C14_19  and  O4_20 
REMARK    7  A    between atoms: O4_20  and  C15_21 
REMARK    8  A    between atoms: C15_21  and  C16_22 
ROOT
HETATM    1  C1  UNL     1      23.017   4.426  52.634  1.00  0.00     0.068 C 
HETATM    2  C2  UNL     1      23.714   3.155  52.744  1.00  0.00     0.007 C 
HETATM    3  C3  UNL     1      24.885   3.145  53.351  1.00  0.00     0.025 C 
HETATM    4  C4  UNL     1      25.871   2.116  53.660  1.00  0.00     0.019 C 
HETATM    5  C5  UNL     1      25.848   0.791  53.836  1.00  0.00     0.031 C 
HETATM    6  C9  UNL     1      24.690  -0.133  53.762  1.00  0.00     0.015 C 
HETATM    7  C10 UNL     1      23.554  -0.071  53.069  1.00  0.00     0.006 C 
HETATM    8  C11 UNL     1      22.730   0.690  52.106  1.00  0.00     0.170 C 
HETATM    9  C12 UNL     1      21.280   0.566  52.425  1.00  0.00     0.108 C 
HETATM   10  C13 UNL     1      20.782   1.639  51.801  1.00  0.00     0.173 C 
HETATM   11  F1  UNL     1      19.434   1.860  51.877  1.00  0.00    -0.203 F 
HETATM   12  C14 UNL     1      21.955   2.350  51.136  1.00  0.00     0.290 C 
HETATM   13  N2  UNL     1      22.962   2.114  52.148  1.00  0.00    -0.338 N 
ENDROOT
BRANCH  12  14
HETATM   14  O4  UNL     1      22.277   1.735  49.960  1.00  0.00    -0.355 OA
BRANCH  14  15
HETATM   15  C15 UNL     1      22.548   2.488  48.868  1.00  0.00     0.209 C 
BRANCH  15  16
HETATM   16  C16 UNL     1      23.667   3.446  49.025  1.00  0.00    -0.034 A 
HETATM   17  C17 UNL     1      24.961   3.143  49.394  1.00  0.00     0.012 A 
HETATM   18  C18 UNL     1      25.950   4.077  49.515  1.00  0.00     0.043 A 
HETATM   19  C19 UNL     1      25.691   5.410  49.266  1.00  0.00     0.116 A 
HETATM   20  F2  UNL     1      26.708   6.292  49.402  1.00  0.00    -0.206 F 
HETATM   21  C20 UNL     1      24.417   5.793  48.891  1.00  0.00     0.043 A 
HETATM   22  C21 UNL     1      23.462   4.810  48.784  1.00  0.00     0.012 A 
ENDBRANCH  15  16
ENDBRANCH  14  15
ENDBRANCH  12  14
BRANCH   9  23
HETATM   23  O3  UNL     1      20.726  -0.446  53.179  1.00  0.00    -0.360 OA
HETATM   24  H15 UNL     1      19.844  -0.347  53.654  1.00  0.00     0.217 HD
ENDBRANCH   9  23
BRANCH   5  25
HETATM   25  C6  UNL     1      27.051   0.076  54.139  1.00  0.00     0.251 C 
HETATM   26  O1  UNL     1      27.326  -0.230  55.342  1.00  0.00    -0.268 OA
HETATM   27  N1  UNL     1      28.060  -0.386  53.299  1.00  0.00    -0.355 N 
HETATM   28  H6  UNL     1      27.973  -0.209  52.276  1.00  0.00     0.162 HD
BRANCH  27  29
HETATM   29  C7  UNL     1      29.256  -1.104  53.691  1.00  0.00     0.148 C 
BRANCH  29  30
HETATM   30  C8  UNL     1      29.266  -2.527  53.176  1.00  0.00     0.183 C 
BRANCH  30  31
HETATM   31  O2  UNL     1      27.982  -3.065  53.103  1.00  0.00    -0.399 OA
HETATM   32  H11 UNL     1      27.961  -3.911  53.610  1.00  0.00     0.209 HD
ENDBRANCH  30  31
ENDBRANCH  29  30
ENDBRANCH  27  29
ENDBRANCH   5  25
TORSDOF 8
ENDMDL
MODEL 2
REMARK VINA RESULT:      -8.1      1.042      1.243
REMARK  8 active torsions:
REMARK  status: ('A' for Active; 'I' for Inactive)
REMARK    1  A    between atoms: C5_5  and  C6_6 
REMARK       I    between atoms: C6_6  and  N1_8 
REMARK    2  A    between atoms: N1_8  and  C7_9 
REMARK    3  A    between atoms: C7_9  and  C8_10 
REMARK    4  A    between atoms: C8_10  and  O2_11 
REMARK    5  A    between atoms: C12_15  and  O3_16 
REMARK    6  A    between atoms: C14_19  and  O4_20 
REMARK    7  A    between atoms: O4_20  and  C15_21 
REMARK    8  A    between atoms: C15_21  and  C16_22 
ROOT
HETATM    1  C1  UNL     1      22.035   3.965  52.297  1.00  0.00     0.068 C 
HETATM    2  C2  UNL     1      22.965   2.865  52.486  1.00  0.00     0.007 C 
HETATM    3  C3  UNL     1      24.169   3.147  52.947  1.00  0.00     0.025 C 
HETATM    4  C4  UNL     1      25.355   2.361  53.267  1.00  0.00     0.019 C 
HETATM    5  C5  UNL     1      25.598   1.093  53.612  1.00  0.00     0.031 C 
HETATM    6  C9  UNL     1      24.633  -0.019  53.792  1.00  0.00     0.015 C 
HETATM    7  C10 UNL     1      23.447  -0.258  53.236  1.00  0.00     0.006 C 
HETATM    8  C11 UNL     1      22.409   0.199  52.287  1.00  0.00     0.170 C 
HETATM    9  C12 UNL     1      21.043  -0.126  52.787  1.00  0.00     0.108 C 
HETATM   10  C13 UNL     1      20.297   0.741  52.094  1.00  0.00     0.173 C 
HETATM   11  F1  UNL     1      18.944   0.733  52.300  1.00  0.00    -0.203 F 
HETATM   12  C14 UNL     1      21.249   1.540  51.211  1.00  0.00     0.290 C 
HETATM   13  N2  UNL     1      22.372   1.633  52.119  1.00  0.00    -0.338 N 
ENDROOT
BRANCH  12  14
HETATM   14  O4  UNL     1      21.572   0.824  50.094  1.00  0.00    -0.355 OA
BRANCH  14  15
HETATM   15  C15 UNL     1      21.593   1.444  48.890  1.00  0.00     0.209 C 
BRANCH  15  16
HETATM   16  C16 UNL     1      22.380   2.697  48.841  1.00  0.00    -0.034 A 
HETATM   17  C17 UNL     1      23.729   2.830  49.100  1.00  0.00     0.012 A 
HETATM   18  C18 UNL     1      24.397   4.019  49.031  1.00  0.00     0.043 A 
HETATM   19  C19 UNL     1      23.733   5.180  48.690  1.00  0.00     0.116 A 
HETATM   20  F2  UNL     1      24.445   6.329  48.637  1.00  0.00    -0.206 F 
HETATM   21  C20 UNL     1      22.379   5.129  48.416  1.00  0.00     0.043 A 
HETATM   22  C21 UNL     1      21.758   3.904  48.499  1.00  0.00     0.012 A 
ENDBRANCH  15  16
ENDBRANCH  14  15
ENDBRANCH  12  14
BRANCH   9  23
HETATM   23  O3  UNL     1      20.762  -1.097  53.723  1.00  0.00    -0.360 OA
HETATM   24  H15 UNL     1      20.859  -2.080  53.530  1.00  0.00     0.217 HD
ENDBRANCH   9  23
BRANCH   5  25
HETATM   25  C6  UNL     1      26.937   0.650  53.860  1.00  0.00     0.251 C 
HETATM   26  O1  UNL     1      27.823   1.478  54.243  1.00  0.00    -0.268 OA
HETATM   27  N1  UNL     1      27.501  -0.619  53.752  1.00  0.00    -0.355 N 
HETATM   28  H6  UNL     1      26.892  -1.407  53.448  1.00  0.00     0.162 HD
BRANCH  27  29
HETATM   29  C7  UNL     1      28.877  -0.983  54.022  1.00  0.00     0.148 C 
BRANCH  29  30
HETATM   30  C8  UNL     1      29.345  -2.135  53.160  1.00  0.00     0.183 C 
BRANCH  30  31
HETATM   31  O2  UNL     1      28.716  -3.332  53.500  1.00  0.00    -0.399 OA
HETATM   32  H11 UNL     1      28.118  -3.600  52.762  1.00  0.00     0.209 HD
ENDBRANCH  30  31
ENDBRANCH  29  30
ENDBRANCH  27  29
ENDBRANCH   5  25
TORSDOF 8
ENDMDL
MODEL 3
REMARK VINA RESULT:      -7.7      1.525      2.151
REMARK  8 active torsions:
REMARK  status: ('A' for Active; 'I' for Inactive)
REMARK    1  A    between atoms: C5_5  and  C6_6 
REMARK       I    between atoms: C6_6  and  N1_8 
REMARK    2  A    between atoms: N1_8  and  C7_9 
REMARK    3  A    between atoms: C7_9  and  C8_10 
REMARK    4  A    between atoms: C8_10  and  O2_11 
REMARK    5  A    between atoms: C12_15  and  O3_16 
REMARK    6  A    between atoms: C14_19  and  O4_20 
REMARK    7  A    between atoms: O4_20  and  C15_21 
REMARK    8  A    between atoms: C15_21  and  C16_22 
ROOT
HETATM    1  C1  UNL     1      21.749   5.166  51.825  1.00  0.00     0.068 C 
HETATM    2  C2  UNL     1      22.467   3.911  51.976  1.00  0.00     0.007 C 
HETATM    3  C3  UNL     1      23.598   3.925  52.656  1.00  0.00     0.025 C 
HETATM    4  C4  UNL     1      24.585   2.918  53.025  1.00  0.00     0.019 C 
HETATM    5  C5  UNL     1      24.582   1.593  53.196  1.00  0.00     0.031 C 
HETATM    6  C9  UNL     1      23.453   0.642  53.047  1.00  0.00     0.015 C 
HETATM    7  C10 UNL     1      22.362   0.680  52.284  1.00  0.00     0.006 C 
HETATM    8  C11 UNL     1      21.583   1.426  51.272  1.00  0.00     0.170 C 
HETATM    9  C12 UNL     1      20.119   1.268  51.497  1.00  0.00     0.108 C 
HETATM   10  C13 UNL     1      19.637   2.331  50.845  1.00  0.00     0.173 C 
HETATM   11  F1  UNL     1      18.282   2.520  50.836  1.00  0.00    -0.203 F 
HETATM   12  C14 UNL     1      20.833   3.071  50.258  1.00  0.00     0.290 C 
HETATM   13  N2  UNL     1      21.779   2.855  51.331  1.00  0.00    -0.338 N 
ENDROOT
BRANCH  12  14
HETATM   14  O4  UNL     1      21.243   2.468  49.104  1.00  0.00    -0.355 OA
BRANCH  14  15
HETATM   15  C15 UNL     1      21.794   3.218  48.120  1.00  0.00     0.209 C 
BRANCH  15  16
HETATM   16  C16 UNL     1      23.051   3.911  48.485  1.00  0.00    -0.034 A 
HETATM   17  C17 UNL     1      23.303   5.263  48.380  1.00  0.00     0.012 A 
HETATM   18  C18 UNL     1      24.487   5.841  48.740  1.00  0.00     0.043 A 
HETATM   19  C19 UNL     1      25.519   5.074  49.241  1.00  0.00     0.116 A 
HETATM   20  F2  UNL     1      26.670   5.699  49.581  1.00  0.00    -0.206 F 
HETATM   21  C20 UNL     1      25.344   3.709  49.376  1.00  0.00     0.043 A 
HETATM   22  C21 UNL     1      24.131   3.183  48.999  1.00  0.00     0.012 A 
ENDBRANCH  15  16
ENDBRANCH  14  15
ENDBRANCH  12  14
BRANCH   9  23
HETATM   23  O3  UNL     1      19.542   0.240  52.212  1.00  0.00    -0.360 OA
HETATM   24  H15 UNL     1      20.033  -0.258  52.936  1.00  0.00     0.217 HD
ENDBRANCH   9  23
BRANCH   5  25
HETATM   25  C6  UNL     1      25.780   0.905  53.573  1.00  0.00     0.251 C 
HETATM   26  O1  UNL     1      26.028  -0.250  53.102  1.00  0.00    -0.268 OA
HETATM   27  N1  UNL     1      26.809   1.290  54.428  1.00  0.00    -0.355 N 
HETATM   28  H6  UNL     1      26.746   2.221  54.891  1.00  0.00     0.162 HD
BRANCH  27  29
HETATM   29  C7  UNL     1      27.995   0.525  54.759  1.00  0.00     0.148 C 
BRANCH  29  30
HETATM   30  C8  UNL     1      29.242   1.093  54.118  1.00  0.00     0.183 C 
BRANCH  30  31
HETATM   31  O2  UNL     1      29.597   2.325  54.666  1.00  0.00    -0.399 OA
HETATM   32  H11 UNL     1      30.201   2.173  55.430  1.00  0.00     0.209 HD
ENDBRANCH  30  31
ENDBRANCH  29  30
ENDBRANCH  27  29
ENDBRANCH   5  25
TORSDOF 8
ENDMDL
MODEL 4
REMARK VINA RESULT:      -7.4      2.522      5.381
REMARK  8 active torsions:
REMARK  status: ('A' for Active; 'I' for Inactive)
REMARK    1  A    between atoms: C5_5  and  C6_6 
REMARK       I    between atoms: C6_6  and  N1_8 
REMARK    2  A    between atoms: N1_8  and  C7_9 
REMARK    3  A    between atoms: C7_9  and  C8_10 
REMARK    4  A    between atoms: C8_10  and  O2_11 
REMARK    5  A    between atoms: C12_15  and  O3_16 
REMARK    6  A    between atoms: C14_19  and  O4_20 
REMARK    7  A    between atoms: O4_20  and  C15_21 
REMARK    8  A    between atoms: C15_21  and  C16_22 
ROOT
HETATM    1  C1  UNL     1      27.139   4.155  48.942  1.00  0.00     0.068 C 
HETATM    2  C2  UNL     1      26.202   3.644  49.929  1.00  0.00     0.007 C 
HETATM    3  C3  UNL     1      26.458   2.469  50.472  1.00  0.00     0.025 C 
HETATM    4  C4  UNL     1      25.795   1.632  51.464  1.00  0.00     0.019 C 
HETATM    5  C5  UNL     1      24.953   1.838  52.482  1.00  0.00     0.031 C 
HETATM    6  C9  UNL     1      24.374   3.118  52.960  1.00  0.00     0.015 C 
HETATM    7  C10 UNL     1      24.094   4.253  52.322  1.00  0.00     0.006 C 
HETATM    8  C11 UNL     1      24.100   4.987  51.039  1.00  0.00     0.170 C 
HETATM    9  C12 UNL     1      24.406   6.431  51.247  1.00  0.00     0.108 C 
HETATM   10  C13 UNL     1      24.828   6.788  50.029  1.00  0.00     0.173 C 
HETATM   11  F1  UNL     1      25.207   8.088  49.836  1.00  0.00    -0.203 F 
HETATM   12  C14 UNL     1      24.750   5.545  49.150  1.00  0.00     0.290 C 
HETATM   13  N2  UNL     1      25.136   4.553  50.131  1.00  0.00    -0.338 N 
ENDROOT
BRANCH  12  14
HETATM   14  O4  UNL     1      23.469   5.348  48.720  1.00  0.00    -0.355 OA
BRANCH  14  15
HETATM   15  C15 UNL     1      23.187   4.278  47.940  1.00  0.00     0.209 C 
BRANCH  15  16
HETATM   16  C16 UNL     1      22.214   3.319  48.513  1.00  0.00    -0.034 A 
HETATM   17  C17 UNL     1      20.840   3.378  48.400  1.00  0.00     0.012 A 
HETATM   18  C18 UNL     1      19.997   2.456  48.950  1.00  0.00     0.043 A 
HETATM   19  C19 UNL     1      20.496   1.388  49.668  1.00  0.00     0.116 A 
HETATM   20  F2  UNL     1      19.615   0.505  50.191  1.00  0.00    -0.206 F 
HETATM   21  C20 UNL     1      21.863   1.260  49.827  1.00  0.00     0.043 A 
HETATM   22  C21 UNL     1      22.664   2.217  49.250  1.00  0.00     0.012 A 
ENDBRANCH  15  16
ENDBRANCH  14  15
ENDBRANCH  12  14
BRANCH   9  23
HETATM   23  O3  UNL     1      24.247   7.101  52.440  1.00  0.00    -0.360 OA
HETATM   24  H15 UNL     1      23.378   7.105  52.948  1.00  0.00     0.217 HD
ENDBRANCH   9  23
BRANCH   5  25
HETATM   25  C6  UNL     1      24.487   0.741  53.275  1.00  0.00     0.251 C 
HETATM   26  O1  UNL     1      25.314   0.030  53.929  1.00  0.00    -0.268 OA
HETATM   27  N1  UNL     1      23.196   0.266  53.485  1.00  0.00    -0.355 N 
HETATM   28  H6  UNL     1      22.406   0.752  53.012  1.00  0.00     0.162 HD
BRANCH  27  29
HETATM   29  C7  UNL     1      22.809  -0.862  54.309  1.00  0.00     0.148 C 
BRANCH  29  30
HETATM   30  C8  UNL     1      21.404  -0.721  54.853  1.00  0.00     0.183 C 
BRANCH  30  31
HETATM   31  O2  UNL     1      20.699  -1.923  54.798  1.00  0.00    -0.399 OA
HETATM   32  H11 UNL     1      20.919  -2.384  53.954  1.00  0.00     0.209 HD
ENDBRANCH  30  31
ENDBRANCH  29  30
ENDBRANCH  27  29
ENDBRANCH   5  25
TORSDOF 8
ENDMDL
MODEL 5
REMARK VINA RESULT:      -7.4      3.886      7.995
REMARK  8 active torsions:
REMARK  status: ('A' for Active; 'I' for Inactive)
REMARK    1  A    between atoms: C5_5  and  C6_6 
REMARK       I    between atoms: C6_6  and  N1_8 
REMARK    2  A    between atoms: N1_8  and  C7_9 
REMARK    3  A    between atoms: C7_9  and  C8_10 
REMARK    4  A    between atoms: C8_10  and  O2_11 
REMARK    5  A    between atoms: C12_15  and  O3_16 
REMARK    6  A    between atoms: C14_19  and  O4_20 
REMARK    7  A    between atoms: O4_20  and  C15_21 
REMARK    8  A    between atoms: C15_21  and  C16_22 
ROOT
HETATM    1  C1  UNL     1      22.545   1.187  51.137  1.00  0.00     0.068 C 
HETATM    2  C2  UNL     1      22.619   2.125  50.029  1.00  0.00     0.007 C 
HETATM    3  C3  UNL     1      22.005   1.803  48.906  1.00  0.00     0.025 C 
HETATM    4  C4  UNL     1      21.842   2.444  47.606  1.00  0.00     0.019 C 
HETATM    5  C5  UNL     1      21.869   3.699  47.148  1.00  0.00     0.031 C 
HETATM    6  C9  UNL     1      22.100   4.955  47.903  1.00  0.00     0.015 C 
HETATM    7  C10 UNL     1      22.791   5.204  49.014  1.00  0.00     0.006 C 
HETATM    8  C11 UNL     1      23.638   4.656  50.094  1.00  0.00     0.170 C 
HETATM    9  C12 UNL     1      23.363   5.337  51.391  1.00  0.00     0.108 C 
HETATM   10  C13 UNL     1      23.823   4.435  52.264  1.00  0.00     0.173 C 
HETATM   11  F1  UNL     1      23.734   4.727  53.598  1.00  0.00    -0.203 F 
HETATM   12  C14 UNL     1      24.356   3.261  51.450  1.00  0.00     0.290 C 
HETATM   13  N2  UNL     1      23.378   3.266  50.383  1.00  0.00    -0.338 N 
ENDROOT
BRANCH  12  14
HETATM   14  O4  UNL     1      25.607   3.540  50.979  1.00  0.00    -0.355 OA
BRANCH  14  15
HETATM   15  C15 UNL     1      26.441   2.521  50.663  1.00  0.00     0.209 C 
BRANCH  15  16
HETATM   16  C16 UNL     1      26.942   1.737  51.814  1.00  0.00    -0.034 A 
HETATM   17  C17 UNL     1      26.665   0.414  52.089  1.00  0.00     0.012 A 
HETATM   18  C18 UNL     1      27.166  -0.254  53.170  1.00  0.00     0.043 A 
HETATM   19  C19 UNL     1      27.999   0.385  54.066  1.00  0.00     0.116 A 
HETATM   20  F2  UNL     1      28.467  -0.325  55.119  1.00  0.00    -0.206 F 
HETATM   21  C20 UNL     1      28.324   1.712  53.860  1.00  0.00     0.043 A 
HETATM   22  C21 UNL     1      27.791   2.334  52.754  1.00  0.00     0.012 A 
ENDBRANCH  15  16
ENDBRANCH  14  15
ENDBRANCH  12  14
BRANCH   9  23
HETATM   23  O3  UNL     1      22.780   6.580  51.515  1.00  0.00    -0.360 OA
HETATM   24  H15 UNL     1      22.511   6.965  52.405  1.00  0.00     0.217 HD
ENDBRANCH   9  23
BRANCH   5  25
HETATM   25  C6  UNL     1      21.662   3.971  45.758  1.00  0.00     0.251 C 
HETATM   26  O1  UNL     1      22.287   3.302  44.876  1.00  0.00    -0.268 OA
HETATM   27  N1  UNL     1      20.839   4.906  45.136  1.00  0.00    -0.355 N 
HETATM   28  H6  UNL     1      20.259   5.531  45.734  1.00  0.00     0.162 HD
BRANCH  27  29
HETATM   29  C7  UNL     1      20.689   5.119  43.710  1.00  0.00     0.148 C 
BRANCH  29  30
HETATM   30  C8  UNL     1      19.587   4.271  43.116  1.00  0.00     0.183 C 
BRANCH  30  31
HETATM   31  O2  UNL     1      20.026   2.983  42.808  1.00  0.00    -0.399 OA
HETATM   32  H11 UNL     1      20.313   2.961  41.864  1.00  0.00     0.209 HD
ENDBRANCH  30  31
ENDBRANCH  29  30
ENDBRANCH  27  29
ENDBRANCH   5  25
TORSDOF 8
ENDMDL
MODEL 6
REMARK VINA RESULT:      -7.3      7.149     10.097
REMARK  8 active torsions:
REMARK  status: ('A' for Active; 'I' for Inactive)
REMARK    1  A    between atoms: C5_5  and  C6_6 
REMARK       I    between atoms: C6_6  and  N1_8 
REMARK    2  A    between atoms: N1_8  and  C7_9 
REMARK    3  A    between atoms: C7_9  and  C8_10 
REMARK    4  A    between atoms: C8_10  and  O2_11 
REMARK    5  A    between atoms: C12_15  and  O3_16 
REMARK    6  A    between atoms: C14_19  and  O4_20 
REMARK    7  A    between atoms: O4_20  and  C15_21 
REMARK    8  A    between atoms: C15_21  and  C16_22 
ROOT
HETATM    1  C1  UNL     1      29.373   9.758  44.848  1.00  0.00     0.068 C 
HETATM    2  C2  UNL     1      30.005   9.073  45.963  1.00  0.00     0.007 C 
HETATM    3  C3  UNL     1      30.895   8.138  45.688  1.00  0.00     0.025 C 
HETATM    4  C4  UNL     1      31.728   7.248  46.488  1.00  0.00     0.019 C 
HETATM    5  C5  UNL     1      32.234   7.266  47.725  1.00  0.00     0.031 C 
HETATM    6  C9  UNL     1      32.086   8.308  48.771  1.00  0.00     0.015 C 
HETATM    7  C10 UNL     1      31.114   9.184  49.013  1.00  0.00     0.006 C 
HETATM    8  C11 UNL     1      29.793   9.713  48.608  1.00  0.00     0.170 C 
HETATM    9  C12 UNL     1      29.715  11.185  48.823  1.00  0.00     0.108 C 
HETATM   10  C13 UNL     1      28.717  11.518  47.998  1.00  0.00     0.173 C 
HETATM   11  F1  UNL     1      28.352  12.835  47.928  1.00  0.00    -0.203 F 
HETATM   12  C14 UNL     1      28.242  10.231  47.333  1.00  0.00     0.290 C 
HETATM   13  N2  UNL     1      29.520   9.565  47.198  1.00  0.00    -0.338 N 
ENDROOT
BRANCH  12  14
HETATM   14  O4  UNL     1      27.410   9.544  48.169  1.00  0.00    -0.355 OA
BRANCH  14  15
HETATM   15  C15 UNL     1      26.495   8.694  47.647  1.00  0.00     0.209 C 
BRANCH  15  16
HETATM   16  C16 UNL     1      26.598   7.292  48.115  1.00  0.00    -0.034 A 
HETATM   17  C17 UNL     1      25.572   6.517  48.615  1.00  0.00     0.012 A 
HETATM   18  C18 UNL     1      25.734   5.224  49.026  1.00  0.00     0.043 A 
HETATM   19  C19 UNL     1      26.971   4.616  48.959  1.00  0.00     0.116 A 
HETATM   20  F2  UNL     1      27.074   3.334  49.380  1.00  0.00    -0.206 F 
HETATM   21  C20 UNL     1      28.050   5.328  48.470  1.00  0.00     0.043 A 
HETATM   22  C21 UNL     1      27.828   6.625  48.069  1.00  0.00     0.012 A 
ENDBRANCH  15  16
ENDBRANCH  14  15
ENDBRANCH  12  14
BRANCH   9  23
HETATM   23  O3  UNL     1      30.524  11.896  49.684  1.00  0.00    -0.360 OA
HETATM   24  H15 UNL     1      31.201  11.452  50.281  1.00  0.00     0.217 HD
ENDBRANCH   9  23
BRANCH   5  25
HETATM   25  C6  UNL     1      33.038   6.180  48.198  1.00  0.00     0.251 C 
HETATM   26  O1  UNL     1      32.711   5.557  49.258  1.00  0.00    -0.268 OA
HETATM   27  N1  UNL     1      34.207   5.631  47.678  1.00  0.00    -0.355 N 
HETATM   28  H6  UNL     1      34.599   6.039  46.804  1.00  0.00     0.162 HD
BRANCH  27  29
HETATM   29  C7  UNL     1      34.966   4.524  48.226  1.00  0.00     0.148 C 
BRANCH  29  30
HETATM   30  C8  UNL     1      34.493   3.187  47.699  1.00  0.00     0.183 C 
BRANCH  30  31
HETATM   31  O2  UNL     1      33.464   2.653  48.475  1.00  0.00    -0.399 OA
HETATM   32  H11 UNL     1      32.926   3.393  48.844  1.00  0.00     0.209 HD
ENDBRANCH  30  31
ENDBRANCH  29  30
ENDBRANCH  27  29
ENDBRANCH   5  25
TORSDOF 8
ENDMDL
MODEL 7
REMARK VINA RESULT:      -7.3      3.132      6.774
REMARK  8 active torsions:
REMARK  status: ('A' for Active; 'I' for Inactive)
REMARK    1  A    between atoms: C5_5  and  C6_6 
REMARK       I    between atoms: C6_6  and  N1_8 
REMARK    2  A    between atoms: N1_8  and  C7_9 
REMARK    3  A    between atoms: C7_9  and  C8_10 
REMARK    4  A    between atoms: C8_10  and  O2_11 
REMARK    5  A    between atoms: C12_15  and  O3_16 
REMARK    6  A    between atoms: C14_19  and  O4_20 
REMARK    7  A    between atoms: O4_20  and  C15_21 
REMARK    8  A    between atoms: C15_21  and  C16_22 
ROOT
HETATM    1  C1  UNL     1      22.215   4.913  52.323  1.00  0.00     0.068 C 
HETATM    2  C2  UNL     1      21.676   3.621  51.931  1.00  0.00     0.007 C 
HETATM    3  C3  UNL     1      20.553   3.223  52.499  1.00  0.00     0.025 C 
HETATM    4  C4  UNL     1      19.712   2.037  52.388  1.00  0.00     0.019 C 
HETATM    5  C5  UNL     1      19.483   1.111  51.452  1.00  0.00     0.031 C 
HETATM    6  C9  UNL     1      20.080   0.994  50.099  1.00  0.00     0.015 C 
HETATM    7  C10 UNL     1      21.261   1.380  49.619  1.00  0.00     0.006 C 
HETATM    8  C11 UNL     1      22.560   2.028  49.897  1.00  0.00     0.170 C 
HETATM    9  C12 UNL     1      23.026   2.823  48.727  1.00  0.00     0.108 C 
HETATM   10  C13 UNL     1      23.888   3.665  49.307  1.00  0.00     0.173 C 
HETATM   11  F1  UNL     1      24.532   4.574  48.513  1.00  0.00    -0.203 F 
HETATM   12  C14 UNL     1      23.901   3.331  50.794  1.00  0.00     0.290 C 
HETATM   13  N2  UNL     1      22.502   3.002  50.962  1.00  0.00    -0.338 N 
ENDROOT
BRANCH  12  14
HETATM   14  O4  UNL     1      24.698   2.248  51.031  1.00  0.00    -0.355 OA
BRANCH  14  15
HETATM   15  C15 UNL     1      26.044   2.387  50.974  1.00  0.00     0.209 C 
BRANCH  15  16
HETATM   16  C16 UNL     1      26.806   1.531  51.912  1.00  0.00    -0.034 A 
HETATM   17  C17 UNL     1      26.705   0.161  52.038  1.00  0.00     0.012 A 
HETATM   18  C18 UNL     1      27.444  -0.572  52.923  1.00  0.00     0.043 A 
HETATM   19  C19 UNL     1      28.353   0.044  53.759  1.00  0.00     0.116 A 
HETATM   20  F2  UNL     1      29.058  -0.731  54.615  1.00  0.00    -0.206 F 
HETATM   21  C20 UNL     1      28.511   1.416  53.692  1.00  0.00     0.043 A 
HETATM   22  C21 UNL     1      27.742   2.103  52.782  1.00  0.00     0.012 A 
ENDBRANCH  15  16
ENDBRANCH  14  15
ENDBRANCH  12  14
BRANCH   9  23
HETATM   23  O3  UNL     1      22.599   2.633  47.430  1.00  0.00    -0.360 OA
HETATM   24  H15 UNL     1      22.610   3.368  46.743  1.00  0.00     0.217 HD
ENDBRANCH   9  23
BRANCH   5  25
HETATM   25  C6  UNL     1      18.557   0.046  51.693  1.00  0.00     0.251 C 
HETATM   26  O1  UNL     1      17.838  -0.402  50.745  1.00  0.00    -0.268 OA
HETATM   27  N1  UNL     1      18.268  -0.649  52.864  1.00  0.00    -0.355 N 
HETATM   28  H6  UNL     1      18.784  -0.392  53.732  1.00  0.00     0.162 HD
BRANCH  27  29
HETATM   29  C7  UNL     1      17.305  -1.721  53.023  1.00  0.00     0.148 C 
BRANCH  29  30
HETATM   30  C8  UNL     1      17.879  -2.901  53.776  1.00  0.00     0.183 C 
BRANCH  30  31
HETATM   31  O2  UNL     1      17.100  -4.047  53.624  1.00  0.00    -0.399 OA
HETATM   32  H11 UNL     1      16.743  -4.311  54.505  1.00  0.00     0.209 HD
ENDBRANCH  30  31
ENDBRANCH  29  30
ENDBRANCH  27  29
ENDBRANCH   5  25
TORSDOF 8
ENDMDL
MODEL 8
REMARK VINA RESULT:      -7.3      3.241      6.191
REMARK  8 active torsions:
REMARK  status: ('A' for Active; 'I' for Inactive)
REMARK    1  A    between atoms: C5_5  and  C6_6 
REMARK       I    between atoms: C6_6  and  N1_8 
REMARK    2  A    between atoms: N1_8  and  C7_9 
REMARK    3  A    between atoms: C7_9  and  C8_10 
REMARK    4  A    between atoms: C8_10  and  O2_11 
REMARK    5  A    between atoms: C12_15  and  O3_16 
REMARK    6  A    between atoms: C14_19  and  O4_20 
REMARK    7  A    between atoms: O4_20  and  C15_21 
REMARK    8  A    between atoms: C15_21  and  C16_22 
ROOT
HETATM    1  C1  UNL     1      21.573   0.987  48.690  1.00  0.00     0.068 C 
HETATM    2  C2  UNL     1      21.916   2.148  49.494  1.00  0.00     0.007 C 
HETATM    3  C3  UNL     1      22.800   2.997  49.006  1.00  0.00     0.025 C 
HETATM    4  C4  UNL     1      23.396   4.241  49.478  1.00  0.00     0.019 C 
HETATM    5  C5  UNL     1      23.042   5.210  50.328  1.00  0.00     0.031 C 
HETATM    6  C9  UNL     1      21.804   5.324  51.137  1.00  0.00     0.015 C 
HETATM    7  C10 UNL     1      20.991   4.399  51.643  1.00  0.00     0.006 C 
HETATM    8  C11 UNL     1      20.699   2.958  51.800  1.00  0.00     0.170 C 
HETATM    9  C12 UNL     1      19.232   2.701  51.778  1.00  0.00     0.108 C 
HETATM   10  C13 UNL     1      19.197   1.405  51.453  1.00  0.00     0.173 C 
HETATM   11  F1  UNL     1      17.973   0.803  51.336  1.00  0.00    -0.203 F 
HETATM   12  C14 UNL     1      20.643   0.946  51.300  1.00  0.00     0.290 C 
HETATM   13  N2  UNL     1      21.197   2.147  50.714  1.00  0.00    -0.338 N 
ENDROOT
BRANCH  12  14
HETATM   14  O4  UNL     1      21.191   0.692  52.524  1.00  0.00    -0.355 OA
BRANCH  14  15
HETATM   15  C15 UNL     1      22.139  -0.268  52.642  1.00  0.00     0.209 C 
BRANCH  15  16
HETATM   16  C16 UNL     1      23.474   0.215  53.063  1.00  0.00    -0.034 A 
HETATM   17  C17 UNL     1      24.413  -0.494  53.783  1.00  0.00     0.012 A 
HETATM   18  C18 UNL     1      25.633   0.010  54.136  1.00  0.00     0.043 A 
HETATM   19  C19 UNL     1      25.993   1.292  53.777  1.00  0.00     0.116 A 
HETATM   20  F2  UNL     1      27.213   1.740  54.152  1.00  0.00    -0.206 F 
HETATM   21  C20 UNL     1      25.105   2.067  53.054  1.00  0.00     0.043 A 
HETATM   22  C21 UNL     1      23.893   1.508  52.725  1.00  0.00     0.012 A 
ENDBRANCH  15  16
ENDBRANCH  14  15
ENDBRANCH  12  14
BRANCH   9  23
HETATM   23  O3  UNL     1      18.266   3.648  52.046  1.00  0.00    -0.360 OA
HETATM   24  H15 UNL     1      17.292   3.415  52.144  1.00  0.00     0.217 HD
ENDBRANCH   9  23
BRANCH   5  25
HETATM   25  C6  UNL     1      23.906   6.327  50.559  1.00  0.00     0.251 C 
HETATM   26  O1  UNL     1      24.262   6.626  51.743  1.00  0.00    -0.268 OA
HETATM   27  N1  UNL     1      24.478   7.225  49.661  1.00  0.00    -0.355 N 
HETATM   28  H6  UNL     1      24.277   7.105  48.646  1.00  0.00     0.162 HD
BRANCH  27  29
HETATM   29  C7  UNL     1      25.346   8.340  49.982  1.00  0.00     0.148 C 
BRANCH  29  30
HETATM   30  C8  UNL     1      26.759   8.129  49.483  1.00  0.00     0.183 C 
BRANCH  30  31
HETATM   31  O2  UNL     1      27.149   6.793  49.565  1.00  0.00    -0.399 OA
HETATM   32  H11 UNL     1      27.416   6.482  48.668  1.00  0.00     0.209 HD
ENDBRANCH  30  31
ENDBRANCH  29  30
ENDBRANCH  27  29
ENDBRANCH   5  25
TORSDOF 8
ENDMDL
MODEL 9
REMARK VINA RESULT:      -7.2      4.437      8.029
REMARK  8 active torsions:
REMARK  status: ('A' for Active; 'I' for Inactive)
REMARK    1  A    between atoms: C5_5  and  C6_6 
REMARK       I    between atoms: C6_6  and  N1_8 
REMARK    2  A    between atoms: N1_8  and  C7_9 
REMARK    3  A    between atoms: C7_9  and  C8_10 
REMARK    4  A    between atoms: C8_10  and  O2_11 
REMARK    5  A    between atoms: C12_15  and  O3_16 
REMARK    6  A    between atoms: C14_19  and  O4_20 
REMARK    7  A    between atoms: O4_20  and  C15_21 
REMARK    8  A    between atoms: C15_21  and  C16_22 
ROOT
HETATM    1  C1  UNL     1      26.681   2.988  49.533  1.00  0.00     0.068 C 
HETATM    2  C2  UNL     1      26.166   4.320  49.265  1.00  0.00     0.007 C 
HETATM    3  C3  UNL     1      27.034   5.270  48.971  1.00  0.00     0.025 C 
HETATM    4  C4  UNL     1      26.932   6.688  48.648  1.00  0.00     0.019 C 
HETATM    5  C5  UNL     1      25.992   7.487  48.134  1.00  0.00     0.031 C 
HETATM    6  C9  UNL     1      24.620   7.137  47.690  1.00  0.00     0.015 C 
HETATM    7  C10 UNL     1      23.781   6.182  48.087  1.00  0.00     0.006 C 
HETATM    8  C11 UNL     1      23.546   5.037  48.992  1.00  0.00     0.170 C 
HETATM    9  C12 UNL     1      22.744   3.976  48.319  1.00  0.00     0.108 C 
HETATM   10  C13 UNL     1      23.045   2.907  49.064  1.00  0.00     0.173 C 
HETATM   11  F1  UNL     1      22.472   1.710  48.731  1.00  0.00    -0.203 F 
HETATM   12  C14 UNL     1      24.008   3.378  50.148  1.00  0.00     0.290 C 
HETATM   13  N2  UNL     1      24.755   4.348  49.377  1.00  0.00    -0.338 N 
ENDROOT
BRANCH  12  14
HETATM   14  O4  UNL     1      23.320   3.975  51.166  1.00  0.00    -0.355 OA
BRANCH  14  15
HETATM   15  C15 UNL     1      22.845   3.217  52.182  1.00  0.00     0.209 C 
BRANCH  15  16
HETATM   16  C16 UNL     1      23.799   2.225  52.727  1.00  0.00    -0.034 A 
HETATM   17  C17 UNL     1      23.661   0.852  52.698  1.00  0.00     0.012 A 
HETATM   18  C18 UNL     1      24.584  -0.011  53.217  1.00  0.00     0.043 A 
HETATM   19  C19 UNL     1      25.734   0.466  53.813  1.00  0.00     0.116 A 
HETATM   20  F2  UNL     1      26.614  -0.434  54.309  1.00  0.00    -0.206 F 
HETATM   21  C20 UNL     1      25.945   1.830  53.881  1.00  0.00     0.043 A 
HETATM   22  C21 UNL     1      24.983   2.652  53.341  1.00  0.00     0.012 A 
ENDBRANCH  15  16
ENDBRANCH  14  15
ENDBRANCH  12  14
BRANCH   9  23
HETATM   23  O3  UNL     1      21.938   4.182  47.220  1.00  0.00    -0.360 OA
HETATM   24  H15 UNL     1      20.933   4.166  47.275  1.00  0.00     0.217 HD
ENDBRANCH   9  23
BRANCH   5  25
HETATM   25  C6  UNL     1      26.246   8.884  47.949  1.00  0.00     0.251 C 
HETATM   26  O1  UNL     1      25.577   9.547  47.094  1.00  0.00    -0.268 OA
HETATM   27  N1  UNL     1      27.161   9.724  48.577  1.00  0.00    -0.355 N 
HETATM   28  H6  UNL     1      27.783   9.321  49.309  1.00  0.00     0.162 HD
BRANCH  27  29
HETATM   29  C7  UNL     1      27.356  11.138  48.327  1.00  0.00     0.148 C 
BRANCH  29  30
HETATM   30  C8  UNL     1      28.629  11.662  48.955  1.00  0.00     0.183 C 
BRANCH  30  31
HETATM   31  O2  UNL     1      28.410  12.832  49.682  1.00  0.00    -0.399 OA
HETATM   32  H11 UNL     1      27.913  12.608  50.505  1.00  0.00     0.209 HD
ENDBRANCH  30  31
ENDBRANCH  29  30
ENDBRANCH  27  29
ENDBRANCH   5  25
TORSDOF 8
ENDMDL
