MODEL 1
REMARK VINA RESULT:      -7.3      0.000      0.000
REMARK  6 active torsions:
REMARK  status: ('A' for Active; 'I' for Inactive)
REMARK    1  A    between atoms: C2_2  and  C3_3 
REMARK       I    between atoms: C3_3  and  N1_5 
REMARK    2  A    between atoms: N1_5  and  C4_6 
REMARK    3  A    between atoms: C6_8  and  C7_9 
REMARK    4  A    between atoms: C9_11  and  N2_12 
REMARK    5  A    between atoms: N2_12  and  C10_13 
REMARK    6  A    between atoms: C16_20  and  C17_21 
ROOT
HETATM    1  C7  UNL     1      23.093   2.522  52.432  1.00  0.00     0.138 A 
HETATM    2  C8  UNL     1      24.503   2.367  52.854  1.00  0.00     0.089 A 
HETATM    3  C9  UNL     1      25.449   2.638  51.771  1.00  0.00     0.023 A 
HETATM    4  C16 UNL     1      25.227   2.983  50.530  1.00  0.00    -0.000 A 
HETATM    5  C19 UNL     1      23.824   3.105  50.228  1.00  0.00     0.124 A 
HETATM    6  N3  UNL     1      22.949   2.897  51.075  1.00  0.00    -0.291 NA
ENDROOT
BRANCH   1   7
HETATM    7  C6  UNL     1      22.282   1.285  52.747  1.00  0.00     0.025 C 
HETATM    8  C4  UNL     1      20.966   1.257  52.902  1.00  0.00     0.006 C 
HETATM    9  C5  UNL     1      20.421  -0.085  53.205  1.00  0.00     0.068 C 
BRANCH   8  10
HETATM   10  N1  UNL     1      20.362   2.541  52.743  1.00  0.00    -0.328 N 
HETATM   11  C3  UNL     1      19.469   2.582  51.635  1.00  0.00     0.244 C 
HETATM   12  O1  UNL     1      19.395   1.486  51.028  1.00  0.00    -0.268 OA
HETATM   13  H4  UNL     1      20.547   3.362  53.360  1.00  0.00     0.169 HD
BRANCH  11  14
HETATM   14  C2  UNL     1      18.756   3.818  51.314  1.00  0.00     0.064 C 
HETATM   15  C1  UNL     1      17.435   4.026  51.305  1.00  0.00     0.017 C 
ENDBRANCH  11  14
ENDBRANCH   8  10
ENDBRANCH   1   7
BRANCH   3  16
HETATM   16  N2  UNL     1      26.771   2.463  52.280  1.00  0.00    -0.358 N 
HETATM   17  H12 UNL     1      27.505   3.174  52.485  1.00  0.00     0.166 HD
BRANCH  16  18
HETATM   18  C10 UNL     1      27.203   1.141  52.569  1.00  0.00     0.046 A 
HETATM   19  C11 UNL     1      28.252   0.902  53.335  1.00  0.00     0.019 A 
HETATM   20 BR1  UNL     1      29.281   2.304  54.121  1.00  0.00    -0.053 Br
HETATM   21  C12 UNL     1      28.470  -0.569  53.463  1.00  0.00     0.082 A 
HETATM   22  C13 UNL     1      27.363  -1.132  52.638  1.00  0.00    -0.077 A 
HETATM   23  C14 UNL     1      27.120  -2.584  52.429  1.00  0.00     0.044 C 
HETATM   24  C15 UNL     1      26.636  -0.129  52.125  1.00  0.00     0.033 A 
ENDBRANCH  16  18
ENDBRANCH   3  16
BRANCH   4  25
HETATM   25  C17 UNL     1      26.320   3.203  49.618  1.00  0.00     0.006 C 
HETATM   26  C18 UNL     1      26.477   4.478  49.241  1.00  0.00     0.014 C 
ENDBRANCH   4  25
TORSDOF 6
ENDMDL
MODEL 2
REMARK VINA RESULT:      -7.2      3.381      5.945
REMARK  6 active torsions:
REMARK  status: ('A' for Active; 'I' for Inactive)
REMARK    1  A    between atoms: C2_2  and  C3_3 
REMARK       I    between atoms: C3_3  and  N1_5 
REMARK    2  A    between atoms: N1_5  and  C4_6 
REMARK    3  A    between atoms: C6_8  and  C7_9 
REMARK    4  A    between atoms: C9_11  and  N2_12 
REMARK    5  A    between atoms: N2_12  and  C10_13 
REMARK    6  A    between atoms: C16_20  and  C17_21 
ROOT
HETATM    1  C7  UNL     1      24.319   1.798  52.392  1.00  0.00     0.138 A 
HETATM    2  C8  UNL     1      24.529   3.244  52.158  1.00  0.00     0.089 A 
HETATM    3  C9  UNL     1      23.714   3.762  51.058  1.00  0.00     0.023 A 
HETATM    4  C16 UNL     1      22.860   3.145  50.284  1.00  0.00    -0.000 A 
HETATM    5  C19 UNL     1      22.735   1.746  50.598  1.00  0.00     0.124 A 
HETATM    6  N3  UNL     1      23.380   1.215  51.508  1.00  0.00    -0.291 NA
ENDROOT
BRANCH   1   7
HETATM    7  C6  UNL     1      25.627   1.039  52.377  1.00  0.00     0.025 C 
HETATM    8  C4  UNL     1      25.799  -0.192  52.839  1.00  0.00     0.006 C 
HETATM    9  C5  UNL     1      27.182  -0.701  52.703  1.00  0.00     0.068 C 
BRANCH   8  10
HETATM   10  N1  UNL     1      24.600  -0.755  53.371  1.00  0.00    -0.328 N 
HETATM   11  C3  UNL     1      24.658  -0.910  54.785  1.00  0.00     0.244 C 
HETATM   12  O1  UNL     1      25.747  -0.521  55.273  1.00  0.00    -0.268 OA
HETATM   13  H4  UNL     1      23.770  -1.027  52.799  1.00  0.00     0.169 HD
BRANCH  11  14
HETATM   14  C2  UNL     1      23.519  -1.473  55.507  1.00  0.00     0.064 C 
HETATM   15  C1  UNL     1      22.247  -1.555  55.100  1.00  0.00     0.017 C 
ENDBRANCH  11  14
ENDBRANCH   8  10
ENDBRANCH   1   7
BRANCH   3  16
HETATM   16  N2  UNL     1      23.989   5.156  50.919  1.00  0.00    -0.358 N 
HETATM   17  H12 UNL     1      23.497   5.976  51.333  1.00  0.00     0.166 HD
BRANCH  16  18
HETATM   18  C10 UNL     1      25.088   5.539  50.105  1.00  0.00     0.046 A 
HETATM   19  C11 UNL     1      25.182   6.749  49.583  1.00  0.00     0.019 A 
HETATM   20 BR1  UNL     1      23.854   8.088  49.872  1.00  0.00    -0.053 Br
HETATM   21  C12 UNL     1      26.433   6.866  48.778  1.00  0.00     0.082 A 
HETATM   22  C13 UNL     1      27.042   5.512  48.930  1.00  0.00    -0.077 A 
HETATM   23  C14 UNL     1      28.328   5.091  48.313  1.00  0.00     0.044 C 
HETATM   24  C15 UNL     1      26.251   4.753  49.702  1.00  0.00     0.033 A 
ENDBRANCH  16  18
ENDBRANCH   3  16
BRANCH   4  25
HETATM   25  C17 UNL     1      22.156   3.857  49.248  1.00  0.00     0.006 C 
HETATM   26  C18 UNL     1      22.578   3.585  48.007  1.00  0.00     0.014 C 
ENDBRANCH   4  25
TORSDOF 6
ENDMDL
MODEL 3
REMARK VINA RESULT:      -7.2      3.454      6.076
REMARK  6 active torsions:
REMARK  status: ('A' for Active; 'I' for Inactive)
REMARK    1  A    between atoms: C2_2  and  C3_3 
REMARK       I    between atoms: C3_3  and  N1_5 
REMARK    2  A    between atoms: N1_5  and  C4_6 
REMARK    3  A    between atoms: C6_8  and  C7_9 
REMARK    4  A    between atoms: C9_11  and  N2_12 
REMARK    5  A    between atoms: N2_12  and  C10_13 
REMARK    6  A    between atoms: C16_20  and  C17_21 
ROOT
HETATM    1  C7  UNL     1      24.527   4.629  50.095  1.00  0.00     0.138 A 
HETATM    2  C8  UNL     1      24.307   3.897  51.361  1.00  0.00     0.089 A 
HETATM    3  C9  UNL     1      23.425   2.741  51.200  1.00  0.00     0.023 A 
HETATM    4  C16 UNL     1      22.827   2.285  50.130  1.00  0.00    -0.000 A 
HETATM    5  C19 UNL     1      23.108   3.071  48.957  1.00  0.00     0.124 A 
HETATM    6  N3  UNL     1      23.841   4.065  48.991  1.00  0.00    -0.291 NA
ENDROOT
BRANCH   1   7
HETATM    7  C6  UNL     1      24.207   6.100  50.242  1.00  0.00     0.025 C 
HETATM    8  C4  UNL     1      25.096   7.081  50.188  1.00  0.00     0.006 C 
HETATM    9  C5  UNL     1      24.518   8.432  50.363  1.00  0.00     0.068 C 
BRANCH   8  10
HETATM   10  N1  UNL     1      26.427   6.611  49.972  1.00  0.00    -0.328 N 
HETATM   11  C3  UNL     1      26.862   6.820  48.633  1.00  0.00     0.244 C 
HETATM   12  O1  UNL     1      25.990   7.372  47.918  1.00  0.00    -0.268 OA
HETATM   13  H4  UNL     1      27.022   6.164  50.704  1.00  0.00     0.169 HD
BRANCH  11  14
HETATM   14  C2  UNL     1      28.202   6.401  48.224  1.00  0.00     0.064 C 
HETATM   15  C1  UNL     1      28.739   5.178  48.299  1.00  0.00     0.017 C 
ENDBRANCH  11  14
ENDBRANCH   8  10
ENDBRANCH   1   7
BRANCH   3  16
HETATM   16  N2  UNL     1      23.281   2.108  52.471  1.00  0.00    -0.358 N 
HETATM   17  H12 UNL     1      22.599   2.297  53.235  1.00  0.00     0.166 HD
BRANCH  16  18
HETATM   18  C10 UNL     1      24.177   1.054  52.794  1.00  0.00     0.046 A 
HETATM   19  C11 UNL     1      23.785  -0.015  53.464  1.00  0.00     0.019 A 
HETATM   20 BR1  UNL     1      21.986  -0.242  54.057  1.00  0.00    -0.053 Br
HETATM   21  C12 UNL     1      24.933  -0.949  53.658  1.00  0.00     0.082 A 
HETATM   22  C13 UNL     1      26.052  -0.230  52.983  1.00  0.00    -0.077 A 
HETATM   23  C14 UNL     1      27.446  -0.739  52.886  1.00  0.00     0.044 C 
HETATM   24  C15 UNL     1      25.600   0.931  52.486  1.00  0.00     0.033 A 
ENDBRANCH  16  18
ENDBRANCH   3  16
BRANCH   4  25
HETATM   25  C17 UNL     1      21.990   1.114  50.194  1.00  0.00     0.006 C 
HETATM   26  C18 UNL     1      21.249   0.903  49.099  1.00  0.00     0.014 C 
ENDBRANCH   4  25
TORSDOF 6
ENDMDL
MODEL 4
REMARK VINA RESULT:      -7.2      3.352      6.019
REMARK  6 active torsions:
REMARK  status: ('A' for Active; 'I' for Inactive)
REMARK    1  A    between atoms: C2_2  and  C3_3 
REMARK       I    between atoms: C3_3  and  N1_5 
REMARK    2  A    between atoms: N1_5  and  C4_6 
REMARK    3  A    between atoms: C6_8  and  C7_9 
REMARK    4  A    between atoms: C9_11  and  N2_12 
REMARK    5  A    between atoms: N2_12  and  C10_13 
REMARK    6  A    between atoms: C16_20  and  C17_21 
ROOT
HETATM    1  C7  UNL     1      27.365   1.641  52.786  1.00  0.00     0.138 A 
HETATM    2  C8  UNL     1      26.770   1.978  51.474  1.00  0.00     0.089 A 
HETATM    3  C9  UNL     1      25.464   2.627  51.596  1.00  0.00     0.023 A 
HETATM    4  C16 UNL     1      24.778   2.937  52.665  1.00  0.00    -0.000 A 
HETATM    5  C19 UNL     1      25.448   2.565  53.884  1.00  0.00     0.124 A 
HETATM    6  N3  UNL     1      26.553   2.013  53.885  1.00  0.00    -0.291 NA
ENDROOT
BRANCH   1   7
HETATM    7  C6  UNL     1      27.751   0.180  52.861  1.00  0.00     0.025 C 
HETATM    8  C4  UNL     1      26.902  -0.836  52.801  1.00  0.00     0.006 C 
HETATM    9  C5  UNL     1      27.543  -2.165  52.899  1.00  0.00     0.068 C 
BRANCH   8  10
HETATM   10  N1  UNL     1      25.545  -0.415  52.655  1.00  0.00    -0.328 N 
HETATM   11  C3  UNL     1      24.760  -0.721  53.802  1.00  0.00     0.244 C 
HETATM   12  O1  UNL     1      25.417  -1.296  54.704  1.00  0.00    -0.268 OA
HETATM   13  H4  UNL     1      25.162   0.062  51.809  1.00  0.00     0.169 HD
BRANCH  11  14
HETATM   14  C2  UNL     1      23.342  -0.365  53.835  1.00  0.00     0.064 C 
HETATM   15  C1  UNL     1      22.536  -0.107  52.800  1.00  0.00     0.017 C 
ENDBRANCH  11  14
ENDBRANCH   8  10
ENDBRANCH   1   7
BRANCH   3  16
HETATM   16  N2  UNL     1      24.982   2.909  50.283  1.00  0.00    -0.358 N 
HETATM   17  H12 UNL     1      24.269   2.407  49.713  1.00  0.00     0.166 HD
BRANCH  16  18
HETATM   18  C10 UNL     1      25.522   4.035  49.604  1.00  0.00     0.046 A 
HETATM   19  C11 UNL     1      24.751   4.983  49.102  1.00  0.00     0.019 A 
HETATM   20 BR1  UNL     1      22.849   4.929  49.242  1.00  0.00    -0.053 Br
HETATM   21  C12 UNL     1      25.587   6.033  48.449  1.00  0.00     0.082 A 
HETATM   22  C13 UNL     1      26.972   5.522  48.664  1.00  0.00    -0.077 A 
HETATM   23  C14 UNL     1      28.206   6.209  48.199  1.00  0.00     0.044 C 
HETATM   24  C15 UNL     1      26.920   4.362  49.335  1.00  0.00     0.033 A 
ENDBRANCH  16  18
ENDBRANCH   3  16
BRANCH   4  25
HETATM   25  C17 UNL     1      23.495   3.582  52.557  1.00  0.00     0.006 C 
HETATM   26  C18 UNL     1      23.485   4.862  52.949  1.00  0.00     0.014 C 
ENDBRANCH   4  25
TORSDOF 6
ENDMDL
MODEL 5
REMARK VINA RESULT:      -7.2      3.305      6.987
REMARK  6 active torsions:
REMARK  status: ('A' for Active; 'I' for Inactive)
REMARK    1  A    between atoms: C2_2  and  C3_3 
REMARK       I    between atoms: C3_3  and  N1_5 
REMARK    2  A    between atoms: N1_5  and  C4_6 
REMARK    3  A    between atoms: C6_8  and  C7_9 
REMARK    4  A    between atoms: C9_11  and  N2_12 
REMARK    5  A    between atoms: N2_12  and  C10_13 
REMARK    6  A    between atoms: C16_20  and  C17_21 
ROOT
HETATM    1  C7  UNL     1      26.838   1.783  52.542  1.00  0.00     0.138 A 
HETATM    2  C8  UNL     1      25.470   2.055  53.037  1.00  0.00     0.089 A 
HETATM    3  C9  UNL     1      24.652   2.782  52.066  1.00  0.00     0.023 A 
HETATM    4  C16 UNL     1      24.954   3.208  50.867  1.00  0.00    -0.000 A 
HETATM    5  C19 UNL     1      26.306   2.891  50.487  1.00  0.00     0.124 A 
HETATM    6  N3  UNL     1      27.074   2.280  51.237  1.00  0.00    -0.291 NA
ENDROOT
BRANCH   1   7
HETATM    7  C6  UNL     1      27.887   2.276  53.513  1.00  0.00     0.025 C 
HETATM    8  C4  UNL     1      29.025   1.654  53.785  1.00  0.00     0.006 C 
HETATM    9  C5  UNL     1      29.875   2.353  54.773  1.00  0.00     0.068 C 
BRANCH   8  10
HETATM   10  N1  UNL     1      29.177   0.435  53.057  1.00  0.00    -0.328 N 
HETATM   11  C3  UNL     1      28.963  -0.711  53.874  1.00  0.00     0.244 C 
HETATM   12  O1  UNL     1      28.686  -0.417  55.063  1.00  0.00    -0.268 OA
HETATM   13  H4  UNL     1      29.418   0.378  52.043  1.00  0.00     0.169 HD
BRANCH  11  14
HETATM   14  C2  UNL     1      29.076  -2.051  53.300  1.00  0.00     0.064 C 
HETATM   15  C1  UNL     1      28.104  -2.805  52.775  1.00  0.00     0.017 C 
ENDBRANCH  11  14
ENDBRANCH   8  10
ENDBRANCH   1   7
BRANCH   3  16
HETATM   16  N2  UNL     1      23.361   2.991  52.638  1.00  0.00    -0.358 N 
HETATM   17  H12 UNL     1      22.907   3.874  52.953  1.00  0.00     0.166 HD
BRANCH  16  18
HETATM   18  C10 UNL     1      22.526   1.857  52.826  1.00  0.00     0.046 A 
HETATM   19  C11 UNL     1      21.259   1.853  52.452  1.00  0.00     0.019 A 
HETATM   20 BR1  UNL     1      20.436   3.365  51.629  1.00  0.00    -0.053 Br
HETATM   21  C12 UNL     1      20.633   0.536  52.773  1.00  0.00     0.082 A 
HETATM   22  C13 UNL     1      21.762  -0.215  53.395  1.00  0.00    -0.077 A 
HETATM   23  C14 UNL     1      21.669  -1.609  53.902  1.00  0.00     0.044 C 
HETATM   24  C15 UNL     1      22.854   0.563  53.419  1.00  0.00     0.033 A 
ENDBRANCH  16  18
ENDBRANCH   3  16
BRANCH   4  25
HETATM   25  C17 UNL     1      23.983   3.913  50.069  1.00  0.00     0.006 C 
HETATM   26  C18 UNL     1      23.499   3.209  49.038  1.00  0.00     0.014 C 
ENDBRANCH   4  25
TORSDOF 6
ENDMDL
MODEL 6
REMARK VINA RESULT:      -7.1      3.452      6.925
REMARK  6 active torsions:
REMARK  status: ('A' for Active; 'I' for Inactive)
REMARK    1  A    between atoms: C2_2  and  C3_3 
REMARK       I    between atoms: C3_3  and  N1_5 
REMARK    2  A    between atoms: N1_5  and  C4_6 
REMARK    3  A    between atoms: C6_8  and  C7_9 
REMARK    4  A    between atoms: C9_11  and  N2_12 
REMARK    5  A    between atoms: N2_12  and  C10_13 
REMARK    6  A    between atoms: C16_20  and  C17_21 
ROOT
HETATM    1  C7  UNL     1      25.961   1.788  52.270  1.00  0.00     0.138 A 
HETATM    2  C8  UNL     1      25.768   2.414  50.944  1.00  0.00     0.089 A 
HETATM    3  C9  UNL     1      24.710   3.425  50.946  1.00  0.00     0.023 A 
HETATM    4  C16 UNL     1      23.943   3.835  51.922  1.00  0.00    -0.000 A 
HETATM    5  C19 UNL     1      24.215   3.160  53.165  1.00  0.00     0.124 A 
HETATM    6  N3  UNL     1      25.088   2.292  53.264  1.00  0.00    -0.291 NA
ENDROOT
BRANCH   1   7
HETATM    7  C6  UNL     1      25.883   0.279  52.188  1.00  0.00     0.025 C 
HETATM    8  C4  UNL     1      26.877  -0.551  52.467  1.00  0.00     0.006 C 
HETATM    9  C5  UNL     1      26.534  -1.981  52.305  1.00  0.00     0.068 C 
BRANCH   8  10
HETATM   10  N1  UNL     1      28.069   0.126  52.864  1.00  0.00    -0.328 N 
HETATM   11  C3  UNL     1      28.183   0.231  54.280  1.00  0.00     0.244 C 
HETATM   12  O1  UNL     1      27.216  -0.291  54.886  1.00  0.00    -0.268 OA
HETATM   13  H4  UNL     1      28.782   0.506  52.203  1.00  0.00     0.169 HD
BRANCH  11  14
HETATM   14  C2  UNL     1      29.342   0.896  54.874  1.00  0.00     0.064 C 
HETATM   15  C1  UNL     1      29.775   2.143  54.656  1.00  0.00     0.017 C 
ENDBRANCH  11  14
ENDBRANCH   8  10
ENDBRANCH   1   7
BRANCH   3  16
HETATM   16  N2  UNL     1      24.607   3.965  49.629  1.00  0.00    -0.358 N 
HETATM   17  H12 UNL     1      23.844   3.865  48.926  1.00  0.00     0.166 HD
BRANCH  16  18
HETATM   18  C10 UNL     1      25.677   4.769  49.153  1.00  0.00     0.046 A 
HETATM   19  C11 UNL     1      25.492   6.016  48.759  1.00  0.00     0.019 A 
HETATM   20 BR1  UNL     1      23.776   6.850  48.792  1.00  0.00    -0.053 Br
HETATM   21  C12 UNL     1      26.786   6.611  48.313  1.00  0.00     0.082 A 
HETATM   22  C13 UNL     1      27.746   5.488  48.520  1.00  0.00    -0.077 A 
HETATM   23  C14 UNL     1      29.202   5.557  48.226  1.00  0.00     0.044 C 
HETATM   24  C15 UNL     1      27.089   4.425  49.008  1.00  0.00     0.033 A 
ENDBRANCH  16  18
ENDBRANCH   3  16
BRANCH   4  25
HETATM   25  C17 UNL     1      22.952   4.857  51.703  1.00  0.00     0.006 C 
HETATM   26  C18 UNL     1      21.690   4.456  51.906  1.00  0.00     0.014 C 
ENDBRANCH   4  25
TORSDOF 6
ENDMDL
MODEL 7
REMARK VINA RESULT:      -7.1      3.050      6.739
REMARK  6 active torsions:
REMARK  status: ('A' for Active; 'I' for Inactive)
REMARK    1  A    between atoms: C2_2  and  C3_3 
REMARK       I    between atoms: C3_3  and  N1_5 
REMARK    2  A    between atoms: N1_5  and  C4_6 
REMARK    3  A    between atoms: C6_8  and  C7_9 
REMARK    4  A    between atoms: C9_11  and  N2_12 
REMARK    5  A    between atoms: N2_12  and  C10_13 
REMARK    6  A    between atoms: C16_20  and  C17_21 
ROOT
HETATM    1  C7  UNL     1      24.476   0.320  53.147  1.00  0.00     0.138 A 
HETATM    2  C8  UNL     1      24.308   1.140  51.928  1.00  0.00     0.089 A 
HETATM    3  C9  UNL     1      22.909   1.474  51.660  1.00  0.00     0.023 A 
HETATM    4  C16 UNL     1      21.829   1.159  52.327  1.00  0.00    -0.000 A 
HETATM    5  C19 UNL     1      22.107   0.361  53.493  1.00  0.00     0.124 A 
HETATM    6  N3  UNL     1      23.255   0.027  53.803  1.00  0.00    -0.291 NA
ENDROOT
BRANCH   1   7
HETATM    7  C6  UNL     1      25.259  -0.943  52.863  1.00  0.00     0.025 C 
HETATM    8  C4  UNL     1      26.575  -1.005  52.714  1.00  0.00     0.006 C 
HETATM    9  C5  UNL     1      27.088  -2.366  52.443  1.00  0.00     0.068 C 
BRANCH   8  10
HETATM   10  N1  UNL     1      27.208   0.267  52.849  1.00  0.00    -0.328 N 
HETATM   11  C3  UNL     1      28.144   0.292  53.922  1.00  0.00     0.244 C 
HETATM   12  O1  UNL     1      28.221  -0.805  54.527  1.00  0.00    -0.268 OA
HETATM   13  H4  UNL     1      27.015   1.092  52.239  1.00  0.00     0.169 HD
BRANCH  11  14
HETATM   14  C2  UNL     1      28.892   1.515  54.213  1.00  0.00     0.064 C 
HETATM   15  C1  UNL     1      28.885   2.664  53.530  1.00  0.00     0.017 C 
ENDBRANCH  11  14
ENDBRANCH   8  10
ENDBRANCH   1   7
BRANCH   3  16
HETATM   16  N2  UNL     1      22.858   2.263  50.472  1.00  0.00    -0.358 N 
HETATM   17  H12 UNL     1      22.169   2.246  49.691  1.00  0.00     0.166 HD
BRANCH  16  18
HETATM   18  C10 UNL     1      23.876   3.234  50.274  1.00  0.00     0.046 A 
HETATM   19  C11 UNL     1      23.783   4.454  50.770  1.00  0.00     0.019 A 
HETATM   20 BR1  UNL     1      22.277   5.025  51.795  1.00  0.00    -0.053 Br
HETATM   21  C12 UNL     1      24.991   5.251  50.405  1.00  0.00     0.082 A 
HETATM   22  C13 UNL     1      25.793   4.275  49.613  1.00  0.00    -0.077 A 
HETATM   23  C14 UNL     1      27.117   4.569  49.002  1.00  0.00     0.044 C 
HETATM   24  C15 UNL     1      25.135   3.108  49.544  1.00  0.00     0.033 A 
ENDBRANCH  16  18
ENDBRANCH   3  16
BRANCH   4  25
HETATM   25  C17 UNL     1      20.531   1.599  51.881  1.00  0.00     0.006 C 
HETATM   26  C18 UNL     1      19.587   0.651  51.908  1.00  0.00     0.014 C 
ENDBRANCH   4  25
TORSDOF 6
ENDMDL
MODEL 8
REMARK VINA RESULT:      -7.1      3.118      6.784
REMARK  6 active torsions:
REMARK  status: ('A' for Active; 'I' for Inactive)
REMARK    1  A    between atoms: C2_2  and  C3_3 
REMARK       I    between atoms: C3_3  and  N1_5 
REMARK    2  A    between atoms: N1_5  and  C4_6 
REMARK    3  A    between atoms: C6_8  and  C7_9 
REMARK    4  A    between atoms: C9_11  and  N2_12 
REMARK    5  A    between atoms: N2_12  and  C10_13 
REMARK    6  A    between atoms: C16_20  and  C17_21 
ROOT
HETATM    1  C7  UNL     1      25.473   0.667  52.260  1.00  0.00     0.138 A 
HETATM    2  C8  UNL     1      24.268   1.140  51.545  1.00  0.00     0.089 A 
HETATM    3  C9  UNL     1      24.496   2.390  50.819  1.00  0.00     0.023 A 
HETATM    4  C16 UNL     1      25.579   3.117  50.720  1.00  0.00    -0.000 A 
HETATM    5  C19 UNL     1      26.689   2.566  51.453  1.00  0.00     0.124 A 
HETATM    6  N3  UNL     1      26.595   1.516  52.097  1.00  0.00    -0.291 NA
ENDROOT
BRANCH   1   7
HETATM    7  C6  UNL     1      25.187   0.415  53.724  1.00  0.00     0.025 C 
HETATM    8  C4  UNL     1      25.948  -0.305  54.536  1.00  0.00     0.006 C 
HETATM    9  C5  UNL     1      25.438  -0.393  55.922  1.00  0.00     0.068 C 
BRANCH   8  10
HETATM   10  N1  UNL     1      27.099  -0.842  53.884  1.00  0.00    -0.328 N 
HETATM   11  C3  UNL     1      28.302  -0.207  54.307  1.00  0.00     0.244 C 
HETATM   12  O1  UNL     1      28.105   0.690  55.162  1.00  0.00    -0.268 OA
HETATM   13  H4  UNL     1      27.075  -1.609  53.178  1.00  0.00     0.169 HD
BRANCH  11  14
HETATM   14  C2  UNL     1      29.586  -0.625  53.746  1.00  0.00     0.064 C 
HETATM   15  C1  UNL     1      29.955  -1.852  53.364  1.00  0.00     0.017 C 
ENDBRANCH  11  14
ENDBRANCH   8  10
ENDBRANCH   1   7
BRANCH   3  16
HETATM   16  N2  UNL     1      23.281   2.756  50.168  1.00  0.00    -0.358 N 
HETATM   17  H12 UNL     1      23.132   3.275  49.277  1.00  0.00     0.166 HD
BRANCH  16  18
HETATM   18  C10 UNL     1      22.057   2.379  50.783  1.00  0.00     0.046 A 
HETATM   19  C11 UNL     1      21.466   3.139  51.687  1.00  0.00     0.019 A 
HETATM   20 BR1  UNL     1      22.200   4.808  52.251  1.00  0.00    -0.053 Br
HETATM   21  C12 UNL     1      20.205   2.494  52.157  1.00  0.00     0.082 A 
HETATM   22  C13 UNL     1      20.174   1.232  51.363  1.00  0.00    -0.077 A 
HETATM   23  C14 UNL     1      19.102   0.205  51.452  1.00  0.00     0.044 C 
HETATM   24  C15 UNL     1      21.254   1.177  50.570  1.00  0.00     0.033 A 
ENDBRANCH  16  18
ENDBRANCH   3  16
BRANCH   4  25
HETATM   25  C17 UNL     1      25.585   4.329  49.942  1.00  0.00     0.006 C 
HETATM   26  C18 UNL     1      26.674   4.491  49.180  1.00  0.00     0.014 C 
ENDBRANCH   4  25
TORSDOF 6
ENDMDL
MODEL 9
REMARK VINA RESULT:      -6.9      3.681      7.164
REMARK  6 active torsions:
REMARK  status: ('A' for Active; 'I' for Inactive)
REMARK    1  A    between atoms: C2_2  and  C3_3 
REMARK       I    between atoms: C3_3  and  N1_5 
REMARK    2  A    between atoms: N1_5  and  C4_6 
REMARK    3  A    between atoms: C6_8  and  C7_9 
REMARK    4  A    between atoms: C9_11  and  N2_12 
REMARK    5  A    between atoms: N2_12  and  C10_13 
REMARK    6  A    between atoms: C16_20  and  C17_21 
ROOT
HETATM    1  C7  UNL     1      24.713   1.199  52.706  1.00  0.00     0.138 A 
HETATM    2  C8  UNL     1      23.816   0.857  51.581  1.00  0.00     0.089 A 
HETATM    3  C9  UNL     1      23.109   2.022  51.047  1.00  0.00     0.023 A 
HETATM    4  C16 UNL     1      23.160   3.275  51.416  1.00  0.00    -0.000 A 
HETATM    5  C19 UNL     1      24.062   3.496  52.517  1.00  0.00     0.124 A 
HETATM    6  N3  UNL     1      24.703   2.576  53.036  1.00  0.00    -0.291 NA
ENDROOT
BRANCH   1   7
HETATM    7  C6  UNL     1      24.429   0.345  53.922  1.00  0.00     0.025 C 
HETATM    8  C4  UNL     1      25.227  -0.604  54.390  1.00  0.00     0.006 C 
HETATM    9  C5  UNL     1      24.710  -1.290  55.594  1.00  0.00     0.068 C 
BRANCH   8  10
HETATM   10  N1  UNL     1      26.419  -0.754  53.618  1.00  0.00    -0.328 N 
HETATM   11  C3  UNL     1      27.523  -0.061  54.193  1.00  0.00     0.244 C 
HETATM   12  O1  UNL     1      27.224   0.536  55.255  1.00  0.00    -0.268 OA
HETATM   13  H4  UNL     1      26.486  -1.304  52.734  1.00  0.00     0.169 HD
BRANCH  11  14
HETATM   14  C2  UNL     1      28.831  -0.100  53.541  1.00  0.00     0.064 C 
HETATM   15  C1  UNL     1      29.802  -1.006  53.700  1.00  0.00     0.017 C 
ENDBRANCH  11  14
ENDBRANCH   8  10
ENDBRANCH   1   7
BRANCH   3  16
HETATM   16  N2  UNL     1      22.279   1.585  49.972  1.00  0.00    -0.358 N 
HETATM   17  H12 UNL     1      22.496   1.495  48.957  1.00  0.00     0.166 HD
BRANCH  16  18
HETATM   18  C10 UNL     1      20.945   1.202  50.275  1.00  0.00     0.046 A 
HETATM   19  C11 UNL     1      19.920   1.597  49.542  1.00  0.00     0.019 A 
HETATM   20 BR1  UNL     1      20.136   2.718  48.012  1.00  0.00    -0.053 Br
HETATM   21  C12 UNL     1      18.649   1.044  50.094  1.00  0.00     0.082 A 
HETATM   22  C13 UNL     1      19.122   0.261  51.272  1.00  0.00    -0.077 A 
HETATM   23  C14 UNL     1      18.236  -0.505  52.187  1.00  0.00     0.044 C 
HETATM   24  C15 UNL     1      20.456   0.361  51.366  1.00  0.00     0.033 A 
ENDBRANCH  16  18
ENDBRANCH   3  16
BRANCH   4  25
HETATM   25  C17 UNL     1      22.370   4.275  50.744  1.00  0.00     0.006 C 
HETATM   26  C18 UNL     1      21.331   4.728  51.456  1.00  0.00     0.014 C 
ENDBRANCH   4  25
TORSDOF 6
ENDMDL
