MODEL 1
REMARK VINA RESULT:      -9.3      0.000      0.000
REMARK  4 active torsions:
REMARK  status: ('A' for Active; 'I' for Inactive)
REMARK    1  A    between atoms: C3_3  and  N1_5 
REMARK    2  A    between atoms: N1_5  and  C4_6 
REMARK    3  A    between atoms: C11_15  and  C12_16 
REMARK    4  A    between atoms: C16_22  and  C17_23 
ROOT
HETATM    1  C4  UNL     1      23.637   5.665  48.501  1.00  0.00     0.038 C 
HETATM    2  C5  UNL     1      24.883   6.105  48.405  1.00  0.00     0.046 C 
HETATM    3  C6  UNL     1      26.130   6.059  49.196  1.00  0.00     0.204 C 
HETATM    4  N2  UNL     1      26.101   6.926  50.344  1.00  0.00    -0.397 N 
HETATM    5  C7  UNL     1      24.837   7.566  50.578  1.00  0.00     0.135 C 
HETATM    6  C8  UNL     1      23.983   6.646  51.397  1.00  0.00     0.136 C 
HETATM    7  N3  UNL     1      22.814   6.170  50.770  1.00  0.00    -0.402 N 
HETATM    8  C9  UNL     1      21.690   7.071  50.812  1.00  0.00     0.144 C 
HETATM    9  C10 UNL     1      22.842   5.273  49.713  1.00  0.00     0.159 C 
HETATM   10  C11 UNL     1      23.282   3.860  50.041  1.00  0.00    -0.036 C 
HETATM   11  C14 UNL     1      24.432   3.411  50.531  1.00  0.00     0.045 A 
HETATM   12  C15 UNL     1      25.799   3.726  50.409  1.00  0.00     0.159 A 
HETATM   13  N4  UNL     1      26.467   2.841  51.210  1.00  0.00    -0.148 NA
HETATM   14  N5  UNL     1      25.584   2.043  51.783  1.00  0.00    -0.230 N 
HETATM   15  C16 UNL     1      25.460   1.007  52.634  1.00  0.00     0.072 A 
HETATM   16  C21 UNL     1      24.118   0.652  52.797  1.00  0.00     0.035 A 
HETATM   17  C22 UNL     1      23.397   1.516  52.003  1.00  0.00     0.035 A 
HETATM   18  C23 UNL     1      24.297   2.330  51.414  1.00  0.00     0.073 A 
HETATM   19  N8  UNL     1      26.495   4.738  49.646  1.00  0.00    -0.348 N 
HETATM   20  H7  UNL     1      26.920   7.541  50.460  1.00  0.00     0.155 HD
HETATM   21  H28 UNL     1      27.448   4.316  49.432  1.00  0.00     0.163 HD
ENDROOT
BRANCH   1  22
HETATM   22  N1  UNL     1      22.943   5.552  47.261  1.00  0.00    -0.339 N 
HETATM   23  H4  UNL     1      23.171   5.432  46.241  1.00  0.00     0.168 HD
BRANCH  22  24
HETATM   24  C3  UNL     1      21.535   5.588  47.137  1.00  0.00     0.140 A 
HETATM   25  C2  UNL     1      20.260   4.925  46.932  1.00  0.00     0.056 A 
HETATM   26  C1  UNL     1      19.741   6.122  47.038  1.00  0.00     0.209 A 
HETATM   27  O1  UNL     1      20.685   6.544  47.188  1.00  0.00    -0.332 OA
ENDBRANCH  22  24
ENDBRANCH   1  22
BRANCH  10  28
HETATM   28  C12 UNL     1      22.305   2.782  49.798  1.00  0.00     0.033 C 
HETATM   29  C13 UNL     1      22.491   2.204  48.363  1.00  0.00     0.010 C 
ENDBRANCH  10  28
BRANCH  15  30
HETATM   30  C17 UNL     1      26.565   0.331  53.310  1.00  0.00     0.029 A 
HETATM   31  C18 UNL     1      26.804   0.303  54.670  1.00  0.00     0.154 A 
HETATM   32  N6  UNL     1      27.933  -0.442  54.839  1.00  0.00    -0.185 NA
HETATM   33  N7  UNL     1      28.390  -0.866  53.672  1.00  0.00    -0.285 N 
HETATM   34  C19 UNL     1      29.571  -1.687  53.418  1.00  0.00     0.179 C 
HETATM   35  C20 UNL     1      27.570  -0.405  52.723  1.00  0.00     0.127 A 
ENDBRANCH  15  30
TORSDOF 4
ENDMDL
MODEL 2
REMARK VINA RESULT:      -8.5      2.045      2.691
REMARK  4 active torsions:
REMARK  status: ('A' for Active; 'I' for Inactive)
REMARK    1  A    between atoms: C3_3  and  N1_5 
REMARK    2  A    between atoms: N1_5  and  C4_6 
REMARK    3  A    between atoms: C11_15  and  C12_16 
REMARK    4  A    between atoms: C16_22  and  C17_23 
ROOT
HETATM    1  C4  UNL     1      21.109   3.082  48.829  1.00  0.00     0.038 C 
HETATM    2  C5  UNL     1      22.117   3.837  48.420  1.00  0.00     0.046 C 
HETATM    3  C6  UNL     1      23.409   4.326  48.947  1.00  0.00     0.204 C 
HETATM    4  N2  UNL     1      23.259   5.370  49.927  1.00  0.00    -0.397 N 
HETATM    5  C7  UNL     1      21.901   5.646  50.303  1.00  0.00     0.135 C 
HETATM    6  C8  UNL     1      21.515   4.710  51.409  1.00  0.00     0.136 C 
HETATM    7  N3  UNL     1      20.490   3.791  51.109  1.00  0.00    -0.402 N 
HETATM    8  C9  UNL     1      19.150   4.311  51.230  1.00  0.00     0.144 C 
HETATM    9  C10 UNL     1      20.661   2.739  50.222  1.00  0.00     0.159 C 
HETATM   10  C11 UNL     1      21.578   1.621  50.674  1.00  0.00    -0.036 C 
HETATM   11  C14 UNL     1      22.868   1.643  50.990  1.00  0.00     0.045 A 
HETATM   12  C15 UNL     1      24.027   2.311  50.552  1.00  0.00     0.159 A 
HETATM   13  N4  UNL     1      25.050   1.851  51.334  1.00  0.00    -0.148 NA
HETATM   14  N5  UNL     1      24.565   0.969  52.188  1.00  0.00    -0.230 N 
HETATM   15  C16 UNL     1      24.904   0.147  53.199  1.00  0.00     0.072 A 
HETATM   16  C21 UNL     1      23.786  -0.543  53.679  1.00  0.00     0.035 A 
HETATM   17  C22 UNL     1      22.720  -0.116  52.917  1.00  0.00     0.035 A 
HETATM   18  C23 UNL     1      23.216   0.782  52.041  1.00  0.00     0.073 A 
HETATM   19  N8  UNL     1      24.242   3.297  49.517  1.00  0.00    -0.348 N 
HETATM   20  H7  UNL     1      23.841   6.208  49.780  1.00  0.00     0.155 HD
HETATM   21  H28 UNL     1      25.242   3.139  49.188  1.00  0.00     0.163 HD
ENDROOT
BRANCH   1  22
HETATM   22  N1  UNL     1      20.325   2.511  47.786  1.00  0.00    -0.339 N 
HETATM   23  H4  UNL     1      20.291   1.621  47.225  1.00  0.00     0.168 HD
BRANCH  22  24
HETATM   24  C3  UNL     1      19.226   3.159  47.177  1.00  0.00     0.140 A 
HETATM   25  C2  UNL     1      18.100   3.161  46.260  1.00  0.00     0.056 A 
HETATM   26  C1  UNL     1      17.919   4.396  46.653  1.00  0.00     0.209 A 
HETATM   27  O1  UNL     1      18.735   4.335  47.301  1.00  0.00    -0.332 OA
ENDBRANCH  22  24
ENDBRANCH   1  22
BRANCH  10  28
HETATM   28  C12 UNL     1      20.981   0.277  50.801  1.00  0.00     0.033 C 
HETATM   29  C13 UNL     1      19.472   0.394  51.166  1.00  0.00     0.010 C 
ENDBRANCH  10  28
BRANCH  15  30
HETATM   30  C17 UNL     1      26.251  -0.016  53.740  1.00  0.00     0.029 A 
HETATM   31  C18 UNL     1      26.648   0.219  55.042  1.00  0.00     0.154 A 
HETATM   32  N6  UNL     1      27.980  -0.068  55.086  1.00  0.00    -0.185 NA
HETATM   33  N7  UNL     1      28.412  -0.461  53.899  1.00  0.00    -0.285 N 
HETATM   34  C19 UNL     1      29.767  -0.856  53.525  1.00  0.00     0.179 C 
HETATM   35  C20 UNL     1      27.372  -0.437  53.061  1.00  0.00     0.127 A 
ENDBRANCH  15  30
TORSDOF 4
ENDMDL
MODEL 3
REMARK VINA RESULT:      -8.3      7.015     10.058
REMARK  4 active torsions:
REMARK  status: ('A' for Active; 'I' for Inactive)
REMARK    1  A    between atoms: C3_3  and  N1_5 
REMARK    2  A    between atoms: N1_5  and  C4_6 
REMARK    3  A    between atoms: C11_15  and  C12_16 
REMARK    4  A    between atoms: C16_22  and  C17_23 
ROOT
HETATM    1  C4  UNL     1      34.144   6.137  45.799  1.00  0.00     0.038 C 
HETATM    2  C5  UNL     1      34.357   5.047  46.521  1.00  0.00     0.046 C 
HETATM    3  C6  UNL     1      33.806   4.406  47.733  1.00  0.00     0.204 C 
HETATM    4  N2  UNL     1      34.195   5.071  48.949  1.00  0.00    -0.397 N 
HETATM    5  C7  UNL     1      34.927   6.291  48.754  1.00  0.00     0.135 C 
HETATM    6  C8  UNL     1      33.944   7.413  48.592  1.00  0.00     0.136 C 
HETATM    7  N3  UNL     1      33.944   8.054  47.337  1.00  0.00    -0.402 N 
HETATM    8  C9  UNL     1      34.958   9.064  47.168  1.00  0.00     0.144 C 
HETATM    9  C10 UNL     1      33.494   7.436  46.179  1.00  0.00     0.159 C 
HETATM   10  C11 UNL     1      32.003   7.181  46.089  1.00  0.00    -0.036 C 
HETATM   11  C14 UNL     1      31.209   6.447  46.860  1.00  0.00     0.045 A 
HETATM   12  C15 UNL     1      31.295   5.236  47.573  1.00  0.00     0.159 A 
HETATM   13  N4  UNL     1      30.077   5.059  48.170  1.00  0.00    -0.148 NA
HETATM   14  N5  UNL     1      29.300   6.078  47.853  1.00  0.00    -0.230 N 
HETATM   15  C16 UNL     1      28.069   6.593  48.033  1.00  0.00     0.072 A 
HETATM   16  C21 UNL     1      27.927   7.804  47.348  1.00  0.00     0.035 A 
HETATM   17  C22 UNL     1      29.134   8.029  46.722  1.00  0.00     0.035 A 
HETATM   18  C23 UNL     1      29.927   6.986  47.042  1.00  0.00     0.073 A 
HETATM   19  N8  UNL     1      32.369   4.282  47.735  1.00  0.00    -0.348 N 
HETATM   20  H7  UNL     1      34.569   4.462  49.692  1.00  0.00     0.155 HD
HETATM   21  H28 UNL     1      31.887   3.344  47.878  1.00  0.00     0.163 HD
ENDROOT
BRANCH   1  22
HETATM   22  N1  UNL     1      34.608   6.065  44.454  1.00  0.00    -0.339 N 
HETATM   23  H4  UNL     1      35.470   6.315  43.905  1.00  0.00     0.168 HD
BRANCH  22  24
HETATM   24  C3  UNL     1      33.848   5.544  43.381  1.00  0.00     0.140 A 
HETATM   25  C2  UNL     1      32.795   5.672  42.391  1.00  0.00     0.056 A 
HETATM   26  C1  UNL     1      33.131   4.460  42.031  1.00  0.00     0.209 A 
HETATM   27  O1  UNL     1      33.880   4.426  42.759  1.00  0.00    -0.332 OA
ENDBRANCH  22  24
ENDBRANCH   1  22
BRANCH  10  28
HETATM   28  C12 UNL     1      31.279   7.839  44.984  1.00  0.00     0.033 C 
HETATM   29  C13 UNL     1      32.160   8.960  44.358  1.00  0.00     0.010 C 
ENDBRANCH  10  28
BRANCH  15  30
HETATM   30  C17 UNL     1      27.008   5.987  48.835  1.00  0.00     0.029 A 
HETATM   31  C18 UNL     1      26.779   4.636  49.009  1.00  0.00     0.154 A 
HETATM   32  N6  UNL     1      25.696   4.541  49.831  1.00  0.00    -0.185 NA
HETATM   33  N7  UNL     1      25.258   5.744  50.166  1.00  0.00    -0.285 N 
HETATM   34  C19 UNL     1      24.125   6.079  51.025  1.00  0.00     0.179 C 
HETATM   35  C20 UNL     1      26.045   6.643  49.568  1.00  0.00     0.127 A 
ENDBRANCH  15  30
TORSDOF 4
ENDMDL
MODEL 4
REMARK VINA RESULT:      -7.8      4.573      5.630
REMARK  4 active torsions:
REMARK  status: ('A' for Active; 'I' for Inactive)
REMARK    1  A    between atoms: C3_3  and  N1_5 
REMARK    2  A    between atoms: N1_5  and  C4_6 
REMARK    3  A    between atoms: C11_15  and  C12_16 
REMARK    4  A    between atoms: C16_22  and  C17_23 
ROOT
HETATM    1  C4  UNL     1      18.024   1.579  49.592  1.00  0.00     0.038 C 
HETATM    2  C5  UNL     1      18.924   2.111  48.778  1.00  0.00     0.046 C 
HETATM    3  C6  UNL     1      20.312   2.614  48.852  1.00  0.00     0.204 C 
HETATM    4  N2  UNL     1      20.414   3.890  49.509  1.00  0.00    -0.397 N 
HETATM    5  C7  UNL     1      19.186   4.368  50.080  1.00  0.00     0.135 C 
HETATM    6  C8  UNL     1      19.051   3.798  51.460  1.00  0.00     0.136 C 
HETATM    7  N3  UNL     1      17.966   2.921  51.660  1.00  0.00    -0.402 N 
HETATM    8  C9  UNL     1      16.702   3.564  51.920  1.00  0.00     0.144 C 
HETATM    9  C10 UNL     1      17.906   1.659  51.087  1.00  0.00     0.159 C 
HETATM   10  C11 UNL     1      18.881   0.631  51.622  1.00  0.00    -0.036 C 
HETATM   11  C14 UNL     1      20.210   0.629  51.631  1.00  0.00     0.045 A 
HETATM   12  C15 UNL     1      21.247   1.058  50.781  1.00  0.00     0.159 A 
HETATM   13  N4  UNL     1      22.416   0.740  51.418  1.00  0.00    -0.148 NA
HETATM   14  N5  UNL     1      22.125   0.163  52.569  1.00  0.00    -0.230 N 
HETATM   15  C16 UNL     1      22.674  -0.384  53.669  1.00  0.00     0.072 A 
HETATM   16  C21 UNL     1      21.686  -0.826  54.555  1.00  0.00     0.035 A 
HETATM   17  C22 UNL     1      20.480  -0.531  53.957  1.00  0.00     0.035 A 
HETATM   18  C23 UNL     1      20.776   0.055  52.778  1.00  0.00     0.073 A 
HETATM   19  N8  UNL     1      21.235   1.710  49.491  1.00  0.00    -0.348 N 
HETATM   20  H7  UNL     1      20.962   4.607  49.011  1.00  0.00     0.155 HD
HETATM   21  H28 UNL     1      22.128   1.386  49.009  1.00  0.00     0.163 HD
ENDROOT
BRANCH   1  22
HETATM   22  N1  UNL     1      17.008   0.816  48.946  1.00  0.00    -0.339 N 
HETATM   23  H4  UNL     1      16.929  -0.065  48.378  1.00  0.00     0.168 HD
BRANCH  22  24
HETATM   24  C3  UNL     1      15.639   1.168  48.941  1.00  0.00     0.140 A 
HETATM   25  C2  UNL     1      14.441   1.599  48.244  1.00  0.00     0.056 A 
HETATM   26  C1  UNL     1      13.865   1.541  49.418  1.00  0.00     0.209 A 
HETATM   27  O1  UNL     1      14.754   1.227  49.865  1.00  0.00    -0.332 OA
ENDBRANCH  22  24
ENDBRANCH   1  22
BRANCH  10  28
HETATM   28  C12 UNL     1      18.305  -0.575  52.247  1.00  0.00     0.033 C 
HETATM   29  C13 UNL     1      16.758  -0.433  52.359  1.00  0.00     0.010 C 
ENDBRANCH  10  28
BRANCH  15  30
HETATM   30  C17 UNL     1      24.107  -0.508  53.927  1.00  0.00     0.029 A 
HETATM   31  C18 UNL     1      24.699  -0.885  55.117  1.00  0.00     0.154 A 
HETATM   32  N6  UNL     1      26.043  -0.864  54.892  1.00  0.00    -0.185 NA
HETATM   33  N7  UNL     1      26.301  -0.501  53.646  1.00  0.00    -0.285 N 
HETATM   34  C19 UNL     1      27.606  -0.354  53.008  1.00  0.00     0.179 C 
HETATM   35  C20 UNL     1      25.132  -0.278  53.038  1.00  0.00     0.127 A 
ENDBRANCH  15  30
TORSDOF 4
ENDMDL
MODEL 5
REMARK VINA RESULT:      -7.8      4.952      7.478
REMARK  4 active torsions:
REMARK  status: ('A' for Active; 'I' for Inactive)
REMARK    1  A    between atoms: C3_3  and  N1_5 
REMARK    2  A    between atoms: N1_5  and  C4_6 
REMARK    3  A    between atoms: C11_15  and  C12_16 
REMARK    4  A    between atoms: C16_22  and  C17_23 
ROOT
HETATM    1  C4  UNL     1      31.033   8.065  46.278  1.00  0.00     0.038 C 
HETATM    2  C5  UNL     1      31.840   7.060  46.584  1.00  0.00     0.046 C 
HETATM    3  C6  UNL     1      31.919   5.979  47.588  1.00  0.00     0.204 C 
HETATM    4  N2  UNL     1      32.303   6.449  48.893  1.00  0.00    -0.397 N 
HETATM    5  C7  UNL     1      32.408   7.876  49.007  1.00  0.00     0.135 C 
HETATM    6  C8  UNL     1      31.053   8.427  49.334  1.00  0.00     0.136 C 
HETATM    7  N3  UNL     1      30.477   9.266  48.359  1.00  0.00    -0.402 N 
HETATM    8  C9  UNL     1      30.922  10.637  48.395  1.00  0.00     0.144 C 
HETATM    9  C10 UNL     1      30.036   8.796  47.131  1.00  0.00     0.159 C 
HETATM   10  C11 UNL     1      28.803   7.916  47.151  1.00  0.00    -0.036 C 
HETATM   11  C14 UNL     1      28.594   6.745  47.742  1.00  0.00     0.045 A 
HETATM   12  C15 UNL     1      29.335   5.580  48.016  1.00  0.00     0.159 A 
HETATM   13  N4  UNL     1      28.485   4.733  48.673  1.00  0.00    -0.148 NA
HETATM   14  N5  UNL     1      27.312   5.326  48.797  1.00  0.00    -0.230 N 
HETATM   15  C16 UNL     1      26.068   5.164  49.285  1.00  0.00     0.072 A 
HETATM   16  C21 UNL     1      25.284   6.296  49.044  1.00  0.00     0.035 A 
HETATM   17  C22 UNL     1      26.097   7.186  48.376  1.00  0.00     0.035 A 
HETATM   18  C23 UNL     1      27.295   6.579  48.245  1.00  0.00     0.073 A 
HETATM   19  N8  UNL     1      30.705   5.215  47.731  1.00  0.00    -0.348 N 
HETATM   20  H7  UNL     1      33.065   5.926  49.350  1.00  0.00     0.155 HD
HETATM   21  H28 UNL     1      30.693   4.155  47.627  1.00  0.00     0.163 HD
ENDROOT
BRANCH   1  22
HETATM   22  N1  UNL     1      31.129   8.525  44.933  1.00  0.00    -0.339 N 
HETATM   23  H4  UNL     1      31.568   8.218  44.027  1.00  0.00     0.168 HD
BRANCH  22  24
HETATM   24  C3  UNL     1      30.542   9.722  44.463  1.00  0.00     0.140 A 
HETATM   25  C2  UNL     1      30.537  11.167  44.330  1.00  0.00     0.056 A 
HETATM   26  C1  UNL     1      29.424  10.996  43.663  1.00  0.00     0.209 A 
HETATM   27  O1  UNL     1      29.483   9.960  43.784  1.00  0.00    -0.332 OA
ENDBRANCH  22  24
ENDBRANCH   1  22
BRANCH  10  28
HETATM   28  C12 UNL     1      27.622   8.403  46.414  1.00  0.00     0.033 C 
HETATM   29  C13 UNL     1      27.446   9.935  46.635  1.00  0.00     0.010 C 
ENDBRANCH  10  28
BRANCH  15  30
HETATM   30  C17 UNL     1      25.580   3.973  49.978  1.00  0.00     0.029 A 
HETATM   31  C18 UNL     1      24.283   3.500  49.986  1.00  0.00     0.154 A 
HETATM   32  N6  UNL     1      24.298   2.374  50.754  1.00  0.00    -0.185 NA
HETATM   33  N7  UNL     1      25.518   2.136  51.208  1.00  0.00    -0.285 N 
HETATM   34  C19 UNL     1      25.957   1.036  52.062  1.00  0.00     0.179 C 
HETATM   35  C20 UNL     1      26.318   3.101  50.747  1.00  0.00     0.127 A 
ENDBRANCH  15  30
TORSDOF 4
ENDMDL
MODEL 6
REMARK VINA RESULT:      -7.6      3.169      6.843
REMARK  4 active torsions:
REMARK  status: ('A' for Active; 'I' for Inactive)
REMARK    1  A    between atoms: C3_3  and  N1_5 
REMARK    2  A    between atoms: N1_5  and  C4_6 
REMARK    3  A    between atoms: C11_15  and  C12_16 
REMARK    4  A    between atoms: C16_22  and  C17_23 
ROOT
HETATM    1  C4  UNL     1      21.964   5.389  50.168  1.00  0.00     0.038 C 
HETATM    2  C5  UNL     1      22.382   5.401  51.426  1.00  0.00     0.046 C 
HETATM    3  C6  UNL     1      23.657   5.535  52.160  1.00  0.00     0.204 C 
HETATM    4  N2  UNL     1      24.476   4.354  52.087  1.00  0.00    -0.397 N 
HETATM    5  C7  UNL     1      23.970   3.329  51.219  1.00  0.00     0.135 C 
HETATM    6  C8  UNL     1      24.449   3.607  49.825  1.00  0.00     0.136 C 
HETATM    7  N3  UNL     1      23.449   3.902  48.878  1.00  0.00    -0.402 N 
HETATM    8  C9  UNL     1      22.793   2.753  48.304  1.00  0.00     0.144 C 
HETATM    9  C10 UNL     1      22.713   5.078  48.905  1.00  0.00     0.159 C 
HETATM   10  C11 UNL     1      23.464   6.349  48.560  1.00  0.00    -0.036 C 
HETATM   11  C14 UNL     1      24.507   6.918  49.154  1.00  0.00     0.045 A 
HETATM   12  C15 UNL     1      24.982   7.085  50.468  1.00  0.00     0.159 A 
HETATM   13  N4  UNL     1      26.150   7.789  50.364  1.00  0.00    -0.148 NA
HETATM   14  N5  UNL     1      26.381   8.037  49.088  1.00  0.00    -0.230 N 
HETATM   15  C16 UNL     1      27.250   8.623  48.243  1.00  0.00     0.072 A 
HETATM   16  C21 UNL     1      26.829   8.483  46.916  1.00  0.00     0.035 A 
HETATM   17  C22 UNL     1      25.646   7.779  46.964  1.00  0.00     0.035 A 
HETATM   18  C23 UNL     1      25.408   7.529  48.269  1.00  0.00     0.073 A 
HETATM   19  N8  UNL     1      24.460   6.660  51.747  1.00  0.00    -0.348 N 
HETATM   20  H7  UNL     1      24.846   4.010  52.985  1.00  0.00     0.155 HD
HETATM   21  H28 UNL     1      24.799   7.392  52.442  1.00  0.00     0.163 HD
ENDROOT
BRANCH   1  22
HETATM   22  N1  UNL     1      20.589   5.718  49.990  1.00  0.00    -0.339 N 
HETATM   23  H4  UNL     1      19.652   5.246  50.063  1.00  0.00     0.168 HD
BRANCH  22  24
HETATM   24  C3  UNL     1      20.126   6.995  49.598  1.00  0.00     0.140 A 
HETATM   25  C2  UNL     1      20.077   8.436  49.768  1.00  0.00     0.056 A 
HETATM   26  C1  UNL     1      19.274   8.424  48.734  1.00  0.00     0.209 A 
HETATM   27  O1  UNL     1      19.352   7.385  48.655  1.00  0.00    -0.332 OA
ENDBRANCH  22  24
ENDBRANCH   1  22
BRANCH  10  28
HETATM   28  C12 UNL     1      22.996   7.102  47.381  1.00  0.00     0.033 C 
HETATM   29  C13 UNL     1      22.123   6.187  46.472  1.00  0.00     0.010 C 
ENDBRANCH  10  28
BRANCH  15  30
HETATM   30  C17 UNL     1      28.475   9.315  48.636  1.00  0.00     0.029 A 
HETATM   31  C18 UNL     1      29.633   8.731  49.110  1.00  0.00     0.154 A 
HETATM   32  N6  UNL     1      30.504   9.754  49.341  1.00  0.00    -0.185 NA
HETATM   33  N7  UNL     1      29.948  10.916  49.037  1.00  0.00    -0.285 N 
HETATM   34  C19 UNL     1      30.540  12.247  49.142  1.00  0.00     0.179 C 
HETATM   35  C20 UNL     1      28.708  10.671  48.604  1.00  0.00     0.127 A 
ENDBRANCH  15  30
TORSDOF 4
ENDMDL
MODEL 7
REMARK VINA RESULT:      -7.5      2.304      4.091
REMARK  4 active torsions:
REMARK  status: ('A' for Active; 'I' for Inactive)
REMARK    1  A    between atoms: C3_3  and  N1_5 
REMARK    2  A    between atoms: N1_5  and  C4_6 
REMARK    3  A    between atoms: C11_15  and  C12_16 
REMARK    4  A    between atoms: C16_22  and  C17_23 
ROOT
HETATM    1  C4  UNL     1      20.144   4.476  50.315  1.00  0.00     0.038 C 
HETATM    2  C5  UNL     1      19.523   3.719  51.208  1.00  0.00     0.046 C 
HETATM    3  C6  UNL     1      19.727   2.419  51.881  1.00  0.00     0.204 C 
HETATM    4  N2  UNL     1      19.479   1.294  51.019  1.00  0.00    -0.397 N 
HETATM    5  C7  UNL     1      19.212   1.636  49.650  1.00  0.00     0.135 C 
HETATM    6  C8  UNL     1      20.520   1.755  48.926  1.00  0.00     0.136 C 
HETATM    7  N3  UNL     1      20.837   3.037  48.435  1.00  0.00    -0.402 N 
HETATM    8  C9  UNL     1      20.232   3.373  47.171  1.00  0.00     0.144 C 
HETATM    9  C10 UNL     1      21.153   4.102  49.266  1.00  0.00     0.159 C 
HETATM   10  C11 UNL     1      22.477   4.015  49.997  1.00  0.00    -0.036 C 
HETATM   11  C14 UNL     1      22.916   3.121  50.876  1.00  0.00     0.045 A 
HETATM   12  C15 UNL     1      22.376   2.354  51.925  1.00  0.00     0.159 A 
HETATM   13  N4  UNL     1      23.412   1.619  52.432  1.00  0.00    -0.148 NA
HETATM   14  N5  UNL     1      24.506   1.907  51.752  1.00  0.00    -0.230 N 
HETATM   15  C16 UNL     1      25.818   1.624  51.649  1.00  0.00     0.072 A 
HETATM   16  C21 UNL     1      26.409   2.358  50.616  1.00  0.00     0.035 A 
HETATM   17  C22 UNL     1      25.402   3.124  50.069  1.00  0.00     0.035 A 
HETATM   18  C23 UNL     1      24.284   2.833  50.767  1.00  0.00     0.073 A 
HETATM   19  N8  UNL     1      21.037   2.254  52.461  1.00  0.00    -0.348 N 
HETATM   20  H7  UNL     1      18.864   0.562  51.405  1.00  0.00     0.155 HD
HETATM   21  H28 UNL     1      21.168   2.006  53.488  1.00  0.00     0.163 HD
ENDROOT
BRANCH   1  22
HETATM   22  N1  UNL     1      19.797   5.857  50.353  1.00  0.00    -0.339 N 
HETATM   23  H4  UNL     1      19.355   6.538  51.022  1.00  0.00     0.168 HD
BRANCH  22  24
HETATM   24  C3  UNL     1      20.018   6.758  49.286  1.00  0.00     0.140 A 
HETATM   25  C2  UNL     1      19.681   7.281  47.975  1.00  0.00     0.056 A 
HETATM   26  C1  UNL     1      20.679   8.107  48.165  1.00  0.00     0.209 A 
HETATM   27  O1  UNL     1      20.872   7.695  49.105  1.00  0.00    -0.332 OA
ENDBRANCH  22  24
ENDBRANCH   1  22
BRANCH  10  28
HETATM   28  C12 UNL     1      23.468   5.070  49.711  1.00  0.00     0.033 C 
HETATM   29  C13 UNL     1      23.392   5.485  48.212  1.00  0.00     0.010 C 
ENDBRANCH  10  28
BRANCH  15  30
HETATM   30  C17 UNL     1      26.547   0.679  52.491  1.00  0.00     0.029 A 
HETATM   31  C18 UNL     1      26.041  -0.470  53.066  1.00  0.00     0.154 A 
HETATM   32  N6  UNL     1      27.074  -1.033  53.756  1.00  0.00    -0.185 NA
HETATM   33  N7  UNL     1      28.169  -0.301  53.633  1.00  0.00    -0.285 N 
HETATM   34  C19 UNL     1      29.485  -0.553  54.214  1.00  0.00     0.179 C 
HETATM   35  C20 UNL     1      27.871   0.751  52.864  1.00  0.00     0.127 A 
ENDBRANCH  15  30
TORSDOF 4
ENDMDL
MODEL 8
REMARK VINA RESULT:      -7.4      3.104      6.935
REMARK  4 active torsions:
REMARK  status: ('A' for Active; 'I' for Inactive)
REMARK    1  A    between atoms: C3_3  and  N1_5 
REMARK    2  A    between atoms: N1_5  and  C4_6 
REMARK    3  A    between atoms: C11_15  and  C12_16 
REMARK    4  A    between atoms: C16_22  and  C17_23 
ROOT
HETATM    1  C4  UNL     1      21.754   4.836  50.809  1.00  0.00     0.038 C 
HETATM    2  C5  UNL     1      22.295   4.886  52.017  1.00  0.00     0.046 C 
HETATM    3  C6  UNL     1      23.624   5.125  52.618  1.00  0.00     0.204 C 
HETATM    4  N2  UNL     1      24.522   4.012  52.458  1.00  0.00    -0.397 N 
HETATM    5  C7  UNL     1      24.014   2.946  51.642  1.00  0.00     0.135 C 
HETATM    6  C8  UNL     1      24.325   3.255  50.208  1.00  0.00     0.136 C 
HETATM    7  N3  UNL     1      23.213   3.466  49.368  1.00  0.00    -0.402 N 
HETATM    8  C9  UNL     1      22.596   2.266  48.860  1.00  0.00     0.144 C 
HETATM    9  C10 UNL     1      22.394   4.580  49.474  1.00  0.00     0.159 C 
HETATM   10  C11 UNL     1      23.001   5.905  49.061  1.00  0.00    -0.036 C 
HETATM   11  C14 UNL     1      24.052   6.557  49.547  1.00  0.00     0.045 A 
HETATM   12  C15 UNL     1      24.642   6.768  50.807  1.00  0.00     0.159 A 
HETATM   13  N4  UNL     1      25.734   7.562  50.587  1.00  0.00    -0.148 NA
HETATM   14  N5  UNL     1      25.814   7.821  49.295  1.00  0.00    -0.230 N 
HETATM   15  C16 UNL     1      26.543   8.471  48.368  1.00  0.00     0.072 A 
HETATM   16  C21 UNL     1      26.002   8.293  47.091  1.00  0.00     0.035 A 
HETATM   17  C22 UNL     1      24.890   7.497  47.256  1.00  0.00     0.035 A 
HETATM   18  C23 UNL     1      24.806   7.234  48.577  1.00  0.00     0.073 A 
HETATM   19  N8  UNL     1      24.289   6.307  52.131  1.00  0.00    -0.348 N 
HETATM   20  H7  UNL     1      25.008   3.702  53.313  1.00  0.00     0.155 HD
HETATM   21  H28 UNL     1      24.637   7.067  52.790  1.00  0.00     0.163 HD
ENDROOT
BRANCH   1  22
HETATM   22  N1  UNL     1      20.346   5.054  50.772  1.00  0.00    -0.339 N 
HETATM   23  H4  UNL     1      19.679   5.858  50.653  1.00  0.00     0.168 HD
BRANCH  22  24
HETATM   24  C3  UNL     1      19.384   4.029  50.922  1.00  0.00     0.140 A 
HETATM   25  C2  UNL     1      18.589   2.944  50.377  1.00  0.00     0.056 A 
HETATM   26  C1  UNL     1      18.099   2.837  51.586  1.00  0.00     0.209 A 
HETATM   27  O1  UNL     1      18.700   3.621  51.925  1.00  0.00    -0.332 OA
ENDBRANCH  22  24
ENDBRANCH   1  22
BRANCH  10  28
HETATM   28  C12 UNL     1      22.358   6.614  47.938  1.00  0.00     0.033 C 
HETATM   29  C13 UNL     1      21.508   5.619  47.093  1.00  0.00     0.010 C 
ENDBRANCH  10  28
BRANCH  15  30
HETATM   30  C17 UNL     1      27.743   9.259  48.637  1.00  0.00     0.029 A 
HETATM   31  C18 UNL     1      28.976   8.774  49.028  1.00  0.00     0.154 A 
HETATM   32  N6  UNL     1      29.786   9.863  49.157  1.00  0.00    -0.185 NA
HETATM   33  N7  UNL     1      29.124  10.972  48.869  1.00  0.00    -0.285 N 
HETATM   34  C19 UNL     1      29.625  12.344  48.887  1.00  0.00     0.179 C 
HETATM   35  C20 UNL     1      27.874  10.627  48.549  1.00  0.00     0.127 A 
ENDBRANCH  15  30
TORSDOF 4
ENDMDL
MODEL 9
REMARK VINA RESULT:      -7.4      5.323      8.505
REMARK  4 active torsions:
REMARK  status: ('A' for Active; 'I' for Inactive)
REMARK    1  A    between atoms: C3_3  and  N1_5 
REMARK    2  A    between atoms: N1_5  and  C4_6 
REMARK    3  A    between atoms: C11_15  and  C12_16 
REMARK    4  A    between atoms: C16_22  and  C17_23 
ROOT
HETATM    1  C4  UNL     1      31.156   7.791  46.529  1.00  0.00     0.038 C 
HETATM    2  C5  UNL     1      31.645   6.818  47.284  1.00  0.00     0.046 C 
HETATM    3  C6  UNL     1      31.251   6.056  48.487  1.00  0.00     0.204 C 
HETATM    4  N2  UNL     1      31.374   6.817  49.702  1.00  0.00    -0.397 N 
HETATM    5  C7  UNL     1      31.725   8.196  49.510  1.00  0.00     0.135 C 
HETATM    6  C8  UNL     1      30.466   8.979  49.283  1.00  0.00     0.136 C 
HETATM    7  N3  UNL     1      30.335   9.580  48.015  1.00  0.00    -0.402 N 
HETATM    8  C9  UNL     1      31.016  10.842  47.864  1.00  0.00     0.144 C 
HETATM    9  C10 UNL     1      30.138   8.847  46.854  1.00  0.00     0.159 C 
HETATM   10  C11 UNL     1      28.793   8.165  46.709  1.00  0.00    -0.036 C 
HETATM   11  C14 UNL     1      28.213   7.238  47.464  1.00  0.00     0.045 A 
HETATM   12  C15 UNL     1      28.617   6.113  48.207  1.00  0.00     0.159 A 
HETATM   13  N4  UNL     1      27.478   5.592  48.758  1.00  0.00    -0.148 NA
HETATM   14  N5  UNL     1      26.452   6.337  48.387  1.00  0.00    -0.230 N 
HETATM   15  C16 UNL     1      25.118   6.470  48.505  1.00  0.00     0.072 A 
HETATM   16  C21 UNL     1      24.660   7.579  47.788  1.00  0.00     0.035 A 
HETATM   17  C22 UNL     1      25.775   8.142  47.206  1.00  0.00     0.035 A 
HETATM   18  C23 UNL     1      26.823   7.380  47.582  1.00  0.00     0.073 A 
HETATM   19  N8  UNL     1      29.914   5.517  48.434  1.00  0.00    -0.348 N 
HETATM   20  H7  UNL     1      31.875   6.352  50.473  1.00  0.00     0.155 HD
HETATM   21  H28 UNL     1      29.721   4.480  48.578  1.00  0.00     0.163 HD
ENDROOT
BRANCH   1  22
HETATM   22  N1  UNL     1      31.681   7.846  45.206  1.00  0.00    -0.339 N 
HETATM   23  H4  UNL     1      31.592   8.450  44.350  1.00  0.00     0.168 HD
BRANCH  22  24
HETATM   24  C3  UNL     1      32.604   6.911  44.682  1.00  0.00     0.140 A 
HETATM   25  C2  UNL     1      32.913   5.607  44.124  1.00  0.00     0.056 A 
HETATM   26  C1  UNL     1      34.148   6.038  44.078  1.00  0.00     0.209 A 
HETATM   27  O1  UNL     1      33.867   6.961  44.477  1.00  0.00    -0.332 OA
ENDBRANCH  22  24
ENDBRANCH   1  22
BRANCH  10  28
HETATM   28  C12 UNL     1      27.958   8.571  45.562  1.00  0.00     0.033 C 
HETATM   29  C13 UNL     1      28.417   9.962  45.031  1.00  0.00     0.010 C 
ENDBRANCH  10  28
BRANCH  15  30
HETATM   30  C17 UNL     1      24.246   5.587  49.277  1.00  0.00     0.029 A 
HETATM   31  C18 UNL     1      23.809   4.331  48.905  1.00  0.00     0.154 A 
HETATM   32  N6  UNL     1      23.026   3.886  49.928  1.00  0.00    -0.185 NA
HETATM   33  N7  UNL     1      22.962   4.789  50.892  1.00  0.00    -0.285 N 
HETATM   34  C19 UNL     1      22.230   4.703  52.153  1.00  0.00     0.179 C 
HETATM   35  C20 UNL     1      23.700   5.838  50.516  1.00  0.00     0.127 A 
ENDBRANCH  15  30
TORSDOF 4
ENDMDL
