MODEL 1
REMARK VINA RESULT:      -8.8      0.000      0.000
REMARK  5 active torsions:
REMARK  status: ('A' for Active; 'I' for Inactive)
REMARK    1  A    between atoms: O1_1  and  C1_2 
REMARK    2  A    between atoms: C3_5  and  N1_6 
REMARK    3  A    between atoms: C4_8  and  C5_9 
REMARK    4  A    between atoms: C12_16  and  C13_17 
REMARK    5  A    between atoms: C14_18  and  C15_19 
ROOT
HETATM    1  N1  UNL     1      26.381   0.691  52.145  1.00  0.00    -0.237 N 
HETATM    2  N2  UNL     1      26.645   1.644  51.171  1.00  0.00    -0.173 NA
HETATM    3  C4  UNL     1      25.790   2.594  51.182  1.00  0.00     0.067 C 
HETATM    4  C11 UNL     1      24.794   2.315  52.274  1.00  0.00     0.093 C 
HETATM    5  C12 UNL     1      24.941   0.803  52.355  1.00  0.00     0.141 C 
ENDROOT
BRANCH   1   6
HETATM    6  C3  UNL     1      27.434  -0.135  52.708  1.00  0.00     0.192 A 
HETATM    7  S1  UNL     1      29.011   0.495  53.563  1.00  0.00    -0.058 SA
HETATM    8  C2  UNL     1      29.585  -1.199  53.859  1.00  0.00     0.111 A 
HETATM    9  C1  UNL     1      28.569  -1.955  53.306  1.00  0.00     0.171 A 
HETATM   10  N3  UNL     1      27.566  -1.271  52.770  1.00  0.00    -0.198 NA
BRANCH   9  11
HETATM   11  O1  UNL     1      28.601  -3.363  53.314  1.00  0.00    -0.344 OA
HETATM   12  H1  UNL     1      29.294  -3.879  52.773  1.00  0.00     0.219 HD
ENDBRANCH   9  11
ENDBRANCH   1   6
BRANCH   5  13
HETATM   13  C13 UNL     1      24.523   0.284  53.657  1.00  0.00     0.001 C 
HETATM   14  C14 UNL     1      23.461  -0.463  53.789  1.00  0.00    -0.001 C 
BRANCH  14  15
HETATM   15  C15 UNL     1      22.622  -0.830  52.652  1.00  0.00     0.013 C 
HETATM   16  C16 UNL     1      21.730  -0.008  52.131  1.00  0.00    -0.013 A 
HETATM   17  C17 UNL     1      20.687   0.414  51.214  1.00  0.00     0.037 A 
HETATM   18  C18 UNL     1      21.104   1.307  52.181  1.00  0.00     0.045 A 
HETATM   19 CL1  UNL     1      20.760   2.918  52.711  1.00  0.00    -0.083 Cl
ENDBRANCH  14  15
ENDBRANCH   5  13
BRANCH   3  20
HETATM   20  C5  UNL     1      25.748   3.759  50.311  1.00  0.00    -0.010 A 
HETATM   21  C6  UNL     1      26.884   4.061  49.585  1.00  0.00     0.013 A 
HETATM   22  C7  UNL     1      26.893   5.157  48.745  1.00  0.00     0.001 A 
HETATM   23  C8  UNL     1      25.773   5.954  48.624  1.00  0.00     0.000 A 
HETATM   24  C9  UNL     1      24.642   5.640  49.357  1.00  0.00     0.001 A 
HETATM   25  C10 UNL     1      24.628   4.537  50.205  1.00  0.00     0.013 A 
ENDBRANCH   3  20
TORSDOF 5
ENDMDL
MODEL 2
REMARK VINA RESULT:      -8.6      2.130      5.548
REMARK  5 active torsions:
REMARK  status: ('A' for Active; 'I' for Inactive)
REMARK    1  A    between atoms: O1_1  and  C1_2 
REMARK    2  A    between atoms: C3_5  and  N1_6 
REMARK    3  A    between atoms: C4_8  and  C5_9 
REMARK    4  A    between atoms: C12_16  and  C13_17 
REMARK    5  A    between atoms: C14_18  and  C15_19 
ROOT
HETATM    1  N1  UNL     1      26.081   0.399  53.014  1.00  0.00    -0.237 N 
HETATM    2  N2  UNL     1      24.888  -0.041  53.573  1.00  0.00    -0.173 NA
HETATM    3  C4  UNL     1      23.873   0.312  52.882  1.00  0.00     0.067 C 
HETATM    4  C11 UNL     1      24.365   1.091  51.692  1.00  0.00     0.093 C 
HETATM    5  C12 UNL     1      25.690   1.582  52.256  1.00  0.00     0.141 C 
ENDROOT
BRANCH   1   6
HETATM    6  C3  UNL     1      27.334  -0.298  53.249  1.00  0.00     0.192 A 
HETATM    7  S1  UNL     1      28.994   0.513  53.700  1.00  0.00    -0.058 SA
HETATM    8  C2  UNL     1      29.818  -1.101  53.759  1.00  0.00     0.111 A 
HETATM    9  C1  UNL     1      28.789  -1.969  53.450  1.00  0.00     0.171 A 
HETATM   10  N3  UNL     1      27.608  -1.409  53.222  1.00  0.00    -0.198 NA
BRANCH   9  11
HETATM   11  O1  UNL     1      28.987  -3.363  53.383  1.00  0.00    -0.344 OA
HETATM   12  H1  UNL     1      29.924  -3.764  53.370  1.00  0.00     0.219 HD
ENDBRANCH   9  11
ENDBRANCH   1   6
BRANCH   5  13
HETATM   13  C13 UNL     1      26.645   1.909  51.197  1.00  0.00     0.001 C 
HETATM   14  C14 UNL     1      26.491   2.957  50.434  1.00  0.00    -0.001 C 
BRANCH  14  15
HETATM   15  C15 UNL     1      25.362   3.870  50.584  1.00  0.00     0.013 C 
HETATM   16  C16 UNL     1      25.327   5.058  50.011  1.00  0.00    -0.013 A 
HETATM   17  C17 UNL     1      24.766   6.352  49.667  1.00  0.00     0.037 A 
HETATM   18  C18 UNL     1      26.009   6.026  49.162  1.00  0.00     0.045 A 
HETATM   19 CL1  UNL     1      27.237   6.718  48.157  1.00  0.00    -0.083 Cl
ENDBRANCH  14  15
ENDBRANCH   5  13
BRANCH   3  20
HETATM   20  C5  UNL     1      22.472   0.033  53.157  1.00  0.00    -0.010 A 
HETATM   21  C6  UNL     1      21.524   0.822  52.536  1.00  0.00     0.013 A 
HETATM   22  C7  UNL     1      20.182   0.597  52.766  1.00  0.00     0.001 A 
HETATM   23  C8  UNL     1      19.778  -0.415  53.614  1.00  0.00     0.000 A 
HETATM   24  C9  UNL     1      20.739  -1.199  54.230  1.00  0.00     0.001 A 
HETATM   25  C10 UNL     1      22.093  -0.975  54.001  1.00  0.00     0.013 A 
ENDBRANCH   3  20
TORSDOF 5
ENDMDL
MODEL 3
REMARK VINA RESULT:      -8.4      2.355      5.386
REMARK  5 active torsions:
REMARK  status: ('A' for Active; 'I' for Inactive)
REMARK    1  A    between atoms: O1_1  and  C1_2 
REMARK    2  A    between atoms: C3_5  and  N1_6 
REMARK    3  A    between atoms: C4_8  and  C5_9 
REMARK    4  A    between atoms: C12_16  and  C13_17 
REMARK    5  A    between atoms: C14_18  and  C15_19 
ROOT
HETATM    1  N1  UNL     1      25.807   1.544  52.911  1.00  0.00    -0.237 N 
HETATM    2  N2  UNL     1      24.692   0.994  53.529  1.00  0.00    -0.173 NA
HETATM    3  C4  UNL     1      23.702   0.887  52.728  1.00  0.00     0.067 C 
HETATM    4  C11 UNL     1      24.127   1.410  51.383  1.00  0.00     0.093 C 
HETATM    5  C12 UNL     1      25.242   2.345  51.830  1.00  0.00     0.141 C 
ENDROOT
BRANCH   1   6
HETATM    6  C3  UNL     1      27.153   1.267  53.381  1.00  0.00     0.192 A 
HETATM    7  S1  UNL     1      28.066  -0.395  53.236  1.00  0.00    -0.058 SA
HETATM    8  C2  UNL     1      29.531   0.285  54.059  1.00  0.00     0.111 A 
HETATM    9  C1  UNL     1      29.149   1.588  54.311  1.00  0.00     0.171 A 
HETATM   10  N3  UNL     1      27.929   1.922  53.910  1.00  0.00    -0.198 NA
BRANCH   9  11
HETATM   11  O1  UNL     1      30.007   2.503  54.953  1.00  0.00    -0.344 OA
HETATM   12  H1  UNL     1      29.646   3.192  55.613  1.00  0.00     0.219 HD
ENDBRANCH   9  11
ENDBRANCH   1   6
BRANCH   5  13
HETATM   13  C13 UNL     1      26.204   2.596  50.757  1.00  0.00     0.001 C 
HETATM   14  C14 UNL     1      26.074   3.607  49.941  1.00  0.00    -0.001 C 
BRANCH  14  15
HETATM   15  C15 UNL     1      24.965   4.550  50.043  1.00  0.00     0.013 C 
HETATM   16  C16 UNL     1      23.811   4.362  49.429  1.00  0.00    -0.013 A 
HETATM   17  C17 UNL     1      22.450   4.672  49.033  1.00  0.00     0.037 A 
HETATM   18  C18 UNL     1      23.015   3.505  48.560  1.00  0.00     0.045 A 
HETATM   19 CL1  UNL     1      22.596   2.161  47.553  1.00  0.00    -0.083 Cl
ENDBRANCH  14  15
ENDBRANCH   5  13
BRANCH   3  20
HETATM   20  C5  UNL     1      22.378   0.358  53.021  1.00  0.00    -0.010 A 
HETATM   21  C6  UNL     1      21.316   0.833  52.277  1.00  0.00     0.013 A 
HETATM   22  C7  UNL     1      20.041   0.362  52.518  1.00  0.00     0.001 A 
HETATM   23  C8  UNL     1      19.819  -0.584  53.499  1.00  0.00     0.000 A 
HETATM   24  C9  UNL     1      20.892  -1.052  54.237  1.00  0.00     0.001 A 
HETATM   25  C10 UNL     1      22.179  -0.579  53.998  1.00  0.00     0.013 A 
ENDBRANCH   3  20
TORSDOF 5
ENDMDL
MODEL 4
REMARK VINA RESULT:      -8.4      2.810      5.970
REMARK  5 active torsions:
REMARK  status: ('A' for Active; 'I' for Inactive)
REMARK    1  A    between atoms: O1_1  and  C1_2 
REMARK    2  A    between atoms: C3_5  and  N1_6 
REMARK    3  A    between atoms: C4_8  and  C5_9 
REMARK    4  A    between atoms: C12_16  and  C13_17 
REMARK    5  A    between atoms: C14_18  and  C15_19 
ROOT
HETATM    1  N1  UNL     1      25.862   1.697  52.679  1.00  0.00    -0.237 N 
HETATM    2  N2  UNL     1      24.666   1.262  53.233  1.00  0.00    -0.173 NA
HETATM    3  C4  UNL     1      23.733   1.183  52.362  1.00  0.00     0.067 C 
HETATM    4  C11 UNL     1      24.297   1.601  51.032  1.00  0.00     0.093 C 
HETATM    5  C12 UNL     1      25.442   2.476  51.519  1.00  0.00     0.141 C 
ENDROOT
BRANCH   1   6
HETATM    6  C3  UNL     1      27.144   1.350  53.267  1.00  0.00     0.192 A 
HETATM    7  S1  UNL     1      27.927  -0.383  53.295  1.00  0.00    -0.058 SA
HETATM    8  C2  UNL     1      29.380   0.238  54.184  1.00  0.00     0.111 A 
HETATM    9  C1  UNL     1      29.089   1.581  54.325  1.00  0.00     0.171 A 
HETATM   10  N3  UNL     1      27.932   1.978  53.811  1.00  0.00    -0.198 NA
BRANCH   9  11
HETATM   11  O1  UNL     1      29.970   2.469  54.973  1.00  0.00    -0.344 OA
HETATM   12  H1  UNL     1      29.955   2.582  55.986  1.00  0.00     0.219 HD
ENDBRANCH   9  11
ENDBRANCH   1   6
BRANCH   5  13
HETATM   13  C13 UNL     1      26.498   2.600  50.515  1.00  0.00     0.001 C 
HETATM   14  C14 UNL     1      26.551   3.615  49.696  1.00  0.00    -0.001 C 
BRANCH  14  15
HETATM   15  C15 UNL     1      25.564   4.691  49.726  1.00  0.00     0.013 C 
HETATM   16  C16 UNL     1      25.767   5.859  49.146  1.00  0.00    -0.013 A 
HETATM   17  C17 UNL     1      25.447   7.216  48.740  1.00  0.00     0.037 A 
HETATM   18  C18 UNL     1      26.669   6.696  48.365  1.00  0.00     0.045 A 
HETATM   19 CL1  UNL     1      28.082   7.174  47.487  1.00  0.00    -0.083 Cl
ENDBRANCH  14  15
ENDBRANCH   5  13
BRANCH   3  20
HETATM   20  C5  UNL     1      22.355   0.766  52.575  1.00  0.00    -0.010 A 
HETATM   21  C6  UNL     1      21.498   0.797  51.493  1.00  0.00     0.013 A 
HETATM   22  C7  UNL     1      20.182   0.412  51.644  1.00  0.00     0.001 A 
HETATM   23  C8  UNL     1      19.713  -0.007  52.874  1.00  0.00     0.000 A 
HETATM   24  C9  UNL     1      20.582  -0.033  53.951  1.00  0.00     0.001 A 
HETATM   25  C10 UNL     1      21.910   0.355  53.802  1.00  0.00     0.013 A 
ENDBRANCH   3  20
TORSDOF 5
ENDMDL
MODEL 5
REMARK VINA RESULT:      -8.3      3.163      5.937
REMARK  5 active torsions:
REMARK  status: ('A' for Active; 'I' for Inactive)
REMARK    1  A    between atoms: O1_1  and  C1_2 
REMARK    2  A    between atoms: C3_5  and  N1_6 
REMARK    3  A    between atoms: C4_8  and  C5_9 
REMARK    4  A    between atoms: C12_16  and  C13_17 
REMARK    5  A    between atoms: C14_18  and  C15_19 
ROOT
HETATM    1  N1  UNL     1      24.119   0.621  52.474  1.00  0.00    -0.237 N 
HETATM    2  N2  UNL     1      25.214  -0.198  52.719  1.00  0.00    -0.173 NA
HETATM    3  C4  UNL     1      26.292   0.472  52.870  1.00  0.00     0.067 C 
HETATM    4  C11 UNL     1      25.961   1.933  52.723  1.00  0.00     0.093 C 
HETATM    5  C12 UNL     1      24.707   1.811  51.869  1.00  0.00     0.141 C 
ENDROOT
BRANCH   1   6
HETATM    6  C3  UNL     1      22.769   0.208  52.816  1.00  0.00     0.192 A 
HETATM    7  S1  UNL     1      21.181   0.718  51.902  1.00  0.00    -0.058 SA
HETATM    8  C2  UNL     1      20.159  -0.257  53.039  1.00  0.00     0.111 A 
HETATM    9  C1  UNL     1      21.101  -0.796  53.894  1.00  0.00     0.171 A 
HETATM   10  N3  UNL     1      22.362  -0.466  53.647  1.00  0.00    -0.198 NA
BRANCH   9  11
HETATM   11  O1  UNL     1      20.739  -1.644  54.959  1.00  0.00    -0.344 OA
HETATM   12  H1  UNL     1      19.928  -2.259  54.893  1.00  0.00     0.219 HD
ENDBRANCH   9  11
ENDBRANCH   1   6
BRANCH   5  13
HETATM   13  C13 UNL     1      23.846   2.986  51.995  1.00  0.00     0.001 C 
HETATM   14  C14 UNL     1      23.430   3.648  50.950  1.00  0.00    -0.001 C 
BRANCH  14  15
HETATM   15  C15 UNL     1      23.792   3.261  49.590  1.00  0.00     0.013 C 
HETATM   16  C16 UNL     1      22.911   2.798  48.723  1.00  0.00    -0.013 A 
HETATM   17  C17 UNL     1      22.444   2.280  47.450  1.00  0.00     0.037 A 
HETATM   18  C18 UNL     1      21.522   2.443  48.464  1.00  0.00     0.045 A 
HETATM   19 CL1  UNL     1      19.830   2.210  48.745  1.00  0.00    -0.083 Cl
ENDBRANCH  14  15
ENDBRANCH   5  13
BRANCH   3  20
HETATM   20  C5  UNL     1      27.626  -0.044  53.138  1.00  0.00    -0.010 A 
HETATM   21  C6  UNL     1      27.826  -1.405  53.019  1.00  0.00     0.013 A 
HETATM   22  C7  UNL     1      29.074  -1.942  53.263  1.00  0.00     0.001 A 
HETATM   23  C8  UNL     1      30.127  -1.126  53.625  1.00  0.00     0.000 A 
HETATM   24  C9  UNL     1      29.913   0.236  53.740  1.00  0.00     0.001 A 
HETATM   25  C10 UNL     1      28.656   0.782  53.495  1.00  0.00     0.013 A 
ENDBRANCH   3  20
TORSDOF 5
ENDMDL
MODEL 6
REMARK VINA RESULT:      -8.3      3.218      6.270
REMARK  5 active torsions:
REMARK  status: ('A' for Active; 'I' for Inactive)
REMARK    1  A    between atoms: O1_1  and  C1_2 
REMARK    2  A    between atoms: C3_5  and  N1_6 
REMARK    3  A    between atoms: C4_8  and  C5_9 
REMARK    4  A    between atoms: C12_16  and  C13_17 
REMARK    5  A    between atoms: C14_18  and  C15_19 
ROOT
HETATM    1  N1  UNL     1      24.038   0.935  52.869  1.00  0.00    -0.237 N 
HETATM    2  N2  UNL     1      25.112   0.055  52.871  1.00  0.00    -0.173 NA
HETATM    3  C4  UNL     1      26.203   0.628  53.209  1.00  0.00     0.067 C 
HETATM    4  C11 UNL     1      25.905   2.077  53.487  1.00  0.00     0.093 C 
HETATM    5  C12 UNL     1      24.656   2.235  52.632  1.00  0.00     0.141 C 
ENDROOT
BRANCH   1   6
HETATM    6  C3  UNL     1      22.676   0.474  53.076  1.00  0.00     0.192 A 
HETATM    7  S1  UNL     1      21.137   1.080  52.137  1.00  0.00    -0.058 SA
HETATM    8  C2  UNL     1      20.064  -0.034  53.082  1.00  0.00     0.111 A 
HETATM    9  C1  UNL     1      20.962  -0.668  53.920  1.00  0.00     0.171 A 
HETATM   10  N3  UNL     1      22.230  -0.301  53.792  1.00  0.00    -0.198 NA
BRANCH   9  11
HETATM   11  O1  UNL     1      20.550  -1.643  54.849  1.00  0.00    -0.344 OA
HETATM   12  H1  UNL     1      21.224  -2.122  55.446  1.00  0.00     0.219 HD
ENDBRANCH   9  11
ENDBRANCH   1   6
BRANCH   5  13
HETATM   13  C13 UNL     1      23.821   3.344  53.088  1.00  0.00     0.001 C 
HETATM   14  C14 UNL     1      23.214   4.138  52.248  1.00  0.00    -0.001 C 
BRANCH  14  15
HETATM   15  C15 UNL     1      23.327   3.972  50.802  1.00  0.00     0.013 C 
HETATM   16  C16 UNL     1      24.009   4.808  50.041  1.00  0.00    -0.013 A 
HETATM   17  C17 UNL     1      24.557   5.335  48.804  1.00  0.00     0.037 A 
HETATM   18  C18 UNL     1      24.830   6.010  49.977  1.00  0.00     0.045 A 
HETATM   19 CL1  UNL     1      25.693   7.413  50.510  1.00  0.00    -0.083 Cl
ENDBRANCH  14  15
ENDBRANCH   5  13
BRANCH   3  20
HETATM   20  C5  UNL     1      27.523   0.026  53.321  1.00  0.00    -0.010 A 
HETATM   21  C6  UNL     1      28.568   0.835  53.720  1.00  0.00     0.013 A 
HETATM   22  C7  UNL     1      29.839   0.310  53.841  1.00  0.00     0.001 A 
HETATM   23  C8  UNL     1      30.074  -1.022  53.566  1.00  0.00     0.000 A 
HETATM   24  C9  UNL     1      29.017  -1.822  53.167  1.00  0.00     0.001 A 
HETATM   25  C10 UNL     1      27.734  -1.297  53.043  1.00  0.00     0.013 A 
ENDBRANCH   3  20
TORSDOF 5
ENDMDL
MODEL 7
REMARK VINA RESULT:      -8.3      3.859      5.730
REMARK  5 active torsions:
REMARK  status: ('A' for Active; 'I' for Inactive)
REMARK    1  A    between atoms: O1_1  and  C1_2 
REMARK    2  A    between atoms: C3_5  and  N1_6 
REMARK    3  A    between atoms: C4_8  and  C5_9 
REMARK    4  A    between atoms: C12_16  and  C13_17 
REMARK    5  A    between atoms: C14_18  and  C15_19 
ROOT
HETATM    1  N1  UNL     1      23.165   1.533  52.336  1.00  0.00    -0.237 N 
HETATM    2  N2  UNL     1      23.447   2.655  51.568  1.00  0.00    -0.173 NA
HETATM    3  C4  UNL     1      24.670   2.690  51.198  1.00  0.00     0.067 C 
HETATM    4  C11 UNL     1      25.361   1.471  51.747  1.00  0.00     0.093 C 
HETATM    5  C12 UNL     1      24.451   1.192  52.934  1.00  0.00     0.141 C 
ENDROOT
BRANCH   1   6
HETATM    6  C3  UNL     1      21.827   0.972  52.401  1.00  0.00     0.192 A 
HETATM    7  S1  UNL     1      20.999   0.235  53.946  1.00  0.00    -0.058 SA
HETATM    8  C2  UNL     1      19.489  -0.140  53.015  1.00  0.00     0.111 A 
HETATM    9  C1  UNL     1      19.802   0.316  51.749  1.00  0.00     0.171 A 
HETATM   10  N3  UNL     1      21.011   0.845  51.608  1.00  0.00    -0.198 NA
BRANCH   9  11
HETATM   11  O1  UNL     1      18.891   0.224  50.679  1.00  0.00    -0.344 OA
HETATM   12  H1  UNL     1      18.924   0.878  49.898  1.00  0.00     0.219 HD
ENDBRANCH   9  11
ENDBRANCH   1   6
BRANCH   5  13
HETATM   13  C13 UNL     1      24.520  -0.207  53.355  1.00  0.00     0.001 C 
HETATM   14  C14 UNL     1      25.367  -0.610  54.263  1.00  0.00    -0.001 C 
BRANCH  14  15
HETATM   15  C15 UNL     1      26.300   0.304  54.916  1.00  0.00     0.013 C 
HETATM   16  C16 UNL     1      27.605   0.239  54.734  1.00  0.00    -0.013 A 
HETATM   17  C17 UNL     1      28.993   0.625  54.911  1.00  0.00     0.037 A 
HETATM   18  C18 UNL     1      28.715  -0.435  54.073  1.00  0.00     0.045 A 
HETATM   19 CL1  UNL     1      29.556  -1.565  53.067  1.00  0.00    -0.083 Cl
ENDBRANCH  14  15
ENDBRANCH   5  13
BRANCH   3  20
HETATM   20  C5  UNL     1      25.322   3.708  50.389  1.00  0.00    -0.010 A 
HETATM   21  C6  UNL     1      26.513   3.376  49.774  1.00  0.00     0.013 A 
HETATM   22  C7  UNL     1      27.170   4.308  48.996  1.00  0.00     0.001 A 
HETATM   23  C8  UNL     1      26.643   5.573  48.826  1.00  0.00     0.000 A 
HETATM   24  C9  UNL     1      25.449   5.893  49.448  1.00  0.00     0.001 A 
HETATM   25  C10 UNL     1      24.783   4.956  50.233  1.00  0.00     0.013 A 
ENDBRANCH   3  20
TORSDOF 5
ENDMDL
MODEL 8
REMARK VINA RESULT:      -8.0      4.132      6.115
REMARK  5 active torsions:
REMARK  status: ('A' for Active; 'I' for Inactive)
REMARK    1  A    between atoms: O1_1  and  C1_2 
REMARK    2  A    between atoms: C3_5  and  N1_6 
REMARK    3  A    between atoms: C4_8  and  C5_9 
REMARK    4  A    between atoms: C12_16  and  C13_17 
REMARK    5  A    between atoms: C14_18  and  C15_19 
ROOT
HETATM    1  N1  UNL     1      24.274   3.406  50.800  1.00  0.00    -0.237 N 
HETATM    2  N2  UNL     1      24.682   4.539  50.110  1.00  0.00    -0.173 NA
HETATM    3  C4  UNL     1      25.884   4.439  49.688  1.00  0.00     0.067 C 
HETATM    4  C11 UNL     1      26.418   3.097  50.107  1.00  0.00     0.093 C 
HETATM    5  C12 UNL     1      25.520   2.845  51.310  1.00  0.00     0.141 C 
ENDROOT
BRANCH   1   6
HETATM    6  C3  UNL     1      22.874   3.027  50.883  1.00  0.00     0.192 A 
HETATM    7  S1  UNL     1      21.921   1.989  49.606  1.00  0.00    -0.058 SA
HETATM    8  C2  UNL     1      20.398   2.099  50.584  1.00  0.00     0.111 A 
HETATM    9  C1  UNL     1      20.798   2.856  51.668  1.00  0.00     0.171 A 
HETATM   10  N3  UNL     1      22.068   3.242  51.667  1.00  0.00    -0.198 NA
BRANCH   9  11
HETATM   11  O1  UNL     1      19.910   3.194  52.708  1.00  0.00    -0.344 OA
HETATM   12  H1  UNL     1      19.257   3.971  52.613  1.00  0.00     0.219 HD
ENDBRANCH   9  11
ENDBRANCH   1   6
BRANCH   5  13
HETATM   13  C13 UNL     1      25.409   1.420  51.618  1.00  0.00     0.001 C 
HETATM   14  C14 UNL     1      26.065   0.877  52.608  1.00  0.00    -0.001 C 
BRANCH  14  15
HETATM   15  C15 UNL     1      26.950   1.653  53.471  1.00  0.00     0.013 C 
HETATM   16  C16 UNL     1      28.123   1.204  53.876  1.00  0.00    -0.013 A 
HETATM   17  C17 UNL     1      29.393   1.245  54.579  1.00  0.00     0.037 A 
HETATM   18  C18 UNL     1      29.090   0.114  53.849  1.00  0.00     0.045 A 
HETATM   19 CL1  UNL     1      29.792  -1.419  53.458  1.00  0.00    -0.083 Cl
ENDBRANCH  14  15
ENDBRANCH   5  13
BRANCH   3  20
HETATM   20  C5  UNL     1      26.643   5.424  48.931  1.00  0.00    -0.010 A 
HETATM   21  C6  UNL     1      27.941   5.107  48.582  1.00  0.00     0.013 A 
HETATM   22  C7  UNL     1      28.701   6.009  47.865  1.00  0.00     0.001 A 
HETATM   23  C8  UNL     1      28.171   7.228  47.491  1.00  0.00     0.000 A 
HETATM   24  C9  UNL     1      26.869   7.532  47.847  1.00  0.00     0.001 A 
HETATM   25  C10 UNL     1      26.099   6.627  48.571  1.00  0.00     0.013 A 
ENDBRANCH   3  20
TORSDOF 5
ENDMDL
MODEL 9
REMARK VINA RESULT:      -8.0      4.026      7.177
REMARK  5 active torsions:
REMARK  status: ('A' for Active; 'I' for Inactive)
REMARK    1  A    between atoms: O1_1  and  C1_2 
REMARK    2  A    between atoms: C3_5  and  N1_6 
REMARK    3  A    between atoms: C4_8  and  C5_9 
REMARK    4  A    between atoms: C12_16  and  C13_17 
REMARK    5  A    between atoms: C14_18  and  C15_19 
ROOT
HETATM    1  N1  UNL     1      23.201   2.615  51.376  1.00  0.00    -0.237 N 
HETATM    2  N2  UNL     1      21.934   2.243  50.948  1.00  0.00    -0.173 NA
HETATM    3  C4  UNL     1      21.385   1.403  51.740  1.00  0.00     0.067 C 
HETATM    4  C11 UNL     1      22.343   1.127  52.866  1.00  0.00     0.093 C 
HETATM    5  C12 UNL     1      23.648   1.471  52.164  1.00  0.00     0.141 C 
ENDROOT
BRANCH   1   6
HETATM    6  C3  UNL     1      23.781   3.897  51.016  1.00  0.00     0.192 A 
HETATM    7  S1  UNL     1      24.890   4.238  49.510  1.00  0.00    -0.058 SA
HETATM    8  C2  UNL     1      25.044   5.987  49.961  1.00  0.00     0.111 A 
HETATM    9  C1  UNL     1      24.284   6.063  51.112  1.00  0.00     0.171 A 
HETATM   10  N3  UNL     1      23.719   4.930  51.507  1.00  0.00    -0.198 NA
BRANCH   9  11
HETATM   11  O1  UNL     1      24.122   7.272  51.817  1.00  0.00    -0.344 OA
HETATM   12  H1  UNL     1      23.649   7.298  52.720  1.00  0.00     0.219 HD
ENDBRANCH   9  11
ENDBRANCH   1   6
BRANCH   5  13
HETATM   13  C13 UNL     1      24.702   1.823  53.114  1.00  0.00     0.001 C 
HETATM   14  C14 UNL     1      25.593   0.953  53.506  1.00  0.00    -0.001 C 
BRANCH  14  15
HETATM   15  C15 UNL     1      25.598  -0.425  53.022  1.00  0.00     0.013 C 
HETATM   16  C16 UNL     1      26.703  -1.140  52.924  1.00  0.00    -0.013 A 
HETATM   17  C17 UNL     1      27.507  -2.311  52.625  1.00  0.00     0.037 A 
HETATM   18  C18 UNL     1      28.148  -1.189  53.109  1.00  0.00     0.045 A 
HETATM   19 CL1  UNL     1      29.748  -0.668  53.516  1.00  0.00    -0.083 Cl
ENDBRANCH  14  15
ENDBRANCH   5  13
BRANCH   3  20
HETATM   20  C5  UNL     1      20.069   0.796  51.614  1.00  0.00    -0.010 A 
HETATM   21  C6  UNL     1      19.603   0.044  52.675  1.00  0.00     0.013 A 
HETATM   22  C7  UNL     1      18.360  -0.552  52.603  1.00  0.00     0.001 A 
HETATM   23  C8  UNL     1      17.577  -0.402  51.476  1.00  0.00     0.000 A 
HETATM   24  C9  UNL     1      18.056   0.353  50.420  1.00  0.00     0.001 A 
HETATM   25  C10 UNL     1      19.308   0.956  50.488  1.00  0.00     0.013 A 
ENDBRANCH   3  20
TORSDOF 5
ENDMDL
