MODEL 1
REMARK VINA RESULT:      -8.9      0.000      0.000
REMARK  0 active torsions:
REMARK  status: ('A' for Active; 'I' for Inactive)
ROOT
HETATM    1  C1  UNL     1      22.821  -0.864  53.576  1.00  0.00     0.017 C 
HETATM    2  C2  UNL     1      23.053   0.336  52.748  1.00  0.00    -0.020 C 
HETATM    3  C3  UNL     1      22.015   0.342  51.942  1.00  0.00     0.027 C 
HETATM    4  C4  UNL     1      21.194   0.859  50.881  1.00  0.00    -0.003 C 
HETATM    5  C5  UNL     1      20.725   1.597  49.906  1.00  0.00     0.086 C 
HETATM    6  N1  UNL     1      21.327   2.775  49.404  1.00  0.00    -0.351 N 
HETATM    7  C6  UNL     1      22.171   3.750  49.983  1.00  0.00     0.138 C 
HETATM    8  C7  UNL     1      23.493   3.809  49.955  1.00  0.00     0.027 C 
HETATM    9  C8  UNL     1      24.820   3.776  49.315  1.00  0.00     0.072 C 
HETATM   10  C9  UNL     1      25.782   4.822  49.900  1.00  0.00    -0.020 C 
HETATM   11  C10 UNL     1      25.032   5.945  50.143  1.00  0.00     0.028 C 
HETATM   12  C11 UNL     1      23.923   5.398  51.041  1.00  0.00     0.067 C 
HETATM   13  C12 UNL     1      24.103   4.063  51.275  1.00  0.00     0.106 C 
HETATM   14  O1  UNL     1      24.605   3.182  52.236  1.00  0.00    -0.342 OA
HETATM   15  C13 UNL     1      24.864   1.834  51.981  1.00  0.00     0.137 C 
HETATM   16  C14 UNL     1      26.376   1.697  51.950  1.00  0.00     0.063 C 
HETATM   17  C15 UNL     1      26.865   0.300  51.810  1.00  0.00     0.274 C 
HETATM   18  N2  UNL     1      25.988  -0.652  52.430  1.00  0.00     0.084 N 
HETATM   19  C16 UNL     1      26.794  -1.757  52.916  1.00  0.00     0.309 C 
HETATM   20  C17 UNL     1      25.343  -0.020  53.564  1.00  0.00     0.279 C 
HETATM   21  C18 UNL     1      24.341   1.018  53.148  1.00  0.00     0.053 C 
HETATM   22  N3  UNL     1      22.823   6.336  51.350  1.00  0.00    -0.348 N 
HETATM   23  C19 UNL     1      21.439   5.815  51.150  1.00  0.00     0.209 C 
HETATM   24  N4  UNL     1      21.156   4.626  50.589  1.00  0.00    -0.226 NA
HETATM   25  H7  UNL     1      21.244   3.177  48.455  1.00  0.00     0.166 HD
HETATM   26  H23 UNL     1      23.303   7.210  51.635  1.00  0.00     0.167 HD
ENDROOT
TORSDOF 0
ENDMDL
MODEL 2
REMARK VINA RESULT:      -8.5      1.995      4.745
REMARK  0 active torsions:
REMARK  status: ('A' for Active; 'I' for Inactive)
ROOT
HETATM    1  C1  UNL     1      26.535   2.466  51.566  1.00  0.00     0.017 C 
HETATM    2  C2  UNL     1      25.137   2.137  51.910  1.00  0.00    -0.020 C 
HETATM    3  C3  UNL     1      24.544   3.309  51.883  1.00  0.00     0.027 C 
HETATM    4  C4  UNL     1      23.425   4.205  52.003  1.00  0.00    -0.003 C 
HETATM    5  C5  UNL     1      22.224   4.691  52.193  1.00  0.00     0.086 C 
HETATM    6  N1  UNL     1      21.075   3.934  52.524  1.00  0.00    -0.351 N 
HETATM    7  C6  UNL     1      20.695   2.596  52.273  1.00  0.00     0.138 C 
HETATM    8  C7  UNL     1      20.849   1.541  53.056  1.00  0.00     0.027 C 
HETATM    9  C8  UNL     1      20.766   0.791  54.322  1.00  0.00     0.072 C 
HETATM   10  C9  UNL     1      20.349  -0.673  54.113  1.00  0.00    -0.020 C 
HETATM   11  C10 UNL     1      19.407  -0.669  53.115  1.00  0.00     0.028 C 
HETATM   12  C11 UNL     1      20.147   0.043  51.983  1.00  0.00     0.067 C 
HETATM   13  C12 UNL     1      21.419   0.367  52.364  1.00  0.00     0.106 C 
HETATM   14  O1  UNL     1      22.739  -0.077  52.251  1.00  0.00    -0.342 OA
HETATM   15  C13 UNL     1      23.782   0.407  53.043  1.00  0.00     0.137 C 
HETATM   16  C14 UNL     1      24.132  -0.713  54.006  1.00  0.00     0.063 C 
HETATM   17  C15 UNL     1      25.314  -0.440  54.866  1.00  0.00     0.274 C 
HETATM   18  N2  UNL     1      26.289   0.385  54.211  1.00  0.00     0.084 N 
HETATM   19  C16 UNL     1      27.601   0.005  54.701  1.00  0.00     0.309 C 
HETATM   20  C17 UNL     1      26.236   0.122  52.786  1.00  0.00     0.279 C 
HETATM   21  C18 UNL     1      24.984   0.653  52.150  1.00  0.00     0.053 C 
HETATM   22  N3  UNL     1      19.337   0.373  50.791  1.00  0.00    -0.348 N 
HETATM   23  C19 UNL     1      19.442   1.776  50.293  1.00  0.00     0.209 C 
HETATM   24  N4  UNL     1      20.104   2.755  50.934  1.00  0.00    -0.226 NA
HETATM   25  H7  UNL     1      20.234   4.248  53.037  1.00  0.00     0.166 HD
HETATM   26  H23 UNL     1      18.830  -0.505  50.574  1.00  0.00     0.167 HD
ENDROOT
TORSDOF 0
ENDMDL
MODEL 3
REMARK VINA RESULT:      -8.5      2.231      5.747
REMARK  0 active torsions:
REMARK  status: ('A' for Active; 'I' for Inactive)
ROOT
HETATM    1  C1  UNL     1      19.512  -0.553  52.659  1.00  0.00     0.017 C 
HETATM    2  C2  UNL     1      20.933  -0.172  52.787  1.00  0.00    -0.020 C 
HETATM    3  C3  UNL     1      21.309  -0.801  53.878  1.00  0.00     0.027 C 
HETATM    4  C4  UNL     1      22.245  -1.197  54.896  1.00  0.00    -0.003 C 
HETATM    5  C5  UNL     1      23.332  -1.336  55.611  1.00  0.00     0.086 C 
HETATM    6  N1  UNL     1      24.585  -0.744  55.326  1.00  0.00    -0.351 N 
HETATM    7  C6  UNL     1      25.207  -0.331  54.125  1.00  0.00     0.138 C 
HETATM    8  C7  UNL     1      25.214   0.875  53.580  1.00  0.00     0.027 C 
HETATM    9  C8  UNL     1      25.384   2.339  53.575  1.00  0.00     0.072 C 
HETATM   10  C9  UNL     1      26.063   2.848  52.293  1.00  0.00    -0.020 C 
HETATM   11  C10 UNL     1      27.025   1.924  51.971  1.00  0.00     0.028 C 
HETATM   12  C11 UNL     1      26.211   0.632  51.897  1.00  0.00     0.067 C 
HETATM   13  C12 UNL     1      24.889   0.878  52.141  1.00  0.00     0.106 C 
HETATM   14  O1  UNL     1      23.674   1.071  51.477  1.00  0.00    -0.342 OA
HETATM   15  C13 UNL     1      22.533   1.583  52.099  1.00  0.00     0.137 C 
HETATM   16  C14 UNL     1      22.354   2.988  51.553  1.00  0.00     0.063 C 
HETATM   17  C15 UNL     1      21.112   3.671  52.004  1.00  0.00     0.274 C 
HETATM   18  N2  UNL     1      20.030   2.752  52.219  1.00  0.00     0.084 N 
HETATM   19  C16 UNL     1      18.790   3.439  51.908  1.00  0.00     0.309 C 
HETATM   20  C17 UNL     1      20.180   1.637  51.305  1.00  0.00     0.279 C 
HETATM   21  C18 UNL     1      21.340   0.753  51.663  1.00  0.00     0.053 C 
HETATM   22  N3  UNL     1      26.992  -0.613  51.734  1.00  0.00    -0.348 N 
HETATM   23  C19 UNL     1      26.656  -1.726  52.671  1.00  0.00     0.209 C 
HETATM   24  N4  UNL     1      25.807  -1.607  53.707  1.00  0.00    -0.226 NA
HETATM   25  H7  UNL     1      25.338  -0.498  55.990  1.00  0.00     0.166 HD
HETATM   26  H23 UNL     1      27.654  -0.402  50.965  1.00  0.00     0.167 HD
ENDROOT
TORSDOF 0
ENDMDL
MODEL 4
REMARK VINA RESULT:      -8.5      2.010      6.415
REMARK  0 active torsions:
REMARK  status: ('A' for Active; 'I' for Inactive)
ROOT
HETATM    1  C1  UNL     1      24.259   7.991  49.995  1.00  0.00     0.017 C 
HETATM    2  C2  UNL     1      24.367   6.580  50.416  1.00  0.00    -0.020 C 
HETATM    3  C3  UNL     1      25.375   6.135  49.699  1.00  0.00     0.027 C 
HETATM    4  C4  UNL     1      26.313   5.143  49.246  1.00  0.00    -0.003 C 
HETATM    5  C5  UNL     1      26.972   4.023  49.086  1.00  0.00     0.086 C 
HETATM    6  N1  UNL     1      26.715   2.813  49.773  1.00  0.00    -0.351 N 
HETATM    7  C6  UNL     1      26.163   2.522  51.042  1.00  0.00     0.138 C 
HETATM    8  C7  UNL     1      24.906   2.231  51.340  1.00  0.00     0.027 C 
HETATM    9  C8  UNL     1      23.624   1.520  51.183  1.00  0.00     0.072 C 
HETATM   10  C9  UNL     1      22.978   1.170  52.533  1.00  0.00    -0.020 C 
HETATM   11  C10 UNL     1      24.002   0.809  53.372  1.00  0.00     0.028 C 
HETATM   12  C11 UNL     1      24.914   2.033  53.301  1.00  0.00     0.067 C 
HETATM   13  C12 UNL     1      24.378   2.992  52.489  1.00  0.00     0.106 C 
HETATM   14  O1  UNL     1      23.648   4.183  52.540  1.00  0.00    -0.342 OA
HETATM   15  C13 UNL     1      23.035   4.756  51.424  1.00  0.00     0.137 C 
HETATM   16  C14 UNL     1      21.544   4.549  51.613  1.00  0.00     0.063 C 
HETATM   17  C15 UNL     1      20.695   5.200  50.580  1.00  0.00     0.274 C 
HETATM   18  N2  UNL     1      21.277   6.414  50.080  1.00  0.00     0.084 N 
HETATM   19  C16 UNL     1      20.198   7.318  49.727  1.00  0.00     0.309 C 
HETATM   20  C17 UNL     1      22.061   7.023  51.136  1.00  0.00     0.279 C 
HETATM   21  C18 UNL     1      23.310   6.248  51.444  1.00  0.00     0.053 C 
HETATM   22  N3  UNL     1      26.225   1.899  53.973  1.00  0.00    -0.348 N 
HETATM   23  C19 UNL     1      27.418   2.304  53.172  1.00  0.00     0.209 C 
HETATM   24  N4  UNL     1      27.372   2.640  51.871  1.00  0.00    -0.226 NA
HETATM   25  H7  UNL     1      26.911   1.849  49.458  1.00  0.00     0.166 HD
HETATM   26  H23 UNL     1      25.998   1.506  54.904  1.00  0.00     0.167 HD
ENDROOT
TORSDOF 0
ENDMDL
MODEL 5
REMARK VINA RESULT:      -8.1      2.149      4.535
REMARK  0 active torsions:
REMARK  status: ('A' for Active; 'I' for Inactive)
ROOT
HETATM    1  C1  UNL     1      25.826   1.769  53.263  1.00  0.00     0.017 C 
HETATM    2  C2  UNL     1      24.440   1.813  52.755  1.00  0.00    -0.020 C 
HETATM    3  C3  UNL     1      24.170   3.099  52.750  1.00  0.00     0.027 C 
HETATM    4  C4  UNL     1      23.344   4.255  52.527  1.00  0.00    -0.003 C 
HETATM    5  C5  UNL     1      22.342   5.036  52.210  1.00  0.00     0.086 C 
HETATM    6  N1  UNL     1      21.093   4.606  51.702  1.00  0.00    -0.351 N 
HETATM    7  C6  UNL     1      20.695   3.481  50.945  1.00  0.00     0.138 C 
HETATM    8  C7  UNL     1      20.208   2.331  51.383  1.00  0.00     0.027 C 
HETATM    9  C8  UNL     1      19.312   1.475  52.181  1.00  0.00     0.072 C 
HETATM   10  C9  UNL     1      18.839   0.235  51.406  1.00  0.00    -0.020 C 
HETATM   11  C10 UNL     1      18.624   0.643  50.114  1.00  0.00     0.028 C 
HETATM   12  C11 UNL     1      19.975   1.256  49.747  1.00  0.00     0.067 C 
HETATM   13  C12 UNL     1      20.856   1.146  50.786  1.00  0.00     0.106 C 
HETATM   14  O1  UNL     1      21.920   0.360  51.237  1.00  0.00    -0.342 OA
HETATM   15  C13 UNL     1      22.414   0.412  52.542  1.00  0.00     0.137 C 
HETATM   16  C14 UNL     1      21.976  -0.879  53.208  1.00  0.00     0.063 C 
HETATM   17  C15 UNL     1      22.509  -1.076  54.582  1.00  0.00     0.274 C 
HETATM   18  N2  UNL     1      23.807  -0.487  54.754  1.00  0.00     0.084 N 
HETATM   19  C16 UNL     1      24.541  -1.291  55.715  1.00  0.00     0.309 C 
HETATM   20  C17 UNL     1      24.509  -0.531  53.486  1.00  0.00     0.279 C 
HETATM   21  C18 UNL     1      23.929   0.418  52.477  1.00  0.00     0.053 C 
HETATM   22  N3  UNL     1      20.031   1.962  48.448  1.00  0.00    -0.348 N 
HETATM   23  C19 UNL     1      20.631   3.328  48.468  1.00  0.00     0.209 C 
HETATM   24  N4  UNL     1      20.982   3.980  49.591  1.00  0.00    -0.226 NA
HETATM   25  H7  UNL     1      20.177   5.077  51.784  1.00  0.00     0.166 HD
HETATM   26  H23 UNL     1      19.589   1.304  47.780  1.00  0.00     0.167 HD
ENDROOT
TORSDOF 0
ENDMDL
MODEL 6
REMARK VINA RESULT:      -7.7      1.807      2.477
REMARK  0 active torsions:
REMARK  status: ('A' for Active; 'I' for Inactive)
ROOT
HETATM    1  C1  UNL     1      21.419  -0.096  51.363  1.00  0.00     0.017 C 
HETATM    2  C2  UNL     1      21.823   1.279  51.004  1.00  0.00    -0.020 C 
HETATM    3  C3  UNL     1      21.691   1.291  49.696  1.00  0.00     0.027 C 
HETATM    4  C4  UNL     1      21.744   1.887  48.388  1.00  0.00    -0.003 C 
HETATM    5  C5  UNL     1      21.909   2.733  47.403  1.00  0.00     0.086 C 
HETATM    6  N1  UNL     1      22.338   4.075  47.536  1.00  0.00    -0.351 N 
HETATM    7  C6  UNL     1      22.230   5.024  48.578  1.00  0.00     0.138 C 
HETATM    8  C7  UNL     1      23.112   5.304  49.525  1.00  0.00     0.027 C 
HETATM    9  C8  UNL     1      24.448   5.631  50.053  1.00  0.00     0.072 C 
HETATM   10  C9  UNL     1      24.395   6.666  51.188  1.00  0.00    -0.020 C 
HETATM   11  C10 UNL     1      23.422   7.570  50.843  1.00  0.00     0.028 C 
HETATM   12  C11 UNL     1      22.209   6.664  50.631  1.00  0.00     0.067 C 
HETATM   13  C12 UNL     1      22.530   5.359  50.880  1.00  0.00     0.106 C 
HETATM   14  O1  UNL     1      22.434   4.383  51.875  1.00  0.00    -0.342 OA
HETATM   15  C13 UNL     1      23.152   3.186  51.847  1.00  0.00     0.137 C 
HETATM   16  C14 UNL     1      24.214   3.308  52.924  1.00  0.00     0.063 C 
HETATM   17  C15 UNL     1      25.019   2.076  53.140  1.00  0.00     0.274 C 
HETATM   18  N2  UNL     1      24.263   0.880  52.895  1.00  0.00     0.084 N 
HETATM   19  C16 UNL     1      24.762  -0.156  53.780  1.00  0.00     0.309 C 
HETATM   20  C17 UNL     1      22.873   1.134  53.220  1.00  0.00     0.279 C 
HETATM   21  C18 UNL     1      22.214   2.059  52.238  1.00  0.00     0.053 C 
HETATM   22  N3  UNL     1      21.007   7.318  50.070  1.00  0.00    -0.348 N 
HETATM   23  C19 UNL     1      20.369   6.633  48.908  1.00  0.00     0.209 C 
HETATM   24  N4  UNL     1      20.895   5.566  48.280  1.00  0.00    -0.226 NA
HETATM   25  H7  UNL     1      22.834   4.656  46.840  1.00  0.00     0.166 HD
HETATM   26  H23 UNL     1      20.890   8.174  50.643  1.00  0.00     0.167 HD
ENDROOT
TORSDOF 0
ENDMDL
MODEL 7
REMARK VINA RESULT:      -7.5      1.728      4.527
REMARK  0 active torsions:
REMARK  status: ('A' for Active; 'I' for Inactive)
ROOT
HETATM    1  C1  UNL     1      26.358   4.276  49.851  1.00  0.00     0.017 C 
HETATM    2  C2  UNL     1      25.012   3.798  50.224  1.00  0.00    -0.020 C 
HETATM    3  C3  UNL     1      24.282   4.888  50.150  1.00  0.00     0.027 C 
HETATM    4  C4  UNL     1      23.064   5.647  50.240  1.00  0.00    -0.003 C 
HETATM    5  C5  UNL     1      21.814   5.993  50.419  1.00  0.00     0.086 C 
HETATM    6  N1  UNL     1      20.766   5.121  50.797  1.00  0.00    -0.351 N 
HETATM    7  C6  UNL     1      20.548   3.736  50.612  1.00  0.00     0.138 C 
HETATM    8  C7  UNL     1      20.833   2.745  51.442  1.00  0.00     0.027 C 
HETATM    9  C8  UNL     1      20.847   2.052  52.743  1.00  0.00     0.072 C 
HETATM   10  C9  UNL     1      20.608   0.540  52.606  1.00  0.00    -0.020 C 
HETATM   11  C10 UNL     1      19.668   0.383  51.619  1.00  0.00     0.028 C 
HETATM   12  C11 UNL     1      20.311   1.125  50.447  1.00  0.00     0.067 C 
HETATM   13  C12 UNL     1      21.536   1.618  50.800  1.00  0.00     0.106 C 
HETATM   14  O1  UNL     1      22.900   1.331  50.694  1.00  0.00    -0.342 OA
HETATM   15  C13 UNL     1      23.881   1.973  51.451  1.00  0.00     0.137 C 
HETATM   16  C14 UNL     1      24.368   0.951  52.461  1.00  0.00     0.063 C 
HETATM   17  C15 UNL     1      25.512   1.404  53.295  1.00  0.00     0.274 C 
HETATM   18  N2  UNL     1      26.377   2.308  52.592  1.00  0.00     0.084 N 
HETATM   19  C16 UNL     1      27.728   2.113  53.085  1.00  0.00     0.309 C 
HETATM   20  C17 UNL     1      26.350   1.973  51.181  1.00  0.00     0.279 C 
HETATM   21  C18 UNL     1      25.040   2.319  50.535  1.00  0.00     0.053 C 
HETATM   22  N3  UNL     1      19.461   1.298  49.250  1.00  0.00    -0.348 N 
HETATM   23  C19 UNL     1      19.394   2.679  48.686  1.00  0.00     0.209 C 
HETATM   24  N4  UNL     1      19.937   3.759  49.274  1.00  0.00    -0.226 NA
HETATM   25  H7  UNL     1      19.895   5.355  51.303  1.00  0.00     0.166 HD
HETATM   26  H23 UNL     1      19.063   0.357  49.079  1.00  0.00     0.167 HD
ENDROOT
TORSDOF 0
ENDMDL
MODEL 8
REMARK VINA RESULT:      -7.4      8.701     12.119
REMARK  0 active torsions:
REMARK  status: ('A' for Active; 'I' for Inactive)
ROOT
HETATM    1  C1  UNL     1      29.935  11.646  48.959  1.00  0.00     0.017 C 
HETATM    2  C2  UNL     1      30.801  10.524  48.543  1.00  0.00    -0.020 C 
HETATM    3  C3  UNL     1      31.630  11.092  47.696  1.00  0.00     0.027 C 
HETATM    4  C4  UNL     1      32.732  11.118  46.772  1.00  0.00    -0.003 C 
HETATM    5  C5  UNL     1      33.748  10.768  46.025  1.00  0.00     0.086 C 
HETATM    6  N1  UNL     1      34.298   9.466  45.942  1.00  0.00    -0.351 N 
HETATM    7  C6  UNL     1      34.354   8.383  46.848  1.00  0.00     0.138 C 
HETATM    8  C7  UNL     1      33.528   7.352  46.943  1.00  0.00     0.027 C 
HETATM    9  C8  UNL     1      32.737   6.220  46.429  1.00  0.00     0.072 C 
HETATM   10  C9  UNL     1      32.766   5.006  47.371  1.00  0.00    -0.020 C 
HETATM   11  C10 UNL     1      34.040   4.936  47.875  1.00  0.00     0.028 C 
HETATM   12  C11 UNL     1      34.219   6.328  48.480  1.00  0.00     0.067 C 
HETATM   13  C12 UNL     1      33.085   7.074  48.323  1.00  0.00     0.106 C 
HETATM   14  O1  UNL     1      31.944   7.485  49.019  1.00  0.00    -0.342 OA
HETATM   15  C13 UNL     1      30.831   8.056  48.398  1.00  0.00     0.137 C 
HETATM   16  C14 UNL     1      29.738   7.005  48.449  1.00  0.00     0.063 C 
HETATM   17  C15 UNL     1      28.417   7.463  47.941  1.00  0.00     0.274 C 
HETATM   18  N2  UNL     1      28.195   8.861  48.181  1.00  0.00     0.084 N 
HETATM   19  C16 UNL     1      26.771   9.062  48.383  1.00  0.00     0.309 C 
HETATM   20  C17 UNL     1      28.889   9.240  49.397  1.00  0.00     0.279 C 
HETATM   21  C18 UNL     1      30.381   9.244  49.227  1.00  0.00     0.053 C 
HETATM   22  N3  UNL     1      35.578   6.650  48.964  1.00  0.00    -0.348 N 
HETATM   23  C19 UNL     1      36.146   7.954  48.510  1.00  0.00     0.209 C 
HETATM   24  N4  UNL     1      35.560   8.755  47.603  1.00  0.00    -0.226 NA
HETATM   25  H7  UNL     1      34.809   9.041  45.150  1.00  0.00     0.166 HD
HETATM   26  H23 UNL     1      35.851   5.826  49.532  1.00  0.00     0.167 HD
ENDROOT
TORSDOF 0
ENDMDL
MODEL 9
REMARK VINA RESULT:      -7.2      8.445     11.392
REMARK  0 active torsions:
REMARK  status: ('A' for Active; 'I' for Inactive)
ROOT
HETATM    1  C1  UNL     1      28.275   5.683  48.289  1.00  0.00     0.017 C 
HETATM    2  C2  UNL     1      29.477   6.390  47.805  1.00  0.00    -0.020 C 
HETATM    3  C3  UNL     1      30.437   5.518  48.020  1.00  0.00     0.027 C 
HETATM    4  C4  UNL     1      31.796   5.047  48.002  1.00  0.00    -0.003 C 
HETATM    5  C5  UNL     1      33.091   4.966  47.829  1.00  0.00     0.086 C 
HETATM    6  N1  UNL     1      33.910   5.972  47.263  1.00  0.00    -0.351 N 
HETATM    7  C6  UNL     1      33.664   7.004  46.329  1.00  0.00     0.138 C 
HETATM    8  C7  UNL     1      33.351   8.268  46.569  1.00  0.00     0.027 C 
HETATM    9  C8  UNL     1      33.502   9.584  47.216  1.00  0.00     0.072 C 
HETATM   10  C9  UNL     1      33.252  10.748  46.245  1.00  0.00    -0.020 C 
HETATM   11  C10 UNL     1      33.797  10.375  45.043  1.00  0.00     0.028 C 
HETATM   12  C11 UNL     1      33.092   9.045  44.776  1.00  0.00     0.067 C 
HETATM   13  C12 UNL     1      32.206   8.756  45.775  1.00  0.00     0.106 C 
HETATM   14  O1  UNL     1      30.844   8.824  46.079  1.00  0.00    -0.342 OA
HETATM   15  C13 UNL     1      30.337   8.667  47.371  1.00  0.00     0.137 C 
HETATM   16  C14 UNL     1      29.879  10.046  47.811  1.00  0.00     0.063 C 
HETATM   17  C15 UNL     1      29.190  10.075  49.128  1.00  0.00     0.274 C 
HETATM   18  N2  UNL     1      28.458   8.868  49.389  1.00  0.00     0.084 N 
HETATM   19  C16 UNL     1      27.299   9.210  50.194  1.00  0.00     0.309 C 
HETATM   20  C17 UNL     1      27.996   8.323  48.127  1.00  0.00     0.279 C 
HETATM   21  C18 UNL     1      29.118   7.767  47.298  1.00  0.00     0.053 C 
HETATM   22  N3  UNL     1      33.589   8.274  43.615  1.00  0.00    -0.348 N 
HETATM   23  C19 UNL     1      33.887   6.833  43.863  1.00  0.00     0.209 C 
HETATM   24  N4  UNL     1      33.860   6.256  45.078  1.00  0.00    -0.226 NA
HETATM   25  H7  UNL     1      34.915   6.143  47.431  1.00  0.00     0.166 HD
HETATM   26  H23 UNL     1      33.640   8.969  42.848  1.00  0.00     0.167 HD
ENDROOT
TORSDOF 0
ENDMDL
