MODEL 1
REMARK VINA RESULT:      -7.6      0.000      0.000
REMARK  7 active torsions:
REMARK  status: ('A' for Active; 'I' for Inactive)
REMARK    1  A    between atoms: C2_2  and  N1_3 
REMARK    2  A    between atoms: N1_3  and  C4_5 
REMARK    3  A    between atoms: C4_5  and  C5_6 
REMARK    4  A    between atoms: C5_6  and  C6_7 
REMARK       I    between atoms: C6_7  and  N2_9 
REMARK    5  A    between atoms: N3_15  and  C11_16 
REMARK    6  A    between atoms: C11_16  and  C12_17 
REMARK    7  A    between atoms: C17_22  and  O2_23 
ROOT
HETATM    1  C6  UNL     1      25.827  -0.720  54.124  1.00  0.00     0.221 C 
HETATM    2  O1  UNL     1      25.195  -1.225  55.102  1.00  0.00    -0.273 OA
HETATM    3  N2  UNL     1      25.037  -0.148  53.066  1.00  0.00    -0.347 N 
HETATM    4  C7  UNL     1      25.663   0.433  51.933  1.00  0.00     0.136 C 
HETATM    5  C8  UNL     1      25.330   1.828  51.599  1.00  0.00     0.093 C 
HETATM    6  S1  UNL     1      23.670   2.235  51.968  1.00  0.00    -0.148 SA
HETATM    7  C9  UNL     1      22.918   1.103  52.754  1.00  0.00    -0.013 C 
HETATM    8  C10 UNL     1      21.507   1.078  53.245  1.00  0.00     0.162 C 
HETATM    9  N3  UNL     1      20.498   1.510  52.390  1.00  0.00    -0.379 N 
HETATM   10  C18 UNL     1      20.103   2.896  52.450  1.00  0.00     0.340 C 
HETATM   11  N4  UNL     1      21.022   3.823  52.143  1.00  0.00    -0.422 NA
HETATM   12  C19 UNL     1      21.783   4.730  52.074  1.00  0.00     0.293 C 
HETATM   13  N5  UNL     1      22.028   4.087  50.801  1.00  0.00    -0.237 NA
HETATM   14  C20 UNL     1      22.810   3.037  50.689  1.00  0.00     0.158 C 
HETATM   15  C21 UNL     1      23.632  -0.146  53.111  1.00  0.00     0.168 C 
ENDROOT
BRANCH   9  16
HETATM   16  C11 UNL     1      20.164   0.781  51.246  1.00  0.00     0.161 C 
BRANCH  16  17
HETATM   17  C12 UNL     1      18.804   0.145  51.394  1.00  0.00    -0.007 A 
HETATM   18  C13 UNL     1      18.333  -0.616  52.437  1.00  0.00     0.011 A 
HETATM   19  C14 UNL     1      17.044  -1.111  52.390  1.00  0.00     0.001 A 
HETATM   20  C15 UNL     1      16.221  -0.861  51.321  1.00  0.00     0.003 A 
HETATM   21  C16 UNL     1      16.680  -0.102  50.269  1.00  0.00     0.037 A 
HETATM   22  C17 UNL     1      17.964   0.397  50.306  1.00  0.00     0.073 A 
BRANCH  22  23
HETATM   23  O2  UNL     1      18.313   1.153  49.179  1.00  0.00    -0.360 OA
HETATM   24  H25 UNL     1      18.969   0.773  48.510  1.00  0.00     0.217 HD
ENDBRANCH  22  23
ENDBRANCH  16  17
ENDBRANCH   9  16
BRANCH   1  25
HETATM   25  C5  UNL     1      27.308  -0.789  54.210  1.00  0.00     0.133 C 
BRANCH  25  26
HETATM   26  C4  UNL     1      27.886   0.401  54.934  1.00  0.00     0.281 C 
BRANCH  26  27
HETATM   27  N1  UNL     1      29.298   0.570  54.659  1.00  0.00     0.084 N 
HETATM   28  C3  UNL     1      29.747  -0.152  53.512  1.00  0.00     0.309 C 
BRANCH  27  29
HETATM   29  C2  UNL     1      29.511   1.985  54.402  1.00  0.00     0.267 C 
HETATM   30  C1  UNL     1      28.465   2.568  53.507  1.00  0.00     0.037 C 
ENDBRANCH  27  29
ENDBRANCH  26  27
ENDBRANCH  25  26
ENDBRANCH   1  25
TORSDOF 7
ENDMDL
MODEL 2
REMARK VINA RESULT:      -7.5      1.649      2.350
REMARK  7 active torsions:
REMARK  status: ('A' for Active; 'I' for Inactive)
REMARK    1  A    between atoms: C2_2  and  N1_3 
REMARK    2  A    between atoms: N1_3  and  C4_5 
REMARK    3  A    between atoms: C4_5  and  C5_6 
REMARK    4  A    between atoms: C5_6  and  C6_7 
REMARK       I    between atoms: C6_7  and  N2_9 
REMARK    5  A    between atoms: N3_15  and  C11_16 
REMARK    6  A    between atoms: C11_16  and  C12_17 
REMARK    7  A    between atoms: C17_22  and  O2_23 
ROOT
HETATM    1  C6  UNL     1      26.850   2.145  53.446  1.00  0.00     0.221 C 
HETATM    2  O1  UNL     1      26.281   2.032  54.576  1.00  0.00    -0.273 OA
HETATM    3  N2  UNL     1      25.997   2.143  52.287  1.00  0.00    -0.347 N 
HETATM    4  C7  UNL     1      26.550   2.260  50.985  1.00  0.00     0.136 C 
HETATM    5  C8  UNL     1      26.064   3.350  50.123  1.00  0.00     0.093 C 
HETATM    6  S1  UNL     1      24.370   3.705  50.372  1.00  0.00    -0.148 SA
HETATM    7  C9  UNL     1      23.752   2.934  51.592  1.00  0.00    -0.013 C 
HETATM    8  C10 UNL     1      22.353   2.975  52.118  1.00  0.00     0.162 C 
HETATM    9  N3  UNL     1      21.299   2.909  51.211  1.00  0.00    -0.379 N 
HETATM   10  C18 UNL     1      20.754   4.148  50.713  1.00  0.00     0.340 C 
HETATM   11  N4  UNL     1      21.562   4.950  50.007  1.00  0.00    -0.422 NA
HETATM   12  C19 UNL     1      22.218   5.817  49.532  1.00  0.00     0.293 C 
HETATM   13  N5  UNL     1      22.529   4.732  48.627  1.00  0.00    -0.237 NA
HETATM   14  C20 UNL     1      23.421   3.814  48.920  1.00  0.00     0.158 C 
HETATM   15  C21 UNL     1      24.600   2.025  52.396  1.00  0.00     0.168 C 
ENDROOT
BRANCH   9  16
HETATM   16  C11 UNL     1      21.045   1.742  50.489  1.00  0.00     0.161 C 
BRANCH  16  17
HETATM   17  C12 UNL     1      20.052   0.868  51.214  1.00  0.00    -0.007 A 
HETATM   18  C13 UNL     1      20.190   0.267  52.442  1.00  0.00     0.011 A 
HETATM   19  C14 UNL     1      19.156  -0.499  52.944  1.00  0.00     0.001 A 
HETATM   20  C15 UNL     1      17.990  -0.676  52.243  1.00  0.00     0.003 A 
HETATM   21  C16 UNL     1      17.838  -0.080  51.011  1.00  0.00     0.037 A 
HETATM   22  C17 UNL     1      18.863   0.687  50.500  1.00  0.00     0.073 A 
BRANCH  22  23
HETATM   23  O2  UNL     1      18.589   1.238  49.242  1.00  0.00    -0.360 OA
HETATM   24  H25 UNL     1      17.767   0.936  48.736  1.00  0.00     0.217 HD
ENDBRANCH  22  23
ENDBRANCH  16  17
ENDBRANCH   9  16
BRANCH   1  25
HETATM   25  C5  UNL     1      28.329   2.266  53.480  1.00  0.00     0.133 C 
BRANCH  25  26
HETATM   26  C4  UNL     1      28.972   1.107  54.200  1.00  0.00     0.281 C 
BRANCH  26  27
HETATM   27  N1  UNL     1      28.991  -0.093  53.390  1.00  0.00     0.084 N 
HETATM   28  C3  UNL     1      30.164  -0.887  53.571  1.00  0.00     0.309 C 
BRANCH  27  29
HETATM   29  C2  UNL     1      27.848  -0.895  53.797  1.00  0.00     0.267 C 
HETATM   30  C1  UNL     1      27.071  -1.418  52.632  1.00  0.00     0.037 C 
ENDBRANCH  27  29
ENDBRANCH  26  27
ENDBRANCH  25  26
ENDBRANCH   1  25
TORSDOF 7
ENDMDL
MODEL 3
REMARK VINA RESULT:      -7.5      3.108      8.210
REMARK  7 active torsions:
REMARK  status: ('A' for Active; 'I' for Inactive)
REMARK    1  A    between atoms: C2_2  and  N1_3 
REMARK    2  A    between atoms: N1_3  and  C4_5 
REMARK    3  A    between atoms: C4_5  and  C5_6 
REMARK    4  A    between atoms: C5_6  and  C6_7 
REMARK       I    between atoms: C6_7  and  N2_9 
REMARK    5  A    between atoms: N3_15  and  C11_16 
REMARK    6  A    between atoms: C11_16  and  C12_17 
REMARK    7  A    between atoms: C17_22  and  O2_23 
ROOT
HETATM    1  C6  UNL     1      22.886   5.133  51.425  1.00  0.00     0.221 C 
HETATM    2  O1  UNL     1      23.732   5.771  52.125  1.00  0.00    -0.273 OA
HETATM    3  N2  UNL     1      23.045   3.705  51.359  1.00  0.00    -0.347 N 
HETATM    4  C7  UNL     1      22.146   2.915  50.595  1.00  0.00     0.136 C 
HETATM    5  C8  UNL     1      21.441   1.816  51.276  1.00  0.00     0.093 C 
HETATM    6  S1  UNL     1      22.411   1.057  52.518  1.00  0.00    -0.148 SA
HETATM    7  C9  UNL     1      23.759   1.813  52.795  1.00  0.00    -0.013 C 
HETATM    8  C10 UNL     1      24.839   1.480  53.773  1.00  0.00     0.162 C 
HETATM    9  N3  UNL     1      25.261   0.158  53.872  1.00  0.00    -0.379 N 
HETATM   10  C18 UNL     1      24.624  -0.687  54.853  1.00  0.00     0.340 C 
HETATM   11  N4  UNL     1      23.309  -0.916  54.723  1.00  0.00    -0.422 NA
HETATM   12  C19 UNL     1      22.134  -1.044  54.821  1.00  0.00     0.293 C 
HETATM   13  N5  UNL     1      22.334  -1.509  53.466  1.00  0.00    -0.237 NA
HETATM   14  C20 UNL     1      22.457  -0.678  52.455  1.00  0.00     0.158 C 
HETATM   15  C21 UNL     1      24.084   3.043  52.036  1.00  0.00     0.168 C 
ENDROOT
BRANCH   9  16
HETATM   16  C11 UNL     1      25.952  -0.457  52.826  1.00  0.00     0.161 C 
BRANCH  16  17
HETATM   17  C12 UNL     1      27.433  -0.489  53.108  1.00  0.00    -0.007 A 
HETATM   18  C13 UNL     1      28.250   0.556  53.471  1.00  0.00     0.011 A 
HETATM   19  C14 UNL     1      29.593   0.323  53.692  1.00  0.00     0.001 A 
HETATM   20  C15 UNL     1      30.135  -0.931  53.556  1.00  0.00     0.003 A 
HETATM   21  C16 UNL     1      29.328  -1.986  53.191  1.00  0.00     0.037 A 
HETATM   22  C17 UNL     1      27.987  -1.765  52.968  1.00  0.00     0.073 A 
BRANCH  22  23
HETATM   23  O2  UNL     1      27.274  -2.915  52.604  1.00  0.00    -0.360 OA
HETATM   24  H25 UNL     1      27.735  -3.814  52.633  1.00  0.00     0.217 HD
ENDBRANCH  22  23
ENDBRANCH  16  17
ENDBRANCH   9  16
BRANCH   1  25
HETATM   25  C5  UNL     1      21.842   5.958  50.768  1.00  0.00     0.133 C 
BRANCH  25  26
HETATM   26  C4  UNL     1      22.397   6.759  49.617  1.00  0.00     0.281 C 
BRANCH  26  27
HETATM   27  N1  UNL     1      22.605   5.944  48.439  1.00  0.00     0.084 N 
HETATM   28  C3  UNL     1      21.505   5.963  47.529  1.00  0.00     0.309 C 
BRANCH  27  29
HETATM   29  C2  UNL     1      23.760   6.491  47.746  1.00  0.00     0.267 C 
HETATM   30  C1  UNL     1      24.782   7.046  48.686  1.00  0.00     0.037 C 
ENDBRANCH  27  29
ENDBRANCH  26  27
ENDBRANCH  25  26
ENDBRANCH   1  25
TORSDOF 7
ENDMDL
MODEL 4
REMARK VINA RESULT:      -7.4      3.865      7.959
REMARK  7 active torsions:
REMARK  status: ('A' for Active; 'I' for Inactive)
REMARK    1  A    between atoms: C2_2  and  N1_3 
REMARK    2  A    between atoms: N1_3  and  C4_5 
REMARK    3  A    between atoms: C4_5  and  C5_6 
REMARK    4  A    between atoms: C5_6  and  C6_7 
REMARK       I    between atoms: C6_7  and  N2_9 
REMARK    5  A    between atoms: N3_15  and  C11_16 
REMARK    6  A    between atoms: C11_16  and  C12_17 
REMARK    7  A    between atoms: C17_22  and  O2_23 
ROOT
HETATM    1  C6  UNL     1      23.586   7.333  50.198  1.00  0.00     0.221 C 
HETATM    2  O1  UNL     1      24.028   7.777  51.302  1.00  0.00    -0.273 OA
HETATM    3  N2  UNL     1      23.654   5.911  49.995  1.00  0.00    -0.347 N 
HETATM    4  C7  UNL     1      23.186   5.332  48.787  1.00  0.00     0.136 C 
HETATM    5  C8  UNL     1      22.162   4.277  48.876  1.00  0.00     0.093 C 
HETATM    6  S1  UNL     1      22.348   3.272  50.295  1.00  0.00    -0.148 SA
HETATM    7  C9  UNL     1      23.442   3.805  51.289  1.00  0.00    -0.013 C 
HETATM    8  C10 UNL     1      23.883   3.231  52.596  1.00  0.00     0.162 C 
HETATM    9  N3  UNL     1      24.108   1.860  52.678  1.00  0.00    -0.379 N 
HETATM   10  C18 UNL     1      23.016   1.017  53.098  1.00  0.00     0.340 C 
HETATM   11  N4  UNL     1      21.918   0.984  52.330  1.00  0.00    -0.422 NA
HETATM   12  C19 UNL     1      20.837   1.009  51.841  1.00  0.00     0.293 C 
HETATM   13  N5  UNL     1      21.637   0.659  50.687  1.00  0.00    -0.237 NA
HETATM   14  C20 UNL     1      22.295   1.562  49.996  1.00  0.00     0.158 C 
HETATM   15  C21 UNL     1      24.182   5.048  50.972  1.00  0.00     0.168 C 
ENDROOT
BRANCH   9  16
HETATM   16  C11 UNL     1      25.174   1.265  52.001  1.00  0.00     0.161 C 
BRANCH  16  17
HETATM   17  C12 UNL     1      26.371   1.121  52.907  1.00  0.00    -0.007 A 
HETATM   18  C13 UNL     1      26.556   0.224  53.933  1.00  0.00     0.011 A 
HETATM   19  C14 UNL     1      27.735   0.247  54.651  1.00  0.00     0.001 A 
HETATM   20  C15 UNL     1      28.730   1.148  54.367  1.00  0.00     0.003 A 
HETATM   21  C16 UNL     1      28.558   2.052  53.343  1.00  0.00     0.037 A 
HETATM   22  C17 UNL     1      27.386   2.039  52.619  1.00  0.00     0.073 A 
BRANCH  22  23
HETATM   23  O2  UNL     1      27.331   3.005  51.606  1.00  0.00    -0.360 OA
HETATM   24  H25 UNL     1      26.852   2.793  50.742  1.00  0.00     0.217 HD
ENDBRANCH  22  23
ENDBRANCH  16  17
ENDBRANCH   9  16
BRANCH   1  25
HETATM   25  C5  UNL     1      23.054   8.355  49.261  1.00  0.00     0.133 C 
BRANCH  25  26
HETATM   26  C4  UNL     1      24.119   8.872  48.327  1.00  0.00     0.281 C 
BRANCH  26  27
HETATM   27  N1  UNL     1      25.435   8.384  48.681  1.00  0.00     0.084 N 
HETATM   28  C3  UNL     1      26.139   7.792  47.588  1.00  0.00     0.309 C 
BRANCH  27  29
HETATM   29  C2  UNL     1      26.205   9.533  49.130  1.00  0.00     0.267 C 
HETATM   30  C1  UNL     1      27.195   9.179  50.192  1.00  0.00     0.037 C 
ENDBRANCH  27  29
ENDBRANCH  26  27
ENDBRANCH  25  26
ENDBRANCH   1  25
TORSDOF 7
ENDMDL
MODEL 5
REMARK VINA RESULT:      -7.4      2.571      3.466
REMARK  7 active torsions:
REMARK  status: ('A' for Active; 'I' for Inactive)
REMARK    1  A    between atoms: C2_2  and  N1_3 
REMARK    2  A    between atoms: N1_3  and  C4_5 
REMARK    3  A    between atoms: C4_5  and  C5_6 
REMARK    4  A    between atoms: C5_6  and  C6_7 
REMARK       I    between atoms: C6_7  and  N2_9 
REMARK    5  A    between atoms: N3_15  and  C11_16 
REMARK    6  A    between atoms: C11_16  and  C12_17 
REMARK    7  A    between atoms: C17_22  and  O2_23 
ROOT
HETATM    1  C6  UNL     1      26.814   2.259  53.284  1.00  0.00     0.221 C 
HETATM    2  O1  UNL     1      26.262   2.264  54.428  1.00  0.00    -0.273 OA
HETATM    3  N2  UNL     1      25.977   2.578  52.159  1.00  0.00    -0.347 N 
HETATM    4  C7  UNL     1      26.510   2.591  50.844  1.00  0.00     0.136 C 
HETATM    5  C8  UNL     1      26.362   3.821  50.049  1.00  0.00     0.093 C 
HETATM    6  S1  UNL     1      24.863   4.661  50.376  1.00  0.00    -0.148 SA
HETATM    7  C9  UNL     1      24.065   4.051  51.583  1.00  0.00    -0.013 C 
HETATM    8  C10 UNL     1      22.758   4.487  52.161  1.00  0.00     0.162 C 
HETATM    9  N3  UNL     1      21.716   4.794  51.292  1.00  0.00    -0.379 N 
HETATM   10  C18 UNL     1      21.564   6.164  50.870  1.00  0.00     0.340 C 
HETATM   11  N4  UNL     1      22.564   6.719  50.170  1.00  0.00    -0.422 NA
HETATM   12  C19 UNL     1      23.443   7.370  49.711  1.00  0.00     0.293 C 
HETATM   13  N5  UNL     1      23.387   6.291  48.748  1.00  0.00    -0.237 NA
HETATM   14  C20 UNL     1      23.962   5.131  48.967  1.00  0.00     0.158 C 
HETATM   15  C21 UNL     1      24.613   2.885  52.314  1.00  0.00     0.168 C 
ENDROOT
BRANCH   9  16
HETATM   16  C11 UNL     1      21.100   3.800  50.529  1.00  0.00     0.161 C 
BRANCH  16  17
HETATM   17  C12 UNL     1      20.925   2.536  51.334  1.00  0.00    -0.007 A 
HETATM   18  C13 UNL     1      20.222   2.367  52.503  1.00  0.00     0.011 A 
HETATM   19  C14 UNL     1      20.175   1.118  53.092  1.00  0.00     0.001 A 
HETATM   20  C15 UNL     1      20.817   0.040  52.538  1.00  0.00     0.003 A 
HETATM   21  C16 UNL     1      21.525   0.196  51.368  1.00  0.00     0.037 A 
HETATM   22  C17 UNL     1      21.579   1.437  50.771  1.00  0.00     0.073 A 
BRANCH  22  23
HETATM   23  O2  UNL     1      22.330   1.467  49.588  1.00  0.00    -0.360 OA
HETATM   24  H25 UNL     1      23.247   1.891  49.593  1.00  0.00     0.217 HD
ENDBRANCH  22  23
ENDBRANCH  16  17
ENDBRANCH   9  16
BRANCH   1  25
HETATM   25  C5  UNL     1      28.259   1.921  53.269  1.00  0.00     0.133 C 
BRANCH  25  26
HETATM   26  C4  UNL     1      28.559   0.689  54.085  1.00  0.00     0.281 C 
BRANCH  26  27
HETATM   27  N1  UNL     1      28.850  -0.458  53.251  1.00  0.00     0.084 N 
HETATM   28  C3  UNL     1      30.028  -1.165  53.643  1.00  0.00     0.309 C 
BRANCH  27  29
HETATM   29  C2  UNL     1      27.725  -1.369  53.377  1.00  0.00     0.267 C 
HETATM   30  C1  UNL     1      26.713  -1.183  52.293  1.00  0.00     0.037 C 
ENDBRANCH  27  29
ENDBRANCH  26  27
ENDBRANCH  25  26
ENDBRANCH   1  25
TORSDOF 7
ENDMDL
MODEL 6
REMARK VINA RESULT:      -7.3      3.585      6.457
REMARK  7 active torsions:
REMARK  status: ('A' for Active; 'I' for Inactive)
REMARK    1  A    between atoms: C2_2  and  N1_3 
REMARK    2  A    between atoms: N1_3  and  C4_5 
REMARK    3  A    between atoms: C4_5  and  C5_6 
REMARK    4  A    between atoms: C5_6  and  C6_7 
REMARK       I    between atoms: C6_7  and  N2_9 
REMARK    5  A    between atoms: N3_15  and  C11_16 
REMARK    6  A    between atoms: C11_16  and  C12_17 
REMARK    7  A    between atoms: C17_22  and  O2_23 
ROOT
HETATM    1  C6  UNL     1      26.331   2.022  51.359  1.00  0.00     0.221 C 
HETATM    2  O1  UNL     1      26.916   2.297  50.266  1.00  0.00    -0.273 OA
HETATM    3  N2  UNL     1      25.180   2.817  51.698  1.00  0.00    -0.347 N 
HETATM    4  C7  UNL     1      24.470   2.580  52.903  1.00  0.00     0.136 C 
HETATM    5  C8  UNL     1      23.026   2.305  52.813  1.00  0.00     0.093 C 
HETATM    6  S1  UNL     1      22.250   3.187  51.517  1.00  0.00    -0.148 SA
HETATM    7  C9  UNL     1      23.268   3.941  50.589  1.00  0.00    -0.013 C 
HETATM    8  C10 UNL     1      22.994   4.789  49.389  1.00  0.00     0.162 C 
HETATM    9  N3  UNL     1      21.965   5.724  49.456  1.00  0.00    -0.379 N 
HETATM   10  C18 UNL     1      20.653   5.323  49.011  1.00  0.00     0.340 C 
HETATM   11  N4  UNL     1      20.046   4.325  49.669  1.00  0.00    -0.422 NA
HETATM   12  C19 UNL     1      19.491   3.347  50.047  1.00  0.00     0.293 C 
HETATM   13  N5  UNL     1      19.662   4.050  51.301  1.00  0.00    -0.237 NA
HETATM   14  C20 UNL     1      20.795   4.022  51.966  1.00  0.00     0.158 C 
HETATM   15  C21 UNL     1      24.721   3.848  50.860  1.00  0.00     0.168 C 
ENDROOT
BRANCH   9  16
HETATM   16  C11 UNL     1      22.064   6.844  50.284  1.00  0.00     0.161 C 
BRANCH  16  17
HETATM   17  C12 UNL     1      23.131   7.786  49.787  1.00  0.00    -0.007 A 
HETATM   18  C13 UNL     1      23.125   8.544  48.640  1.00  0.00     0.011 A 
HETATM   19  C14 UNL     1      24.206   9.358  48.358  1.00  0.00     0.001 A 
HETATM   20  C15 UNL     1      25.289   9.426  49.197  1.00  0.00     0.003 A 
HETATM   21  C16 UNL     1      25.308   8.672  50.348  1.00  0.00     0.037 A 
HETATM   22  C17 UNL     1      24.236   7.856  50.640  1.00  0.00     0.073 A 
BRANCH  22  23
HETATM   23  O2  UNL     1      24.375   7.140  51.836  1.00  0.00    -0.360 OA
HETATM   24  H25 UNL     1      24.092   6.170  51.870  1.00  0.00     0.217 HD
ENDBRANCH  22  23
ENDBRANCH  16  17
ENDBRANCH   9  16
BRANCH   1  25
HETATM   25  C5  UNL     1      26.921   0.907  52.142  1.00  0.00     0.133 C 
BRANCH  25  26
HETATM   26  C4  UNL     1      27.959   1.394  53.121  1.00  0.00     0.281 C 
BRANCH  26  27
HETATM   27  N1  UNL     1      28.041   0.546  54.292  1.00  0.00     0.084 N 
HETATM   28  C3  UNL     1      26.773   0.268  54.886  1.00  0.00     0.309 C 
BRANCH  27  29
HETATM   29  C2  UNL     1      28.612  -0.719  53.858  1.00  0.00     0.267 C 
HETATM   30  C1  UNL     1      30.069  -0.611  53.541  1.00  0.00     0.037 C 
ENDBRANCH  27  29
ENDBRANCH  26  27
ENDBRANCH  25  26
ENDBRANCH   1  25
TORSDOF 7
ENDMDL
MODEL 7
REMARK VINA RESULT:      -7.3      2.640      5.303
REMARK  7 active torsions:
REMARK  status: ('A' for Active; 'I' for Inactive)
REMARK    1  A    between atoms: C2_2  and  N1_3 
REMARK    2  A    between atoms: N1_3  and  C4_5 
REMARK    3  A    between atoms: C4_5  and  C5_6 
REMARK    4  A    between atoms: C5_6  and  C6_7 
REMARK       I    between atoms: C6_7  and  N2_9 
REMARK    5  A    between atoms: N3_15  and  C11_16 
REMARK    6  A    between atoms: C11_16  and  C12_17 
REMARK    7  A    between atoms: C17_22  and  O2_23 
ROOT
HETATM    1  C6  UNL     1      26.150   0.477  52.206  1.00  0.00     0.221 C 
HETATM    2  O1  UNL     1      26.834   0.933  51.238  1.00  0.00    -0.273 OA
HETATM    3  N2  UNL     1      24.875   1.097  52.449  1.00  0.00    -0.347 N 
HETATM    4  C7  UNL     1      24.049   0.653  53.515  1.00  0.00     0.136 C 
HETATM    5  C8  UNL     1      22.676   0.230  53.195  1.00  0.00     0.093 C 
HETATM    6  S1  UNL     1      21.970   1.155  51.888  1.00  0.00    -0.148 SA
HETATM    7  C9  UNL     1      22.997   2.115  51.188  1.00  0.00    -0.013 C 
HETATM    8  C10 UNL     1      22.778   3.052  50.045  1.00  0.00     0.162 C 
HETATM    9  N3  UNL     1      21.640   3.853  50.051  1.00  0.00    -0.379 N 
HETATM   10  C18 UNL     1      20.458   3.359  49.389  1.00  0.00     0.340 C 
HETATM   11  N4  UNL     1      19.901   2.234  49.859  1.00  0.00    -0.422 NA
HETATM   12  C19 UNL     1      19.428   1.165  50.062  1.00  0.00     0.293 C 
HETATM   13  N5  UNL     1      19.345   1.742  51.387  1.00  0.00    -0.237 NA
HETATM   14  C20 UNL     1      20.375   1.769  52.201  1.00  0.00     0.158 C 
HETATM   15  C21 UNL     1      24.403   2.156  51.654  1.00  0.00     0.168 C 
ENDROOT
BRANCH   9  16
HETATM   16  C11 UNL     1      21.489   4.880  50.984  1.00  0.00     0.161 C 
BRANCH  16  17
HETATM   17  C12 UNL     1      22.104   6.161  50.477  1.00  0.00    -0.007 A 
HETATM   18  C13 UNL     1      21.650   6.978  49.470  1.00  0.00     0.011 A 
HETATM   19  C14 UNL     1      22.357   8.122  49.152  1.00  0.00     0.001 A 
HETATM   20  C15 UNL     1      23.506   8.462  49.819  1.00  0.00     0.003 A 
HETATM   21  C16 UNL     1      23.973   7.652  50.830  1.00  0.00     0.037 A 
HETATM   22  C17 UNL     1      23.276   6.508  51.156  1.00  0.00     0.073 A 
BRANCH  22  23
HETATM   23  O2  UNL     1      23.850   5.769  52.198  1.00  0.00    -0.360 OA
HETATM   24  H25 UNL     1      24.856   5.747  52.295  1.00  0.00     0.217 HD
ENDBRANCH  22  23
ENDBRANCH  16  17
ENDBRANCH   9  16
BRANCH   1  25
HETATM   25  C5  UNL     1      26.769  -0.643  52.958  1.00  0.00     0.133 C 
BRANCH  25  26
HETATM   26  C4  UNL     1      27.490  -0.162  54.193  1.00  0.00     0.281 C 
BRANCH  26  27
HETATM   27  N1  UNL     1      28.900  -0.490  54.160  1.00  0.00     0.084 N 
HETATM   28  C3  UNL     1      29.209  -1.603  53.319  1.00  0.00     0.309 C 
BRANCH  27  29
HETATM   29  C2  UNL     1      29.591   0.672  53.625  1.00  0.00     0.267 C 
HETATM   30  C1  UNL     1      29.022   1.959  54.130  1.00  0.00     0.037 C 
ENDBRANCH  27  29
ENDBRANCH  26  27
ENDBRANCH  25  26
ENDBRANCH   1  25
TORSDOF 7
ENDMDL
MODEL 8
REMARK VINA RESULT:      -7.0      3.224      8.558
REMARK  7 active torsions:
REMARK  status: ('A' for Active; 'I' for Inactive)
REMARK    1  A    between atoms: C2_2  and  N1_3 
REMARK    2  A    between atoms: N1_3  and  C4_5 
REMARK    3  A    between atoms: C4_5  and  C5_6 
REMARK    4  A    between atoms: C5_6  and  C6_7 
REMARK       I    between atoms: C6_7  and  N2_9 
REMARK    5  A    between atoms: N3_15  and  C11_16 
REMARK    6  A    between atoms: C11_16  and  C12_17 
REMARK    7  A    between atoms: C17_22  and  O2_23 
ROOT
HETATM    1  C6  UNL     1      23.631   6.849  50.364  1.00  0.00     0.221 C 
HETATM    2  O1  UNL     1      24.160   7.314  51.421  1.00  0.00    -0.273 OA
HETATM    3  N2  UNL     1      23.650   5.420  50.203  1.00  0.00    -0.347 N 
HETATM    4  C7  UNL     1      23.086   4.817  49.049  1.00  0.00     0.136 C 
HETATM    5  C8  UNL     1      22.045   3.793  49.242  1.00  0.00     0.093 C 
HETATM    6  S1  UNL     1      22.304   2.827  50.677  1.00  0.00    -0.148 SA
HETATM    7  C9  UNL     1      23.476   3.361  51.575  1.00  0.00    -0.013 C 
HETATM    8  C10 UNL     1      23.993   2.815  52.867  1.00  0.00     0.162 C 
HETATM    9  N3  UNL     1      24.189   1.442  52.978  1.00  0.00    -0.379 N 
HETATM   10  C18 UNL     1      23.108   0.641  53.499  1.00  0.00     0.340 C 
HETATM   11  N4  UNL     1      21.959   0.614  52.809  1.00  0.00    -0.422 NA
HETATM   12  C19 UNL     1      20.848   0.654  52.394  1.00  0.00     0.293 C 
HETATM   13  N5  UNL     1      21.558   0.248  51.200  1.00  0.00    -0.237 NA
HETATM   14  C20 UNL     1      22.189   1.111  50.436  1.00  0.00     0.158 C 
HETATM   15  C21 UNL     1      24.223   4.574  51.169  1.00  0.00     0.168 C 
ENDROOT
BRANCH   9  16
HETATM   16  C11 UNL     1      25.191   0.798  52.250  1.00  0.00     0.161 C 
BRANCH  16  17
HETATM   17  C12 UNL     1      26.541   1.015  52.887  1.00  0.00    -0.007 A 
HETATM   18  C13 UNL     1      27.407   2.067  52.702  1.00  0.00     0.011 A 
HETATM   19  C14 UNL     1      28.606   2.088  53.387  1.00  0.00     0.001 A 
HETATM   20  C15 UNL     1      28.956   1.081  54.251  1.00  0.00     0.003 A 
HETATM   21  C16 UNL     1      28.098   0.021  54.445  1.00  0.00     0.037 A 
HETATM   22  C17 UNL     1      26.899  -0.011  53.767  1.00  0.00     0.073 A 
BRANCH  22  23
HETATM   23  O2  UNL     1      26.116  -1.138  54.048  1.00  0.00    -0.360 OA
HETATM   24  H25 UNL     1      25.887  -1.355  55.009  1.00  0.00     0.217 HD
ENDBRANCH  22  23
ENDBRANCH  16  17
ENDBRANCH   9  16
BRANCH   1  25
HETATM   25  C5  UNL     1      23.061   7.856  49.434  1.00  0.00     0.133 C 
BRANCH  25  26
HETATM   26  C4  UNL     1      21.607   8.132  49.724  1.00  0.00     0.281 C 
BRANCH  26  27
HETATM   27  N1  UNL     1      20.907   8.635  48.560  1.00  0.00     0.084 N 
HETATM   28  C3  UNL     1      20.975   7.762  47.432  1.00  0.00     0.309 C 
BRANCH  27  29
HETATM   29  C2  UNL     1      19.508   8.765  48.934  1.00  0.00     0.267 C 
HETATM   30  C1  UNL     1      19.312   9.663  50.113  1.00  0.00     0.037 C 
ENDBRANCH  27  29
ENDBRANCH  26  27
ENDBRANCH  25  26
ENDBRANCH   1  25
TORSDOF 7
ENDMDL
MODEL 9
REMARK VINA RESULT:      -6.9      6.128      8.644
REMARK  7 active torsions:
REMARK  status: ('A' for Active; 'I' for Inactive)
REMARK    1  A    between atoms: C2_2  and  N1_3 
REMARK    2  A    between atoms: N1_3  and  C4_5 
REMARK    3  A    between atoms: C4_5  and  C5_6 
REMARK    4  A    between atoms: C5_6  and  C6_7 
REMARK       I    between atoms: C6_7  and  N2_9 
REMARK    5  A    between atoms: N3_15  and  C11_16 
REMARK    6  A    between atoms: C11_16  and  C12_17 
REMARK    7  A    between atoms: C17_22  and  O2_23 
ROOT
HETATM    1  C6  UNL     1      26.858   9.364  49.450  1.00  0.00     0.221 C 
HETATM    2  O1  UNL     1      27.149   9.368  50.686  1.00  0.00    -0.273 OA
HETATM    3  N2  UNL     1      26.215   8.183  48.939  1.00  0.00    -0.347 N 
HETATM    4  C7  UNL     1      25.860   8.092  47.568  1.00  0.00     0.136 C 
HETATM    5  C8  UNL     1      24.455   7.805  47.235  1.00  0.00     0.093 C 
HETATM    6  S1  UNL     1      23.688   6.743  48.394  1.00  0.00    -0.148 SA
HETATM    7  C9  UNL     1      24.580   6.461  49.655  1.00  0.00    -0.013 C 
HETATM    8  C10 UNL     1      24.277   5.616  50.849  1.00  0.00     0.162 C 
HETATM    9  N3  UNL     1      23.710   4.360  50.649  1.00  0.00    -0.379 N 
HETATM   10  C18 UNL     1      22.272   4.253  50.671  1.00  0.00     0.340 C 
HETATM   11  N4  UNL     1      21.580   4.925  49.740  1.00  0.00    -0.422 NA
HETATM   12  C19 UNL     1      20.857   5.608  49.093  1.00  0.00     0.293 C 
HETATM   13  N5  UNL     1      21.627   4.977  48.043  1.00  0.00    -0.237 NA
HETATM   14  C20 UNL     1      22.822   5.406  47.702  1.00  0.00     0.158 C 
HETATM   15  C21 UNL     1      25.919   7.084  49.765  1.00  0.00     0.168 C 
ENDROOT
BRANCH   9  16
HETATM   16  C11 UNL     1      24.436   3.332  50.046  1.00  0.00     0.161 C 
BRANCH  16  17
HETATM   17  C12 UNL     1      25.003   2.395  51.083  1.00  0.00    -0.007 A 
HETATM   18  C13 UNL     1      24.348   1.411  51.785  1.00  0.00     0.011 A 
HETATM   19  C14 UNL     1      25.048   0.647  52.698  1.00  0.00     0.001 A 
HETATM   20  C15 UNL     1      26.387   0.848  52.924  1.00  0.00     0.003 A 
HETATM   21  C16 UNL     1      27.055   1.831  52.228  1.00  0.00     0.037 A 
HETATM   22  C17 UNL     1      26.367   2.599  51.315  1.00  0.00     0.073 A 
BRANCH  22  23
HETATM   23  O2  UNL     1      27.155   3.563  50.673  1.00  0.00    -0.360 OA
HETATM   24  H25 UNL     1      26.761   4.101  49.914  1.00  0.00     0.217 HD
ENDBRANCH  22  23
ENDBRANCH  16  17
ENDBRANCH   9  16
BRANCH   1  25
HETATM   25  C5  UNL     1      27.225  10.591  48.699  1.00  0.00     0.133 C 
BRANCH  25  26
HETATM   26  C4  UNL     1      28.659  10.557  48.231  1.00  0.00     0.281 C 
BRANCH  26  27
HETATM   27  N1  UNL     1      29.282  11.862  48.299  1.00  0.00     0.084 N 
HETATM   28  C3  UNL     1      28.516  12.825  49.024  1.00  0.00     0.309 C 
BRANCH  27  29
HETATM   29  C2  UNL     1      30.547  11.690  48.996  1.00  0.00     0.267 C 
HETATM   30  C1  UNL     1      30.768  10.280  49.440  1.00  0.00     0.037 C 
ENDBRANCH  27  29
ENDBRANCH  26  27
ENDBRANCH  25  26
ENDBRANCH   1  25
TORSDOF 7
ENDMDL
