MODEL 1
REMARK VINA RESULT:      -9.5      0.000      0.000
REMARK  4 active torsions:
REMARK  status: ('A' for Active; 'I' for Inactive)
REMARK       I    between atoms: C1_2  and  N1_3 
REMARK    1  A    between atoms: C1_2  and  C16_23 
REMARK    2  A    between atoms: N1_3  and  C2_4 
REMARK    3  A    between atoms: N2_10  and  C7_11 
REMARK    4  A    between atoms: C10_15  and  C11_16 
ROOT
HETATM    1  C2  UNL     1      26.509   1.696  53.584  1.00  0.00     0.126 A 
HETATM    2  C3  UNL     1      27.726   2.245  53.435  1.00  0.00     0.051 A 
HETATM    3  C4  UNL     1      28.941   1.448  53.447  1.00  0.00     0.025 A 
HETATM    4  C5  UNL     1      28.751   0.152  53.607  1.00  0.00     0.030 A 
HETATM    5 CL1  UNL     1      30.110  -0.982  53.652  1.00  0.00    -0.087 Cl
HETATM    6  C6  UNL     1      27.491  -0.617  53.743  1.00  0.00     0.200 A 
HETATM    7  N2  UNL     1      26.373   0.301  53.805  1.00  0.00    -0.159 N 
ENDROOT
BRANCH   7   8
HETATM    8  C7  UNL     1      25.088  -0.194  54.106  1.00  0.00     0.731 A 
HETATM    9  N3  UNL     1      24.970  -0.940  55.219  1.00  0.00    -0.075 NA
HETATM   10  C8  UNL     1      23.851  -1.486  55.683  1.00  0.00     0.139 A 
HETATM   11  C9  UNL     1      22.683  -1.294  54.987  1.00  0.00     0.053 A 
HETATM   12  C10 UNL     1      22.775  -0.536  53.843  1.00  0.00     0.089 A 
HETATM   13  N5  UNL     1      23.953  -0.023  53.452  1.00  0.00    -0.062 NA
BRANCH  12  14
HETATM   14  C11 UNL     1      21.612  -0.246  53.016  1.00  0.00     0.011 A 
HETATM   15  C12 UNL     1      21.767   0.221  51.734  1.00  0.00     0.017 A 
HETATM   16  C13 UNL     1      20.753   0.525  50.861  1.00  0.00     0.020 A 
HETATM   17  C14 UNL     1      19.458   0.335  51.343  1.00  0.00     0.116 A 
HETATM   18  N4  UNL     1      19.272  -0.125  52.609  1.00  0.00    -0.272 NA
HETATM   19  C15 UNL     1      20.307  -0.407  53.421  1.00  0.00     0.130 A 
ENDBRANCH  12  14
ENDBRANCH   7   8
BRANCH   1  20
HETATM   20  N1  UNL     1      25.476   2.672  53.531  1.00  0.00    -0.308 N 
HETATM   21  C1  UNL     1      25.007   2.878  52.184  1.00  0.00     0.257 C 
HETATM   22  O1  UNL     1      25.475   2.247  51.174  1.00  0.00    -0.267 OA
HETATM   23  H1  UNL     1      25.068   3.203  54.325  1.00  0.00     0.170 HD
BRANCH  21  24
HETATM   24  C16 UNL     1      23.960   3.827  51.880  1.00  0.00     0.032 A 
HETATM   25  C17 UNL     1      22.672   3.609  52.325  1.00  0.00     0.017 A 
HETATM   26  C18 UNL     1      21.605   4.452  52.084  1.00  0.00     0.001 A 
HETATM   27  C19 UNL     1      21.797   5.598  51.353  1.00  0.00     0.000 A 
HETATM   28  C20 UNL     1      23.067   5.863  50.885  1.00  0.00     0.001 A 
HETATM   29  C21 UNL     1      24.101   4.990  51.153  1.00  0.00     0.017 A 
ENDBRANCH  21  24
ENDBRANCH   1  20
TORSDOF 4
ENDMDL
MODEL 2
REMARK VINA RESULT:      -9.1      2.964      5.882
REMARK  4 active torsions:
REMARK  status: ('A' for Active; 'I' for Inactive)
REMARK       I    between atoms: C1_2  and  N1_3 
REMARK    1  A    between atoms: C1_2  and  C16_23 
REMARK    2  A    between atoms: N1_3  and  C2_4 
REMARK    3  A    between atoms: N2_10  and  C7_11 
REMARK    4  A    between atoms: C10_15  and  C11_16 
ROOT
HETATM    1  C2  UNL     1      24.728   3.966  50.680  1.00  0.00     0.126 A 
HETATM    2  C3  UNL     1      25.506   4.972  50.244  1.00  0.00     0.051 A 
HETATM    3  C4  UNL     1      25.108   5.836  49.146  1.00  0.00     0.025 A 
HETATM    4  C5  UNL     1      23.929   5.559  48.622  1.00  0.00     0.030 A 
HETATM    5 CL1  UNL     1      23.275   6.499  47.272  1.00  0.00    -0.087 Cl
HETATM    6  C6  UNL     1      22.937   4.526  49.003  1.00  0.00     0.200 A 
HETATM    7  N2  UNL     1      23.493   3.685  50.042  1.00  0.00    -0.159 N 
ENDROOT
BRANCH   7   8
HETATM    8  C7  UNL     1      22.795   2.528  50.442  1.00  0.00     0.731 A 
HETATM    9  N3  UNL     1      21.844   2.072  49.607  1.00  0.00    -0.075 NA
HETATM   10  C8  UNL     1      21.086   0.997  49.792  1.00  0.00     0.139 A 
HETATM   11  C9  UNL     1      21.259   0.253  50.933  1.00  0.00     0.053 A 
HETATM   12  C10 UNL     1      22.225   0.698  51.806  1.00  0.00     0.089 A 
HETATM   13  N5  UNL     1      22.944   1.798  51.534  1.00  0.00    -0.062 NA
BRANCH  12  14
HETATM   14  C11 UNL     1      22.520  -0.002  53.049  1.00  0.00     0.011 A 
HETATM   15  C12 UNL     1      23.818  -0.187  53.455  1.00  0.00     0.017 A 
HETATM   16  C13 UNL     1      24.220  -0.824  54.602  1.00  0.00     0.020 A 
HETATM   17  C14 UNL     1      23.198  -1.319  55.412  1.00  0.00     0.116 A 
HETATM   18  N4  UNL     1      21.901  -1.152  55.037  1.00  0.00    -0.272 NA
HETATM   19  C15 UNL     1      21.568  -0.518  53.898  1.00  0.00     0.130 A 
ENDBRANCH  12  14
ENDBRANCH   7   8
BRANCH   1  20
HETATM   20  N1  UNL     1      25.324   3.267  51.766  1.00  0.00    -0.308 N 
HETATM   21  C1  UNL     1      26.420   2.440  51.330  1.00  0.00     0.257 C 
HETATM   22  O1  UNL     1      26.797   2.362  50.109  1.00  0.00    -0.267 OA
HETATM   23  H1  UNL     1      25.049   3.304  52.768  1.00  0.00     0.170 HD
BRANCH  21  24
HETATM   24  C16 UNL     1      27.178   1.631  52.256  1.00  0.00     0.032 A 
HETATM   25  C17 UNL     1      28.041   2.225  53.155  1.00  0.00     0.017 A 
HETATM   26  C18 UNL     1      28.810   1.540  54.075  1.00  0.00     0.001 A 
HETATM   27  C19 UNL     1      28.742   0.170  54.131  1.00  0.00     0.000 A 
HETATM   28  C20 UNL     1      27.894  -0.473  53.254  1.00  0.00     0.001 A 
HETATM   29  C21 UNL     1      27.146   0.256  52.353  1.00  0.00     0.017 A 
ENDBRANCH  21  24
ENDBRANCH   1  20
TORSDOF 4
ENDMDL
MODEL 3
REMARK VINA RESULT:      -9.0      3.188      6.148
REMARK  4 active torsions:
REMARK  status: ('A' for Active; 'I' for Inactive)
REMARK       I    between atoms: C1_2  and  N1_3 
REMARK    1  A    between atoms: C1_2  and  C16_23 
REMARK    2  A    between atoms: N1_3  and  C2_4 
REMARK    3  A    between atoms: N2_10  and  C7_11 
REMARK    4  A    between atoms: C10_15  and  C11_16 
ROOT
HETATM    1  C2  UNL     1      22.919   1.922  50.201  1.00  0.00     0.126 A 
HETATM    2  C3  UNL     1      21.855   1.808  49.387  1.00  0.00     0.051 A 
HETATM    3  C4  UNL     1      20.616   1.184  49.818  1.00  0.00     0.025 A 
HETATM    4  C5  UNL     1      20.618   0.749  51.063  1.00  0.00     0.030 A 
HETATM    5 CL1  UNL     1      19.200  -0.043  51.768  1.00  0.00    -0.087 Cl
HETATM    6  C6  UNL     1      21.676   0.829  52.098  1.00  0.00     0.200 A 
HETATM    7  N2  UNL     1      22.878   1.387  51.514  1.00  0.00    -0.159 N 
ENDROOT
BRANCH   7   8
HETATM    8  C7  UNL     1      24.070   1.400  52.266  1.00  0.00     0.731 A 
HETATM    9  N3  UNL     1      24.288   2.479  53.040  1.00  0.00    -0.075 NA
HETATM   10  C8  UNL     1      25.338   2.680  53.829  1.00  0.00     0.139 A 
HETATM   11  C9  UNL     1      26.315   1.717  53.888  1.00  0.00     0.053 A 
HETATM   12  C10 UNL     1      26.118   0.603  53.106  1.00  0.00     0.089 A 
HETATM   13  N5  UNL     1      25.023   0.488  52.338  1.00  0.00    -0.062 NA
BRANCH  12  14
HETATM   14  C11 UNL     1      27.071  -0.498  53.081  1.00  0.00     0.011 A 
HETATM   15  C12 UNL     1      28.367  -0.309  53.491  1.00  0.00     0.017 A 
HETATM   16  C13 UNL     1      29.350  -1.266  53.518  1.00  0.00     0.020 A 
HETATM   17  C14 UNL     1      28.974  -2.537  53.082  1.00  0.00     0.116 A 
HETATM   18  N4  UNL     1      27.697  -2.755  52.669  1.00  0.00    -0.272 NA
HETATM   19  C15 UNL     1      26.775  -1.776  52.665  1.00  0.00     0.130 A 
ENDBRANCH  12  14
ENDBRANCH   7   8
BRANCH   1  20
HETATM   20  N1  UNL     1      24.010   2.572  49.561  1.00  0.00    -0.308 N 
HETATM   21  C1  UNL     1      24.011   3.990  49.820  1.00  0.00     0.257 C 
HETATM   22  O1  UNL     1      23.129   4.570  50.543  1.00  0.00    -0.267 OA
HETATM   23  H1  UNL     1      24.745   2.137  48.969  1.00  0.00     0.170 HD
BRANCH  21  24
HETATM   24  C16 UNL     1      25.023   4.862  49.271  1.00  0.00     0.032 A 
HETATM   25  C17 UNL     1      24.680   6.106  48.781  1.00  0.00     0.017 A 
HETATM   26  C18 UNL     1      25.571   7.007  48.234  1.00  0.00     0.001 A 
HETATM   27  C19 UNL     1      26.903   6.682  48.153  1.00  0.00     0.000 A 
HETATM   28  C20 UNL     1      27.298   5.450  48.629  1.00  0.00     0.001 A 
HETATM   29  C21 UNL     1      26.369   4.583  49.167  1.00  0.00     0.017 A 
ENDBRANCH  21  24
ENDBRANCH   1  20
TORSDOF 4
ENDMDL
MODEL 4
REMARK VINA RESULT:      -8.8      3.309      6.849
REMARK  4 active torsions:
REMARK  status: ('A' for Active; 'I' for Inactive)
REMARK       I    between atoms: C1_2  and  N1_3 
REMARK    1  A    between atoms: C1_2  and  C16_23 
REMARK    2  A    between atoms: N1_3  and  C2_4 
REMARK    3  A    between atoms: N2_10  and  C7_11 
REMARK    4  A    between atoms: C10_15  and  C11_16 
ROOT
HETATM    1  C2  UNL     1      22.365   0.837  52.960  1.00  0.00     0.126 A 
HETATM    2  C3  UNL     1      21.927   0.411  54.156  1.00  0.00     0.051 A 
HETATM    3  C4  UNL     1      20.625  -0.210  54.326  1.00  0.00     0.025 A 
HETATM    4  C5  UNL     1      19.918  -0.328  53.218  1.00  0.00     0.030 A 
HETATM    5 CL1  UNL     1      18.305  -1.057  53.224  1.00  0.00    -0.087 Cl
HETATM    6  C6  UNL     1      20.262   0.045  51.825  1.00  0.00     0.200 A 
HETATM    7  N2  UNL     1      21.537   0.730  51.812  1.00  0.00    -0.159 N 
ENDROOT
BRANCH   7   8
HETATM    8  C7  UNL     1      21.988   1.330  50.619  1.00  0.00     0.731 A 
HETATM    9  N3  UNL     1      21.354   0.978  49.486  1.00  0.00    -0.075 NA
HETATM   10  C8  UNL     1      21.617   1.434  48.266  1.00  0.00     0.139 A 
HETATM   11  C9  UNL     1      22.623   2.355  48.106  1.00  0.00     0.053 A 
HETATM   12  C10 UNL     1      23.288   2.733  49.249  1.00  0.00     0.089 A 
HETATM   13  N5  UNL     1      22.952   2.216  50.442  1.00  0.00    -0.062 NA
BRANCH  12  14
HETATM   14  C11 UNL     1      24.369   3.708  49.224  1.00  0.00     0.011 A 
HETATM   15  C12 UNL     1      25.655   3.333  49.522  1.00  0.00     0.017 A 
HETATM   16  C13 UNL     1      26.753   4.156  49.529  1.00  0.00     0.020 A 
HETATM   17  C14 UNL     1      26.514   5.490  49.200  1.00  0.00     0.116 A 
HETATM   18  N4  UNL     1      25.250   5.893  48.900  1.00  0.00    -0.272 NA
HETATM   19  C15 UNL     1      24.211   5.039  48.910  1.00  0.00     0.130 A 
ENDBRANCH  12  14
ENDBRANCH   7   8
BRANCH   1  20
HETATM   20  N1  UNL     1      23.667   1.403  53.042  1.00  0.00    -0.308 N 
HETATM   21  C1  UNL     1      24.685   0.387  53.130  1.00  0.00     0.257 C 
HETATM   22  O1  UNL     1      24.426  -0.866  53.131  1.00  0.00    -0.267 OA
HETATM   23  H1  UNL     1      23.919   2.411  53.042  1.00  0.00     0.170 HD
BRANCH  21  24
HETATM   24  C16 UNL     1      26.087   0.722  53.227  1.00  0.00     0.032 A 
HETATM   25  C17 UNL     1      27.038  -0.276  53.300  1.00  0.00     0.017 A 
HETATM   26  C18 UNL     1      28.398  -0.059  53.399  1.00  0.00     0.001 A 
HETATM   27  C19 UNL     1      28.880   1.227  53.430  1.00  0.00     0.000 A 
HETATM   28  C20 UNL     1      27.970   2.261  53.360  1.00  0.00     0.001 A 
HETATM   29  C21 UNL     1      26.621   1.992  53.262  1.00  0.00     0.017 A 
ENDBRANCH  21  24
ENDBRANCH   1  20
TORSDOF 4
ENDMDL
MODEL 5
REMARK VINA RESULT:      -8.5      3.579      7.196
REMARK  4 active torsions:
REMARK  status: ('A' for Active; 'I' for Inactive)
REMARK       I    between atoms: C1_2  and  N1_3 
REMARK    1  A    between atoms: C1_2  and  C16_23 
REMARK    2  A    between atoms: N1_3  and  C2_4 
REMARK    3  A    between atoms: N2_10  and  C7_11 
REMARK    4  A    between atoms: C10_15  and  C11_16 
ROOT
HETATM    1  C2  UNL     1      21.631   3.012  50.230  1.00  0.00     0.126 A 
HETATM    2  C3  UNL     1      20.341   3.219  49.917  1.00  0.00     0.051 A 
HETATM    3  C4  UNL     1      19.938   3.818  48.657  1.00  0.00     0.025 A 
HETATM    4  C5  UNL     1      20.933   4.132  47.849  1.00  0.00     0.030 A 
HETATM    5 CL1  UNL     1      20.641   4.875  46.269  1.00  0.00    -0.087 Cl
HETATM    6  C6  UNL     1      22.393   3.936  48.016  1.00  0.00     0.200 A 
HETATM    7  N2  UNL     1      22.660   3.419  49.341  1.00  0.00    -0.159 N 
ENDROOT
BRANCH   7   8
HETATM    8  C7  UNL     1      23.992   3.315  49.787  1.00  0.00     0.731 A 
HETATM    9  N3  UNL     1      24.903   4.084  49.163  1.00  0.00    -0.075 NA
HETATM   10  C8  UNL     1      26.202   4.143  49.439  1.00  0.00     0.139 A 
HETATM   11  C9  UNL     1      26.700   3.360  50.451  1.00  0.00     0.053 A 
HETATM   12  C10 UNL     1      25.790   2.563  51.106  1.00  0.00     0.089 A 
HETATM   13  N5  UNL     1      24.494   2.570  50.756  1.00  0.00    -0.062 NA
BRANCH  12  14
HETATM   14  C11 UNL     1      26.181   1.691  52.205  1.00  0.00     0.011 A 
HETATM   15  C12 UNL     1      26.543   0.389  51.967  1.00  0.00     0.017 A 
HETATM   16  C13 UNL     1      26.933  -0.524  52.915  1.00  0.00     0.020 A 
HETATM   17  C14 UNL     1      26.954  -0.063  54.231  1.00  0.00     0.116 A 
HETATM   18  N4  UNL     1      26.600   1.223  54.498  1.00  0.00    -0.272 NA
HETATM   19  C15 UNL     1      26.226   2.073  53.526  1.00  0.00     0.130 A 
ENDBRANCH  12  14
ENDBRANCH   7   8
BRANCH   1  20
HETATM   20  N1  UNL     1      21.778   2.409  51.510  1.00  0.00    -0.308 N 
HETATM   21  C1  UNL     1      21.704   0.972  51.433  1.00  0.00     0.257 C 
HETATM   22  O1  UNL     1      21.530   0.337  50.336  1.00  0.00    -0.267 OA
HETATM   23  H1  UNL     1      21.922   2.888  52.421  1.00  0.00     0.170 HD
BRANCH  21  24
HETATM   24  C16 UNL     1      21.822   0.141  52.609  1.00  0.00     0.032 A 
HETATM   25  C17 UNL     1      23.051  -0.043  53.211  1.00  0.00     0.017 A 
HETATM   26  C18 UNL     1      23.267  -0.820  54.332  1.00  0.00     0.001 A 
HETATM   27  C19 UNL     1      22.211  -1.473  54.920  1.00  0.00     0.000 A 
HETATM   28  C20 UNL     1      20.962  -1.322  54.357  1.00  0.00     0.001 A 
HETATM   29  C21 UNL     1      20.797  -0.535  53.236  1.00  0.00     0.017 A 
ENDBRANCH  21  24
ENDBRANCH   1  20
TORSDOF 4
ENDMDL
MODEL 6
REMARK VINA RESULT:      -8.2      2.944      6.230
REMARK  4 active torsions:
REMARK  status: ('A' for Active; 'I' for Inactive)
REMARK       I    between atoms: C1_2  and  N1_3 
REMARK    1  A    between atoms: C1_2  and  C16_23 
REMARK    2  A    between atoms: N1_3  and  C2_4 
REMARK    3  A    between atoms: N2_10  and  C7_11 
REMARK    4  A    between atoms: C10_15  and  C11_16 
ROOT
HETATM    1  C2  UNL     1      23.551   2.552  50.188  1.00  0.00     0.126 A 
HETATM    2  C3  UNL     1      22.964   3.216  49.178  1.00  0.00     0.051 A 
HETATM    3  C4  UNL     1      23.572   4.384  48.565  1.00  0.00     0.025 A 
HETATM    4  C5  UNL     1      24.739   4.732  49.072  1.00  0.00     0.030 A 
HETATM    5 CL1  UNL     1      25.632   6.132  48.458  1.00  0.00    -0.087 Cl
HETATM    6  C6  UNL     1      25.539   4.095  50.145  1.00  0.00     0.200 A 
HETATM    7  N2  UNL     1      24.783   3.005  50.725  1.00  0.00    -0.159 N 
ENDROOT
BRANCH   7   8
HETATM    8  C7  UNL     1      25.273   2.361  51.879  1.00  0.00     0.731 A 
HETATM    9  N3  UNL     1      24.919   2.888  53.065  1.00  0.00    -0.075 NA
HETATM   10  C8  UNL     1      25.263   2.427  54.263  1.00  0.00     0.139 A 
HETATM   11  C9  UNL     1      26.055   1.308  54.339  1.00  0.00     0.053 A 
HETATM   12  C10 UNL     1      26.434   0.749  53.140  1.00  0.00     0.089 A 
HETATM   13  N5  UNL     1      26.036   1.287  51.976  1.00  0.00    -0.062 NA
BRANCH  12  14
HETATM   14  C11 UNL     1      27.264  -0.445  53.076  1.00  0.00     0.011 A 
HETATM   15  C12 UNL     1      28.583  -0.399  53.455  1.00  0.00     0.017 A 
HETATM   16  C13 UNL     1      29.461  -1.453  53.443  1.00  0.00     0.020 A 
HETATM   17  C14 UNL     1      28.944  -2.670  53.000  1.00  0.00     0.116 A 
HETATM   18  N4  UNL     1      27.641  -2.748  52.616  1.00  0.00    -0.272 NA
HETATM   19  C15 UNL     1      26.827  -1.678  52.650  1.00  0.00     0.130 A 
ENDBRANCH  12  14
ENDBRANCH   7   8
BRANCH   1  20
HETATM   20  N1  UNL     1      22.773   1.441  50.617  1.00  0.00    -0.308 N 
HETATM   21  C1  UNL     1      21.799   1.825  51.607  1.00  0.00     0.257 C 
HETATM   22  O1  UNL     1      21.666   3.024  52.032  1.00  0.00    -0.267 OA
HETATM   23  H1  UNL     1      22.848   0.456  50.296  1.00  0.00     0.170 HD
BRANCH  21  24
HETATM   24  C16 UNL     1      20.895   0.864  52.196  1.00  0.00     0.032 A 
HETATM   25  C17 UNL     1      19.636   0.675  51.662  1.00  0.00     0.017 A 
HETATM   26  C18 UNL     1      18.700  -0.214  52.154  1.00  0.00     0.001 A 
HETATM   27  C19 UNL     1      19.004  -0.982  53.251  1.00  0.00     0.000 A 
HETATM   28  C20 UNL     1      20.250  -0.831  53.822  1.00  0.00     0.001 A 
HETATM   29  C21 UNL     1      21.150   0.070  53.294  1.00  0.00     0.017 A 
ENDBRANCH  21  24
ENDBRANCH   1  20
TORSDOF 4
ENDMDL
MODEL 7
REMARK VINA RESULT:      -7.7      3.690      7.045
REMARK  4 active torsions:
REMARK  status: ('A' for Active; 'I' for Inactive)
REMARK       I    between atoms: C1_2  and  N1_3 
REMARK    1  A    between atoms: C1_2  and  C16_23 
REMARK    2  A    between atoms: N1_3  and  C2_4 
REMARK    3  A    between atoms: N2_10  and  C7_11 
REMARK    4  A    between atoms: C10_15  and  C11_16 
ROOT
HETATM    1  C2  UNL     1      21.391   2.392  48.838  1.00  0.00     0.126 A 
HETATM    2  C3  UNL     1      20.649   2.520  47.725  1.00  0.00     0.051 A 
HETATM    3  C4  UNL     1      20.868   3.592  46.769  1.00  0.00     0.025 A 
HETATM    4  C5  UNL     1      21.851   4.417  47.077  1.00  0.00     0.030 A 
HETATM    5 CL1  UNL     1      22.267   5.788  46.037  1.00  0.00    -0.087 Cl
HETATM    6  C6  UNL     1      22.784   4.398  48.229  1.00  0.00     0.200 A 
HETATM    7  N2  UNL     1      22.400   3.342  49.141  1.00  0.00    -0.159 N 
ENDROOT
BRANCH   7   8
HETATM    8  C7  UNL     1      23.040   3.243  50.393  1.00  0.00     0.731 A 
HETATM    9  N3  UNL     1      22.938   4.305  51.213  1.00  0.00    -0.075 NA
HETATM   10  C8  UNL     1      23.455   4.407  52.432  1.00  0.00     0.139 A 
HETATM   11  C9  UNL     1      24.168   3.349  52.940  1.00  0.00     0.053 A 
HETATM   12  C10 UNL     1      24.289   2.250  52.122  1.00  0.00     0.089 A 
HETATM   13  N5  UNL     1      23.730   2.237  50.901  1.00  0.00    -0.062 NA
BRANCH  12  14
HETATM   14  C11 UNL     1      25.010   1.055  52.540  1.00  0.00     0.011 A 
HETATM   15  C12 UNL     1      26.210   0.727  51.960  1.00  0.00     0.017 A 
HETATM   16  C13 UNL     1      26.981  -0.366  52.270  1.00  0.00     0.020 A 
HETATM   17  C14 UNL     1      26.478  -1.202  53.266  1.00  0.00     0.116 A 
HETATM   18  N4  UNL     1      25.291  -0.903  53.859  1.00  0.00    -0.272 NA
HETATM   19  C15 UNL     1      24.578   0.184  53.513  1.00  0.00     0.130 A 
ENDBRANCH  12  14
ENDBRANCH   7   8
BRANCH   1  20
HETATM   20  N1  UNL     1      20.996   1.266  49.613  1.00  0.00    -0.308 N 
HETATM   21  C1  UNL     1      19.979   1.612  50.573  1.00  0.00     0.257 C 
HETATM   22  O1  UNL     1      19.502   2.792  50.695  1.00  0.00    -0.267 OA
HETATM   23  H1  UNL     1      21.357   0.294  49.544  1.00  0.00     0.170 HD
BRANCH  21  24
HETATM   24  C16 UNL     1      19.423   0.632  51.477  1.00  0.00     0.032 A 
HETATM   25  C17 UNL     1      18.155   0.128  51.265  1.00  0.00     0.017 A 
HETATM   26  C18 UNL     1      17.536  -0.805  52.072  1.00  0.00     0.001 A 
HETATM   27  C19 UNL     1      18.194  -1.293  53.175  1.00  0.00     0.000 A 
HETATM   28  C20 UNL     1      19.464  -0.822  53.432  1.00  0.00     0.001 A 
HETATM   29  C21 UNL     1      20.040   0.111  52.595  1.00  0.00     0.017 A 
ENDBRANCH  21  24
ENDBRANCH   1  20
TORSDOF 4
ENDMDL
MODEL 8
REMARK VINA RESULT:      -7.7      3.416      5.998
REMARK  4 active torsions:
REMARK  status: ('A' for Active; 'I' for Inactive)
REMARK       I    between atoms: C1_2  and  N1_3 
REMARK    1  A    between atoms: C1_2  and  C16_23 
REMARK    2  A    between atoms: N1_3  and  C2_4 
REMARK    3  A    between atoms: N2_10  and  C7_11 
REMARK    4  A    between atoms: C10_15  and  C11_16 
ROOT
HETATM    1  C2  UNL     1      24.839   3.565  49.806  1.00  0.00     0.126 A 
HETATM    2  C3  UNL     1      26.132   3.249  49.620  1.00  0.00     0.051 A 
HETATM    3  C4  UNL     1      27.098   4.208  49.113  1.00  0.00     0.025 A 
HETATM    4  C5  UNL     1      26.607   5.407  48.860  1.00  0.00     0.030 A 
HETATM    5 CL1  UNL     1      27.629   6.709  48.234  1.00  0.00    -0.087 Cl
HETATM    6  C6  UNL     1      25.234   5.932  49.046  1.00  0.00     0.200 A 
HETATM    7  N2  UNL     1      24.360   4.857  49.467  1.00  0.00    -0.159 N 
ENDROOT
BRANCH   7   8
HETATM    8  C7  UNL     1      22.972   5.083  49.540  1.00  0.00     0.731 A 
HETATM    9  N3  UNL     1      22.527   6.279  49.113  1.00  0.00    -0.075 NA
HETATM   10  C8  UNL     1      21.262   6.682  49.087  1.00  0.00     0.139 A 
HETATM   11  C9  UNL     1      20.284   5.826  49.530  1.00  0.00     0.053 A 
HETATM   12  C10 UNL     1      20.711   4.595  49.973  1.00  0.00     0.089 A 
HETATM   13  N5  UNL     1      22.015   4.275  49.962  1.00  0.00    -0.062 NA
BRANCH  12  14
HETATM   14  C11 UNL     1      19.780   3.587  50.460  1.00  0.00     0.011 A 
HETATM   15  C12 UNL     1      19.825   2.303  49.976  1.00  0.00     0.017 A 
HETATM   16  C13 UNL     1      19.007   1.270  50.359  1.00  0.00     0.020 A 
HETATM   17  C14 UNL     1      18.051   1.577  51.327  1.00  0.00     0.116 A 
HETATM   18  N4  UNL     1      17.981   2.840  51.825  1.00  0.00    -0.272 NA
HETATM   19  C15 UNL     1      18.811   3.814  51.411  1.00  0.00     0.130 A 
ENDBRANCH  12  14
ENDBRANCH   7   8
BRANCH   1  20
HETATM   20  N1  UNL     1      24.091   2.468  50.315  1.00  0.00    -0.308 N 
HETATM   21  C1  UNL     1      24.089   2.448  51.756  1.00  0.00     0.257 C 
HETATM   22  O1  UNL     1      24.691   3.322  52.470  1.00  0.00    -0.267 OA
HETATM   23  H1  UNL     1      23.588   1.740  49.771  1.00  0.00     0.170 HD
BRANCH  21  24
HETATM   24  C16 UNL     1      23.396   1.421  52.501  1.00  0.00     0.032 A 
HETATM   25  C17 UNL     1      22.029   1.491  52.676  1.00  0.00     0.017 A 
HETATM   26  C18 UNL     1      21.279   0.565  53.373  1.00  0.00     0.001 A 
HETATM   27  C19 UNL     1      21.899  -0.517  53.949  1.00  0.00     0.000 A 
HETATM   28  C20 UNL     1      23.265  -0.633  53.803  1.00  0.00     0.001 A 
HETATM   29  C21 UNL     1      23.971   0.319  53.097  1.00  0.00     0.017 A 
ENDBRANCH  21  24
ENDBRANCH   1  20
TORSDOF 4
ENDMDL
MODEL 9
REMARK VINA RESULT:      -7.7      4.218      6.541
REMARK  4 active torsions:
REMARK  status: ('A' for Active; 'I' for Inactive)
REMARK       I    between atoms: C1_2  and  N1_3 
REMARK    1  A    between atoms: C1_2  and  C16_23 
REMARK    2  A    between atoms: N1_3  and  C2_4 
REMARK    3  A    between atoms: N2_10  and  C7_11 
REMARK    4  A    between atoms: C10_15  and  C11_16 
ROOT
HETATM    1  C2  UNL     1      24.722   3.190  51.404  1.00  0.00     0.126 A 
HETATM    2  C3  UNL     1      25.573   2.531  52.208  1.00  0.00     0.051 A 
HETATM    3  C4  UNL     1      25.207   1.291  52.871  1.00  0.00     0.025 A 
HETATM    4  C5  UNL     1      23.985   0.866  52.615  1.00  0.00     0.030 A 
HETATM    5 CL1  UNL     1      23.356  -0.625  53.333  1.00  0.00    -0.087 Cl
HETATM    6  C6  UNL     1      22.943   1.439  51.730  1.00  0.00     0.200 A 
HETATM    7  N2  UNL     1      23.401   2.710  51.208  1.00  0.00    -0.159 N 
ENDROOT
BRANCH   7   8
HETATM    8  C7  UNL     1      22.509   3.520  50.479  1.00  0.00     0.731 A 
HETATM    9  N3  UNL     1      21.316   3.775  51.049  1.00  0.00    -0.075 NA
HETATM   10  C8  UNL     1      20.345   4.522  50.535  1.00  0.00     0.139 A 
HETATM   11  C9  UNL     1      20.538   5.108  49.308  1.00  0.00     0.053 A 
HETATM   12  C10 UNL     1      21.749   4.863  48.703  1.00  0.00     0.089 A 
HETATM   13  N5  UNL     1      22.673   4.093  49.300  1.00  0.00    -0.062 NA
BRANCH  12  14
HETATM   14  C11 UNL     1      22.089   5.430  47.405  1.00  0.00     0.011 A 
HETATM   15  C12 UNL     1      22.780   6.613  47.321  1.00  0.00     0.017 A 
HETATM   16  C13 UNL     1      23.160   7.242  46.161  1.00  0.00     0.020 A 
HETATM   17  C14 UNL     1      22.800   6.602  44.976  1.00  0.00     0.116 A 
HETATM   18  N4  UNL     1      22.115   5.428  45.027  1.00  0.00    -0.272 NA
HETATM   19  C15 UNL     1      21.769   4.858  46.196  1.00  0.00     0.130 A 
ENDBRANCH  12  14
ENDBRANCH   7   8
BRANCH   1  20
HETATM   20  N1  UNL     1      25.305   4.370  50.865  1.00  0.00    -0.308 N 
HETATM   21  C1  UNL     1      26.134   4.081  49.722  1.00  0.00     0.257 C 
HETATM   22  O1  UNL     1      26.306   2.899  49.263  1.00  0.00    -0.267 OA
HETATM   23  H1  UNL     1      25.189   5.345  51.207  1.00  0.00     0.170 HD
BRANCH  21  24
HETATM   24  C16 UNL     1      26.835   5.123  49.008  1.00  0.00     0.032 A 
HETATM   25  C17 UNL     1      26.186   6.293  48.668  1.00  0.00     0.017 A 
HETATM   26  C18 UNL     1      26.767   7.342  47.985  1.00  0.00     0.001 A 
HETATM   27  C19 UNL     1      28.081   7.256  47.597  1.00  0.00     0.000 A 
HETATM   28  C20 UNL     1      28.775   6.107  47.913  1.00  0.00     0.001 A 
HETATM   29  C21 UNL     1      28.150   5.085  48.597  1.00  0.00     0.017 A 
ENDBRANCH  21  24
ENDBRANCH   1  20
TORSDOF 4
ENDMDL
