MODEL 1
REMARK VINA RESULT:      -8.8      0.000      0.000
REMARK  3 active torsions:
REMARK  status: ('A' for Active; 'I' for Inactive)
REMARK    1  A    between atoms: S1_2  and  N1_5 
REMARK    2  A    between atoms: N1_5  and  C2_6 
REMARK    3  A    between atoms: N3_16  and  C11_17 
ROOT
HETATM    1  C2  UNL     1      26.972   7.473  48.251  1.00  0.00     0.043 A 
HETATM    2  C3  UNL     1      28.140   6.722  48.219  1.00  0.00     0.033 A 
HETATM    3  C4  UNL     1      28.132   5.385  48.572  1.00  0.00     0.040 A 
HETATM    4  C5  UNL     1      26.956   4.778  48.963  1.00  0.00     0.086 A 
HETATM    5  C6  UNL     1      25.761   5.464  49.016  1.00  0.00    -0.004 A 
HETATM    6  C7  UNL     1      25.815   6.812  48.651  1.00  0.00     0.041 A 
HETATM    7  C8  UNL     1      24.392   5.072  49.389  1.00  0.00     0.161 C 
HETATM    8  N2  UNL     1      24.348   4.271  50.621  1.00  0.00    -0.381 N 
HETATM    9  C9  UNL     1      25.110   3.107  50.916  1.00  0.00     0.101 A 
HETATM   10  C10 UNL     1      24.562   2.348  51.849  1.00  0.00     0.151 A 
HETATM   11  N3  UNL     1      25.160   1.140  52.290  1.00  0.00    -0.249 N 
HETATM   12  N4  UNL     1      26.364   0.825  51.661  1.00  0.00    -0.211 N 
HETATM   13  N5  UNL     1      26.931   1.643  50.673  1.00  0.00    -0.130 NA
HETATM   14  C17 UNL     1      26.372   2.740  50.283  1.00  0.00     0.218 A 
HETATM   15  O3  UNL     1      27.079   3.416  49.298  1.00  0.00    -0.288 OA
HETATM   16  H10 UNL     1      23.686   4.563  51.400  1.00  0.00     0.160 HD
HETATM   17  H16 UNL     1      26.896  -0.034  51.901  1.00  0.00     0.211 HD
ENDROOT
BRANCH  11  18
HETATM   18  C11 UNL     1      24.573   0.326  53.290  1.00  0.00     0.058 A 
HETATM   19  C12 UNL     1      25.284  -0.204  54.333  1.00  0.00     0.031 A 
HETATM   20  C13 UNL     1      24.748  -1.000  55.323  1.00  0.00     0.004 A 
HETATM   21  C14 UNL     1      23.401  -1.299  55.280  1.00  0.00     0.019 A 
HETATM   22  C15 UNL     1      22.652  -0.786  54.249  1.00  0.00     0.013 A 
HETATM   23 BR1  UNL     1      20.798  -1.214  54.218  1.00  0.00    -0.051 Br
HETATM   24  C16 UNL     1      23.235   0.006  53.284  1.00  0.00     0.050 A 
ENDBRANCH  11  18
BRANCH   1  25
HETATM   25  N1  UNL     1      26.893   8.834  47.907  1.00  0.00    -0.285 N 
HETATM   26  H4  UNL     1      26.570   8.898  46.896  1.00  0.00     0.178 HD
BRANCH  25  27
HETATM   27  S1  UNL     1      27.242  10.183  48.893  1.00  0.00     0.227 S 
HETATM   28  C1  UNL     1      28.737  11.007  48.517  1.00  0.00     0.186 C 
HETATM   29  O1  UNL     1      27.265   9.707  50.312  1.00  0.00    -0.206 OA
HETATM   30  O2  UNL     1      26.041  11.110  48.792  1.00  0.00    -0.206 OA
ENDBRANCH  25  27
ENDBRANCH   1  25
TORSDOF 3
ENDMDL
MODEL 2
REMARK VINA RESULT:      -8.6      5.976      8.332
REMARK  3 active torsions:
REMARK  status: ('A' for Active; 'I' for Inactive)
REMARK    1  A    between atoms: S1_2  and  N1_5 
REMARK    2  A    between atoms: N1_5  and  C2_6 
REMARK    3  A    between atoms: N3_16  and  C11_17 
ROOT
HETATM    1  C2  UNL     1      26.182   0.174  52.772  1.00  0.00     0.043 A 
HETATM    2  C3  UNL     1      25.713   1.163  51.917  1.00  0.00     0.033 A 
HETATM    3  C4  UNL     1      24.371   1.493  51.884  1.00  0.00     0.040 A 
HETATM    4  C5  UNL     1      23.475   0.839  52.706  1.00  0.00     0.086 A 
HETATM    5  C6  UNL     1      23.873  -0.151  53.579  1.00  0.00    -0.004 A 
HETATM    6  C7  UNL     1      25.238  -0.453  53.579  1.00  0.00     0.041 A 
HETATM    7  C8  UNL     1      23.146  -0.991  54.544  1.00  0.00     0.161 C 
HETATM    8  N2  UNL     1      21.902  -1.545  53.990  1.00  0.00    -0.381 N 
HETATM    9  C9  UNL     1      20.862  -0.828  53.336  1.00  0.00     0.101 A 
HETATM   10  C10 UNL     1      19.701  -1.460  53.358  1.00  0.00     0.151 A 
HETATM   11  N3  UNL     1      18.533  -0.920  52.762  1.00  0.00    -0.249 N 
HETATM   12  N4  UNL     1      18.713   0.324  52.158  1.00  0.00    -0.211 N 
HETATM   13  N5  UNL     1      19.952   0.980  52.144  1.00  0.00    -0.130 NA
HETATM   14  C17 UNL     1      21.005   0.473  52.692  1.00  0.00     0.218 A 
HETATM   15  O3  UNL     1      22.140   1.266  52.578  1.00  0.00    -0.288 OA
HETATM   16  H10 UNL     1      21.725  -2.590  54.067  1.00  0.00     0.160 HD
HETATM   17  H16 UNL     1      17.930   0.820  51.688  1.00  0.00     0.211 HD
ENDROOT
BRANCH  11  18
HETATM   18  C11 UNL     1      17.288  -1.596  52.784  1.00  0.00     0.058 A 
HETATM   19  C12 UNL     1      16.121  -1.025  52.354  1.00  0.00     0.031 A 
HETATM   20  C13 UNL     1      14.893  -1.652  52.361  1.00  0.00     0.004 A 
HETATM   21  C14 UNL     1      14.809  -2.946  52.831  1.00  0.00     0.019 A 
HETATM   22  C15 UNL     1      15.958  -3.555  53.272  1.00  0.00     0.013 A 
HETATM   23 BR1  UNL     1      15.811  -5.342  53.913  1.00  0.00    -0.051 Br
HETATM   24  C16 UNL     1      17.162  -2.886  53.244  1.00  0.00     0.050 A 
ENDBRANCH  11  18
BRANCH   1  25
HETATM   25  N1  UNL     1      27.528  -0.220  52.868  1.00  0.00    -0.285 N 
HETATM   26  H4  UNL     1      27.682  -1.023  52.187  1.00  0.00     0.178 HD
BRANCH  25  27
HETATM   27  S1  UNL     1      28.740   0.433  53.877  1.00  0.00     0.227 S 
HETATM   28  C1  UNL     1      28.811   2.178  53.913  1.00  0.00     0.186 C 
HETATM   29  O1  UNL     1      30.052  -0.122  53.417  1.00  0.00    -0.206 OA
HETATM   30  O2  UNL     1      28.510  -0.156  55.261  1.00  0.00    -0.206 OA
ENDBRANCH  25  27
ENDBRANCH   1  25
TORSDOF 3
ENDMDL
MODEL 3
REMARK VINA RESULT:      -8.4      4.767      9.609
REMARK  3 active torsions:
REMARK  status: ('A' for Active; 'I' for Inactive)
REMARK    1  A    between atoms: S1_2  and  N1_5 
REMARK    2  A    between atoms: N1_5  and  C2_6 
REMARK    3  A    between atoms: N3_16  and  C11_17 
ROOT
HETATM    1  C2  UNL     1      25.657   1.345  52.270  1.00  0.00     0.043 A 
HETATM    2  C3  UNL     1      24.674   1.990  53.009  1.00  0.00     0.033 A 
HETATM    3  C4  UNL     1      24.195   3.228  52.622  1.00  0.00     0.040 A 
HETATM    4  C5  UNL     1      24.691   3.841  51.489  1.00  0.00     0.086 A 
HETATM    5  C6  UNL     1      25.667   3.255  50.709  1.00  0.00    -0.004 A 
HETATM    6  C7  UNL     1      26.122   2.005  51.138  1.00  0.00     0.041 A 
HETATM    7  C8  UNL     1      26.359   3.677  49.481  1.00  0.00     0.161 C 
HETATM    8  N2  UNL     1      26.798   5.079  49.530  1.00  0.00    -0.381 N 
HETATM    9  C9  UNL     1      26.007   6.214  49.863  1.00  0.00     0.101 A 
HETATM   10  C10 UNL     1      26.500   7.348  49.393  1.00  0.00     0.151 A 
HETATM   11  N3  UNL     1      25.865   8.597  49.612  1.00  0.00    -0.249 N 
HETATM   12  N4  UNL     1      24.689   8.528  50.357  1.00  0.00    -0.211 N 
HETATM   13  N5  UNL     1      24.181   7.316  50.848  1.00  0.00    -0.130 NA
HETATM   14  C17 UNL     1      24.772   6.187  50.639  1.00  0.00     0.218 A 
HETATM   15  O3  UNL     1      24.123   5.095  51.201  1.00  0.00    -0.288 OA
HETATM   16  H10 UNL     1      27.809   5.310  49.299  1.00  0.00     0.160 HD
HETATM   17  H16 UNL     1      24.135   9.377  50.582  1.00  0.00     0.211 HD
ENDROOT
BRANCH  11  18
HETATM   18  C11 UNL     1      26.392   9.812  49.109  1.00  0.00     0.058 A 
HETATM   19  C12 UNL     1      25.622  10.758  48.487  1.00  0.00     0.031 A 
HETATM   20  C13 UNL     1      26.099  11.951  47.985  1.00  0.00     0.004 A 
HETATM   21  C14 UNL     1      27.444  12.233  48.107  1.00  0.00     0.019 A 
HETATM   22  C15 UNL     1      28.251  11.310  48.725  1.00  0.00     0.013 A 
HETATM   23 BR1  UNL     1      30.102  11.728  48.880  1.00  0.00    -0.051 Br
HETATM   24  C16 UNL     1      27.726  10.132  49.211  1.00  0.00     0.050 A 
ENDBRANCH  11  18
BRANCH   1  25
HETATM   25  N1  UNL     1      26.197   0.088  52.594  1.00  0.00    -0.285 N 
HETATM   26  H4  UNL     1      25.652  -0.651  52.057  1.00  0.00     0.178 HD
BRANCH  25  27
HETATM   27  S1  UNL     1      27.493  -0.252  53.652  1.00  0.00     0.227 S 
HETATM   28  C1  UNL     1      28.828   0.874  53.572  1.00  0.00     0.186 C 
HETATM   29  O1  UNL     1      27.974  -1.635  53.341  1.00  0.00    -0.206 OA
HETATM   30  O2  UNL     1      26.898  -0.330  55.049  1.00  0.00    -0.206 OA
ENDBRANCH  25  27
ENDBRANCH   1  25
TORSDOF 3
ENDMDL
MODEL 4
REMARK VINA RESULT:      -8.4      6.367      8.866
REMARK  3 active torsions:
REMARK  status: ('A' for Active; 'I' for Inactive)
REMARK    1  A    between atoms: S1_2  and  N1_5 
REMARK    2  A    between atoms: N1_5  and  C2_6 
REMARK    3  A    between atoms: N3_16  and  C11_17 
ROOT
HETATM    1  C2  UNL     1      25.602  -0.346  53.466  1.00  0.00     0.043 A 
HETATM    2  C3  UNL     1      25.364   0.631  52.508  1.00  0.00     0.033 A 
HETATM    3  C4  UNL     1      24.089   1.123  52.299  1.00  0.00     0.040 A 
HETATM    4  C5  UNL     1      23.030   0.645  53.045  1.00  0.00     0.086 A 
HETATM    5  C6  UNL     1      23.196  -0.325  54.012  1.00  0.00    -0.004 A 
HETATM    6  C7  UNL     1      24.501  -0.793  54.189  1.00  0.00     0.041 A 
HETATM    7  C8  UNL     1      22.264  -0.998  54.930  1.00  0.00     0.161 C 
HETATM    8  N2  UNL     1      21.025  -1.429  54.265  1.00  0.00    -0.381 N 
HETATM    9  C9  UNL     1      20.167  -0.636  53.454  1.00  0.00     0.101 A 
HETATM   10  C10 UNL     1      18.937  -1.116  53.374  1.00  0.00     0.151 A 
HETATM   11  N3  UNL     1      17.923  -0.476  52.616  1.00  0.00    -0.249 N 
HETATM   12  N4  UNL     1      18.330   0.690  51.970  1.00  0.00    -0.211 N 
HETATM   13  N5  UNL     1      19.639   1.184  52.066  1.00  0.00    -0.130 NA
HETATM   14  C17 UNL     1      20.550   0.589  52.761  1.00  0.00     0.218 A 
HETATM   15  O3  UNL     1      21.785   1.224  52.738  1.00  0.00    -0.288 OA
HETATM   16  H10 UNL     1      20.705  -2.436  54.378  1.00  0.00     0.160 HD
HETATM   17  H16 UNL     1      17.676   1.246  51.385  1.00  0.00     0.211 HD
ENDROOT
BRANCH  11  18
HETATM   18  C11 UNL     1      16.605  -0.989  52.530  1.00  0.00     0.058 A 
HETATM   19  C12 UNL     1      16.322  -2.328  52.556  1.00  0.00     0.031 A 
HETATM   20  C13 UNL     1      15.053  -2.863  52.474  1.00  0.00     0.004 A 
HETATM   21  C14 UNL     1      13.977  -2.007  52.357  1.00  0.00     0.019 A 
HETATM   22  C15 UNL     1      14.219  -0.656  52.326  1.00  0.00     0.013 A 
HETATM   23 BR1  UNL     1      12.714   0.499  52.164  1.00  0.00    -0.051 Br
HETATM   24  C16 UNL     1      15.506  -0.171  52.412  1.00  0.00     0.050 A 
ENDBRANCH  11  18
BRANCH   1  25
HETATM   25  N1  UNL     1      26.865  -0.898  53.740  1.00  0.00    -0.285 N 
HETATM   26  H4  UNL     1      26.752  -1.953  53.815  1.00  0.00     0.178 HD
BRANCH  25  27
HETATM   27  S1  UNL     1      28.348  -0.073  53.931  1.00  0.00     0.227 S 
HETATM   28  C1  UNL     1      29.775  -1.050  53.678  1.00  0.00     0.186 C 
HETATM   29  O1  UNL     1      28.364   0.506  55.311  1.00  0.00    -0.206 OA
HETATM   30  O2  UNL     1      28.300   1.119  52.988  1.00  0.00    -0.206 OA
ENDBRANCH  25  27
ENDBRANCH   1  25
TORSDOF 3
ENDMDL
MODEL 5
REMARK VINA RESULT:      -8.4      5.706      8.140
REMARK  3 active torsions:
REMARK  status: ('A' for Active; 'I' for Inactive)
REMARK    1  A    between atoms: S1_2  and  N1_5 
REMARK    2  A    between atoms: N1_5  and  C2_6 
REMARK    3  A    between atoms: N3_16  and  C11_17 
ROOT
HETATM    1  C2  UNL     1      25.758   1.231  53.932  1.00  0.00     0.043 A 
HETATM    2  C3  UNL     1      25.282  -0.073  53.983  1.00  0.00     0.033 A 
HETATM    3  C4  UNL     1      24.094  -0.418  53.364  1.00  0.00     0.040 A 
HETATM    4  C5  UNL     1      23.364   0.536  52.683  1.00  0.00     0.086 A 
HETATM    5  C6  UNL     1      23.781   1.848  52.592  1.00  0.00    -0.004 A 
HETATM    6  C7  UNL     1      24.985   2.152  53.233  1.00  0.00     0.041 A 
HETATM    7  C8  UNL     1      23.210   3.040  51.945  1.00  0.00     0.161 C 
HETATM    8  N2  UNL     1      21.769   3.187  52.195  1.00  0.00    -0.381 N 
HETATM    9  C9  UNL     1      20.761   2.201  52.004  1.00  0.00     0.101 A 
HETATM   10  C10 UNL     1      19.552   2.714  51.859  1.00  0.00     0.151 A 
HETATM   11  N3  UNL     1      18.405   1.905  51.657  1.00  0.00    -0.249 N 
HETATM   12  N4  UNL     1      18.660   0.535  51.624  1.00  0.00    -0.211 N 
HETATM   13  N5  UNL     1      19.950   0.008  51.780  1.00  0.00    -0.130 NA
HETATM   14  C17 UNL     1      20.984   0.760  51.963  1.00  0.00     0.218 A 
HETATM   15  O3  UNL     1      22.177   0.061  52.097  1.00  0.00    -0.288 OA
HETATM   16  H10 UNL     1      21.402   4.115  52.559  1.00  0.00     0.160 HD
HETATM   17  H16 UNL     1      17.900  -0.159  51.482  1.00  0.00     0.211 HD
ENDROOT
BRANCH  11  18
HETATM   18  C11 UNL     1      17.108   2.454  51.501  1.00  0.00     0.058 A 
HETATM   19  C12 UNL     1      16.887   3.742  51.094  1.00  0.00     0.031 A 
HETATM   20  C13 UNL     1      15.641   4.309  50.932  1.00  0.00     0.004 A 
HETATM   21  C14 UNL     1      14.522   3.545  51.192  1.00  0.00     0.019 A 
HETATM   22  C15 UNL     1      14.701   2.246  51.602  1.00  0.00     0.013 A 
HETATM   23 BR1  UNL     1      13.139   1.216  51.952  1.00  0.00    -0.051 Br
HETATM   24  C16 UNL     1      15.968   1.725  51.749  1.00  0.00     0.050 A 
ENDBRANCH  11  18
BRANCH   1  25
HETATM   25  N1  UNL     1      26.953   1.663  54.533  1.00  0.00    -0.285 N 
HETATM   26  H4  UNL     1      26.717   2.033  55.502  1.00  0.00     0.178 HD
BRANCH  25  27
HETATM   27  S1  UNL     1      28.528   1.628  53.874  1.00  0.00     0.227 S 
HETATM   28  C1  UNL     1      29.175   0.029  53.591  1.00  0.00     0.186 C 
HETATM   29  O1  UNL     1      29.421   2.383  54.808  1.00  0.00    -0.206 OA
HETATM   30  O2  UNL     1      28.478   2.454  52.598  1.00  0.00    -0.206 OA
ENDBRANCH  25  27
ENDBRANCH   1  25
TORSDOF 3
ENDMDL
MODEL 6
REMARK VINA RESULT:      -8.1      4.746      9.539
REMARK  3 active torsions:
REMARK  status: ('A' for Active; 'I' for Inactive)
REMARK    1  A    between atoms: S1_2  and  N1_5 
REMARK    2  A    between atoms: N1_5  and  C2_6 
REMARK    3  A    between atoms: N3_16  and  C11_17 
ROOT
HETATM    1  C2  UNL     1      25.643   1.315  52.316  1.00  0.00     0.043 A 
HETATM    2  C3  UNL     1      24.669   1.952  53.074  1.00  0.00     0.033 A 
HETATM    3  C4  UNL     1      24.175   3.188  52.698  1.00  0.00     0.040 A 
HETATM    4  C5  UNL     1      24.646   3.806  51.557  1.00  0.00     0.086 A 
HETATM    5  C6  UNL     1      25.611   3.228  50.758  1.00  0.00    -0.004 A 
HETATM    6  C7  UNL     1      26.082   1.981  51.176  1.00  0.00     0.041 A 
HETATM    7  C8  UNL     1      26.277   3.657  49.519  1.00  0.00     0.161 C 
HETATM    8  N2  UNL     1      26.708   5.062  49.563  1.00  0.00    -0.381 N 
HETATM    9  C9  UNL     1      25.916   6.191  49.912  1.00  0.00     0.101 A 
HETATM   10  C10 UNL     1      26.392   7.329  49.435  1.00  0.00     0.151 A 
HETATM   11  N3  UNL     1      25.753   8.573  49.668  1.00  0.00    -0.249 N 
HETATM   12  N4  UNL     1      24.591   8.495  50.435  1.00  0.00    -0.211 N 
HETATM   13  N5  UNL     1      24.101   7.279  50.932  1.00  0.00    -0.130 NA
HETATM   14  C17 UNL     1      24.695   6.154  50.711  1.00  0.00     0.218 A 
HETATM   15  O3  UNL     1      24.064   5.057  51.283  1.00  0.00    -0.288 OA
HETATM   16  H10 UNL     1      27.713   5.300  49.313  1.00  0.00     0.160 HD
HETATM   17  H16 UNL     1      24.036   9.340  50.672  1.00  0.00     0.211 HD
ENDROOT
BRANCH  11  18
HETATM   18  C11 UNL     1      26.262   9.793  49.158  1.00  0.00     0.058 A 
HETATM   19  C12 UNL     1      27.594  10.108  49.167  1.00  0.00     0.031 A 
HETATM   20  C13 UNL     1      28.125  11.284  48.680  1.00  0.00     0.004 A 
HETATM   21  C14 UNL     1      27.273  12.225  48.140  1.00  0.00     0.019 A 
HETATM   22  C15 UNL     1      25.928  11.947  48.112  1.00  0.00     0.013 A 
HETATM   23 BR1  UNL     1      24.778  13.265  47.360  1.00  0.00    -0.051 Br
HETATM   24  C16 UNL     1      25.447  10.757  48.611  1.00  0.00     0.050 A 
ENDBRANCH  11  18
BRANCH   1  25
HETATM   25  N1  UNL     1      26.197   0.062  52.627  1.00  0.00    -0.285 N 
HETATM   26  H4  UNL     1      25.647  -0.680  52.099  1.00  0.00     0.178 HD
BRANCH  25  27
HETATM   27  S1  UNL     1      27.514  -0.272  53.661  1.00  0.00     0.227 S 
HETATM   28  C1  UNL     1      28.814   0.895  53.603  1.00  0.00     0.186 C 
HETATM   29  O1  UNL     1      28.032  -1.630  53.303  1.00  0.00    -0.206 OA
HETATM   30  O2  UNL     1      26.937  -0.411  55.061  1.00  0.00    -0.206 OA
ENDBRANCH  25  27
ENDBRANCH   1  25
TORSDOF 3
ENDMDL
MODEL 7
REMARK VINA RESULT:      -7.9      6.835      9.605
REMARK  3 active torsions:
REMARK  status: ('A' for Active; 'I' for Inactive)
REMARK    1  A    between atoms: S1_2  and  N1_5 
REMARK    2  A    between atoms: N1_5  and  C2_6 
REMARK    3  A    between atoms: N3_16  and  C11_17 
ROOT
HETATM    1  C2  UNL     1      23.773  -0.126  53.684  1.00  0.00     0.043 A 
HETATM    2  C3  UNL     1      23.198  -0.888  54.693  1.00  0.00     0.033 A 
HETATM    3  C4  UNL     1      21.879  -1.295  54.610  1.00  0.00     0.040 A 
HETATM    4  C5  UNL     1      21.114  -0.948  53.515  1.00  0.00     0.086 A 
HETATM    5  C6  UNL     1      21.622  -0.195  52.476  1.00  0.00    -0.004 A 
HETATM    6  C7  UNL     1      22.958   0.195  52.603  1.00  0.00     0.041 A 
HETATM    7  C8  UNL     1      21.041   0.306  51.221  1.00  0.00     0.161 C 
HETATM    8  N2  UNL     1      19.706   0.893  51.407  1.00  0.00    -0.381 N 
HETATM    9  C9  UNL     1      18.593   0.299  52.065  1.00  0.00     0.101 A 
HETATM   10  C10 UNL     1      17.434   0.816  51.696  1.00  0.00     0.151 A 
HETATM   11  N3  UNL     1      16.200   0.367  52.231  1.00  0.00    -0.249 N 
HETATM   12  N4  UNL     1      16.313  -0.658  53.170  1.00  0.00    -0.211 N 
HETATM   13  N5  UNL     1      17.552  -1.194  53.549  1.00  0.00    -0.130 NA
HETATM   14  C17 UNL     1      18.666  -0.773  53.052  1.00  0.00     0.218 A 
HETATM   15  O3  UNL     1      19.789  -1.422  53.548  1.00  0.00    -0.288 OA
HETATM   16  H10 UNL     1      19.513   1.865  51.024  1.00  0.00     0.160 HD
HETATM   17  H16 UNL     1      15.478  -1.069  53.631  1.00  0.00     0.211 HD
ENDROOT
BRANCH  11  18
HETATM   18  C11 UNL     1      14.957   0.920  51.836  1.00  0.00     0.058 A 
HETATM   19  C12 UNL     1      14.163   0.360  50.871  1.00  0.00     0.031 A 
HETATM   20  C13 UNL     1      12.949   0.870  50.462  1.00  0.00     0.004 A 
HETATM   21  C14 UNL     1      12.479   2.026  51.051  1.00  0.00     0.019 A 
HETATM   22  C15 UNL     1      13.246   2.619  52.024  1.00  0.00     0.013 A 
HETATM   23 BR1  UNL     1      12.572   4.211  52.819  1.00  0.00    -0.051 Br
HETATM   24  C16 UNL     1      14.453   2.070  52.399  1.00  0.00     0.050 A 
ENDBRANCH  11  18
BRANCH   1  25
HETATM   25  N1  UNL     1      25.103   0.327  53.691  1.00  0.00    -0.285 N 
HETATM   26  H4  UNL     1      25.719  -0.472  54.028  1.00  0.00     0.178 HD
BRANCH  25  27
HETATM   27  S1  UNL     1      25.684   1.871  53.250  1.00  0.00     0.227 S 
HETATM   28  C1  UNL     1      26.273   1.999  51.610  1.00  0.00     0.186 C 
HETATM   29  O1  UNL     1      26.773   2.231  54.213  1.00  0.00    -0.206 OA
HETATM   30  O2  UNL     1      24.553   2.850  53.527  1.00  0.00    -0.206 OA
ENDBRANCH  25  27
ENDBRANCH   1  25
TORSDOF 3
ENDMDL
MODEL 8
REMARK VINA RESULT:      -7.8      5.264      9.408
REMARK  3 active torsions:
REMARK  status: ('A' for Active; 'I' for Inactive)
REMARK    1  A    between atoms: S1_2  and  N1_5 
REMARK    2  A    between atoms: N1_5  and  C2_6 
REMARK    3  A    between atoms: N3_16  and  C11_17 
ROOT
HETATM    1  C2  UNL     1      20.516   0.563  52.727  1.00  0.00     0.043 A 
HETATM    2  C3  UNL     1      21.645  -0.238  52.837  1.00  0.00     0.033 A 
HETATM    3  C4  UNL     1      22.911   0.297  52.678  1.00  0.00     0.040 A 
HETATM    4  C5  UNL     1      23.066   1.642  52.407  1.00  0.00     0.086 A 
HETATM    5  C6  UNL     1      21.988   2.493  52.287  1.00  0.00    -0.004 A 
HETATM    6  C7  UNL     1      20.729   1.910  52.454  1.00  0.00     0.041 A 
HETATM    7  C8  UNL     1      21.871   3.933  52.008  1.00  0.00     0.161 C 
HETATM    8  N2  UNL     1      22.739   4.369  50.904  1.00  0.00    -0.381 N 
HETATM    9  C9  UNL     1      24.133   4.123  50.760  1.00  0.00     0.101 A 
HETATM   10  C10 UNL     1      24.734   4.987  49.959  1.00  0.00     0.151 A 
HETATM   11  N3  UNL     1      26.123   4.920  49.680  1.00  0.00    -0.249 N 
HETATM   12  N4  UNL     1      26.793   3.877  50.318  1.00  0.00    -0.211 N 
HETATM   13  N5  UNL     1      26.139   2.970  51.164  1.00  0.00    -0.130 NA
HETATM   14  C17 UNL     1      24.873   3.046  51.407  1.00  0.00     0.218 A 
HETATM   15  O3  UNL     1      24.402   2.063  52.268  1.00  0.00    -0.288 OA
HETATM   16  H10 UNL     1      22.315   4.932  50.108  1.00  0.00     0.160 HD
HETATM   17  H16 UNL     1      27.813   3.726  50.191  1.00  0.00     0.211 HD
ENDROOT
BRANCH  11  18
HETATM   18  C11 UNL     1      26.768   5.844  48.822  1.00  0.00     0.058 A 
HETATM   19  C12 UNL     1      26.111   6.875  48.207  1.00  0.00     0.031 A 
HETATM   20  C13 UNL     1      26.706   7.793  47.367  1.00  0.00     0.004 A 
HETATM   21  C14 UNL     1      28.058   7.684  47.112  1.00  0.00     0.019 A 
HETATM   22  C15 UNL     1      28.753   6.663  47.711  1.00  0.00     0.013 A 
HETATM   23 BR1  UNL     1      30.617   6.539  47.342  1.00  0.00    -0.051 Br
HETATM   24  C16 UNL     1      28.113   5.771  48.544  1.00  0.00     0.050 A 
ENDBRANCH  11  18
BRANCH   1  25
HETATM   25  N1  UNL     1      19.197   0.099  52.874  1.00  0.00    -0.285 N 
HETATM   26  H4  UNL     1      19.109  -0.335  53.841  1.00  0.00     0.178 HD
BRANCH  25  27
HETATM   27  S1  UNL     1      17.924   0.189  51.740  1.00  0.00     0.227 S 
HETATM   28  C1  UNL     1      16.642  -0.975  51.974  1.00  0.00     0.186 C 
HETATM   29  O1  UNL     1      18.524   0.021  50.379  1.00  0.00    -0.206 OA
HETATM   30  O2  UNL     1      17.409   1.620  51.786  1.00  0.00    -0.206 OA
ENDBRANCH  25  27
ENDBRANCH   1  25
TORSDOF 3
ENDMDL
MODEL 9
REMARK VINA RESULT:      -7.7      4.702      9.628
REMARK  3 active torsions:
REMARK  status: ('A' for Active; 'I' for Inactive)
REMARK    1  A    between atoms: S1_2  and  N1_5 
REMARK    2  A    between atoms: N1_5  and  C2_6 
REMARK    3  A    between atoms: N3_16  and  C11_17 
ROOT
HETATM    1  C2  UNL     1      24.795   1.947  52.678  1.00  0.00     0.043 A 
HETATM    2  C3  UNL     1      23.835   2.928  52.896  1.00  0.00     0.033 A 
HETATM    3  C4  UNL     1      23.702   3.995  52.027  1.00  0.00     0.040 A 
HETATM    4  C5  UNL     1      24.527   4.099  50.925  1.00  0.00     0.086 A 
HETATM    5  C6  UNL     1      25.499   3.160  50.648  1.00  0.00    -0.004 A 
HETATM    6  C7  UNL     1      25.599   2.100  51.552  1.00  0.00     0.041 A 
HETATM    7  C8  UNL     1      26.491   3.030  49.569  1.00  0.00     0.161 C 
HETATM    8  N2  UNL     1      27.186   4.294  49.282  1.00  0.00    -0.381 N 
HETATM    9  C9  UNL     1      26.590   5.560  49.023  1.00  0.00     0.101 A 
HETATM   10  C10 UNL     1      27.384   6.383  48.360  1.00  0.00     0.151 A 
HETATM   11  N3  UNL     1      26.984   7.696  48.001  1.00  0.00    -0.249 N 
HETATM   12  N4  UNL     1      25.694   8.039  48.403  1.00  0.00    -0.211 N 
HETATM   13  N5  UNL     1      24.866   7.153  49.106  1.00  0.00    -0.130 NA
HETATM   14  C17 UNL     1      25.246   5.961  49.424  1.00  0.00     0.218 A 
HETATM   15  O3  UNL     1      24.292   5.228  50.119  1.00  0.00    -0.288 OA
HETATM   16  H10 UNL     1      28.248   4.303  49.256  1.00  0.00     0.160 HD
HETATM   17  H16 UNL     1      25.290   8.974  48.197  1.00  0.00     0.211 HD
ENDROOT
BRANCH  11  18
HETATM   18  C11 UNL     1      27.834   8.578  47.291  1.00  0.00     0.058 A 
HETATM   19  C12 UNL     1      27.706   9.940  47.342  1.00  0.00     0.031 A 
HETATM   20  C13 UNL     1      28.514  10.830  46.665  1.00  0.00     0.004 A 
HETATM   21  C14 UNL     1      29.530  10.336  45.872  1.00  0.00     0.019 A 
HETATM   22  C15 UNL     1      29.692   8.975  45.794  1.00  0.00     0.013 A 
HETATM   23 BR1  UNL     1      31.102   8.323  44.694  1.00  0.00    -0.051 Br
HETATM   24  C16 UNL     1      28.858   8.127  46.491  1.00  0.00     0.050 A 
ENDBRANCH  11  18
BRANCH   1  25
HETATM   25  N1  UNL     1      24.995   0.833  53.510  1.00  0.00    -0.285 N 
HETATM   26  H4  UNL     1      24.054   0.357  53.652  1.00  0.00     0.178 HD
BRANCH  25  27
HETATM   27  S1  UNL     1      26.460   0.292  54.200  1.00  0.00     0.227 S 
HETATM   28  C1  UNL     1      27.455  -0.686  53.148  1.00  0.00     0.186 C 
HETATM   29  O1  UNL     1      26.116  -0.476  55.437  1.00  0.00    -0.206 OA
HETATM   30  O2  UNL     1      27.192   1.536  54.681  1.00  0.00    -0.206 OA
ENDBRANCH  25  27
ENDBRANCH   1  25
TORSDOF 3
ENDMDL
