MODEL 1
REMARK VINA RESULT:      -8.8      0.000      0.000
REMARK  2 active torsions:
REMARK  status: ('A' for Active; 'I' for Inactive)
REMARK    1  A    between atoms: C8_9  and  O1_10 
REMARK    2  A    between atoms: C11_15  and  C12_16 
ROOT
HETATM    1  C1  UNL     1      17.791  -1.265  53.458  1.00  0.00     0.048 C 
HETATM    2  C2  UNL     1      19.254  -0.988  53.457  1.00  0.00    -0.061 A 
HETATM    3  C3  UNL     1      20.155  -1.951  53.857  1.00  0.00     0.007 A 
HETATM    4  C4  UNL     1      21.487  -1.607  53.824  1.00  0.00     0.009 A 
HETATM    5  C5  UNL     1      22.046  -0.373  53.426  1.00  0.00    -0.035 A 
HETATM    6  C6  UNL     1      21.056   0.516  53.046  1.00  0.00     0.014 A 
HETATM    7  C7  UNL     1      19.720   0.237  53.056  1.00  0.00     0.026 A 
HETATM    8  S1  UNL     1      21.411   2.197  52.470  1.00  0.00    -0.066 SA
HETATM    9  C8  UNL     1      21.802   1.979  50.715  1.00  0.00     0.105 C 
HETATM   10  C9  UNL     1      23.011   2.144  50.209  1.00  0.00     0.038 C 
HETATM   11  C10 UNL     1      24.360   2.502  50.706  1.00  0.00     0.172 C 
HETATM   12  N1  UNL     1      24.378   2.712  52.161  1.00  0.00    -0.310 N 
HETATM   13  N2  UNL     1      23.851   1.566  52.646  1.00  0.00    -0.183 NA
HETATM   14  C11 UNL     1      24.358   0.562  53.130  1.00  0.00     0.068 C 
HETATM   15  C18 UNL     1      23.476  -0.508  53.571  1.00  0.00     0.101 C 
HETATM   16  H11 UNL     1      24.761   3.635  52.526  1.00  0.00     0.182 HD
ENDROOT
BRANCH  14  17
HETATM   17  C12 UNL     1      25.761   0.239  53.360  1.00  0.00    -0.009 A 
HETATM   18  C13 UNL     1      26.415  -0.681  52.575  1.00  0.00     0.015 A 
HETATM   19  C14 UNL     1      27.728  -1.031  52.736  1.00  0.00     0.024 A 
HETATM   20  C15 UNL     1      28.492  -0.456  53.733  1.00  0.00     0.034 A 
HETATM   21 CL1  UNL     1      30.158  -0.826  54.022  1.00  0.00    -0.084 Cl
HETATM   22  C16 UNL     1      27.884   0.466  54.539  1.00  0.00     0.024 A 
HETATM   23  C17 UNL     1      26.567   0.782  54.337  1.00  0.00     0.015 A 
ENDBRANCH  14  17
BRANCH   9  24
HETATM   24  O1  UNL     1      20.776   1.615  49.884  1.00  0.00    -0.354 OA
HETATM   25  H7  UNL     1      20.492   2.156  49.064  1.00  0.00     0.218 HD
ENDBRANCH   9  24
TORSDOF 2
ENDMDL
MODEL 2
REMARK VINA RESULT:      -8.5      3.557      5.304
REMARK  2 active torsions:
REMARK  status: ('A' for Active; 'I' for Inactive)
REMARK    1  A    between atoms: C8_9  and  O1_10 
REMARK    2  A    between atoms: C11_15  and  C12_16 
ROOT
HETATM    1  C1  UNL     1      20.825  -1.664  54.578  1.00  0.00     0.048 C 
HETATM    2  C2  UNL     1      21.715  -0.733  53.830  1.00  0.00    -0.061 A 
HETATM    3  C3  UNL     1      21.212   0.411  53.250  1.00  0.00     0.007 A 
HETATM    4  C4  UNL     1      22.108   1.212  52.579  1.00  0.00     0.009 A 
HETATM    5  C5  UNL     1      23.493   0.998  52.411  1.00  0.00    -0.035 A 
HETATM    6  C6  UNL     1      23.889  -0.174  53.030  1.00  0.00     0.014 A 
HETATM    7  C7  UNL     1      23.052  -1.011  53.711  1.00  0.00     0.026 A 
HETATM    8  S1  UNL     1      25.603  -0.761  53.023  1.00  0.00    -0.066 SA
HETATM    9  C8  UNL     1      26.377   0.147  54.386  1.00  0.00     0.105 C 
HETATM   10  C9  UNL     1      27.282   1.093  54.214  1.00  0.00     0.038 C 
HETATM   11  C10 UNL     1      27.967   1.752  53.077  1.00  0.00     0.172 C 
HETATM   12  N1  UNL     1      27.506   1.237  51.779  1.00  0.00    -0.310 N 
HETATM   13  N2  UNL     1      26.166   1.399  51.840  1.00  0.00    -0.183 NA
HETATM   14  C11 UNL     1      25.413   2.250  51.383  1.00  0.00     0.068 C 
HETATM   15  C18 UNL     1      23.986   2.111  51.636  1.00  0.00     0.101 C 
HETATM   16  H11 UNL     1      28.239   0.869  51.101  1.00  0.00     0.182 HD
ENDROOT
BRANCH  14  17
HETATM   17  C12 UNL     1      25.711   3.433  50.584  1.00  0.00    -0.009 A 
HETATM   18  C13 UNL     1      24.939   4.566  50.680  1.00  0.00     0.015 A 
HETATM   19  C14 UNL     1      25.162   5.709  49.961  1.00  0.00     0.024 A 
HETATM   20  C15 UNL     1      26.214   5.785  49.069  1.00  0.00     0.034 A 
HETATM   21 CL1  UNL     1      26.584   7.180  48.113  1.00  0.00    -0.084 Cl
HETATM   22  C16 UNL     1      27.011   4.681  48.941  1.00  0.00     0.024 A 
HETATM   23  C17 UNL     1      26.745   3.562  49.683  1.00  0.00     0.015 A 
ENDBRANCH  14  17
BRANCH   9  24
HETATM   24  O1  UNL     1      25.982  -0.174  55.658  1.00  0.00    -0.354 OA
HETATM   25  H7  UNL     1      26.453   0.165  56.499  1.00  0.00     0.218 HD
ENDBRANCH   9  24
TORSDOF 2
ENDMDL
MODEL 3
REMARK VINA RESULT:      -8.4      2.944      5.890
REMARK  2 active torsions:
REMARK  status: ('A' for Active; 'I' for Inactive)
REMARK    1  A    between atoms: C8_9  and  O1_10 
REMARK    2  A    between atoms: C11_15  and  C12_16 
ROOT
HETATM    1  C1  UNL     1      24.397   7.824  47.256  1.00  0.00     0.048 C 
HETATM    2  C2  UNL     1      24.800   6.659  48.091  1.00  0.00    -0.061 A 
HETATM    3  C3  UNL     1      26.109   6.495  48.490  1.00  0.00     0.007 A 
HETATM    4  C4  UNL     1      26.390   5.389  49.259  1.00  0.00     0.009 A 
HETATM    5  C5  UNL     1      25.488   4.393  49.693  1.00  0.00    -0.035 A 
HETATM    6  C6  UNL     1      24.208   4.655  49.238  1.00  0.00     0.014 A 
HETATM    7  C7  UNL     1      23.864   5.732  48.472  1.00  0.00     0.026 A 
HETATM    8  S1  UNL     1      22.793   3.587  49.609  1.00  0.00    -0.066 SA
HETATM    9  C8  UNL     1      22.255   4.136  51.249  1.00  0.00     0.105 C 
HETATM   10  C9  UNL     1      22.387   3.408  52.344  1.00  0.00     0.038 C 
HETATM   11  C10 UNL     1      22.925   2.077  52.709  1.00  0.00     0.172 C 
HETATM   12  N1  UNL     1      23.492   1.372  51.549  1.00  0.00    -0.310 N 
HETATM   13  N2  UNL     1      24.383   2.258  51.053  1.00  0.00    -0.183 NA
HETATM   14  C11 UNL     1      25.599   2.354  51.155  1.00  0.00     0.068 C 
HETATM   15  C18 UNL     1      26.262   3.451  50.466  1.00  0.00     0.101 C 
HETATM   16  H11 UNL     1      23.130   0.394  51.337  1.00  0.00     0.182 HD
ENDROOT
BRANCH  14  17
HETATM   17  C12 UNL     1      26.548   1.515  51.879  1.00  0.00    -0.009 A 
HETATM   18  C13 UNL     1      27.570   2.069  52.611  1.00  0.00     0.015 A 
HETATM   19  C14 UNL     1      28.494   1.343  53.311  1.00  0.00     0.024 A 
HETATM   20  C15 UNL     1      28.444  -0.038  53.319  1.00  0.00     0.034 A 
HETATM   21 CL1  UNL     1      29.560  -1.050  54.171  1.00  0.00    -0.084 Cl
HETATM   22  C16 UNL     1      27.442  -0.635  52.605  1.00  0.00     0.024 A 
HETATM   23  C17 UNL     1      26.543   0.137  51.919  1.00  0.00     0.015 A 
ENDBRANCH  14  17
BRANCH   9  24
HETATM   24  O1  UNL     1      21.691   5.381  51.341  1.00  0.00    -0.354 OA
HETATM   25  H7  UNL     1      22.158   6.184  51.768  1.00  0.00     0.218 HD
ENDBRANCH   9  24
TORSDOF 2
ENDMDL
MODEL 4
REMARK VINA RESULT:      -8.4      3.691      6.781
REMARK  2 active torsions:
REMARK  status: ('A' for Active; 'I' for Inactive)
REMARK    1  A    between atoms: C8_9  and  O1_10 
REMARK    2  A    between atoms: C11_15  and  C12_16 
ROOT
HETATM    1  C1  UNL     1      27.677   0.491  54.163  1.00  0.00     0.048 C 
HETATM    2  C2  UNL     1      26.240   0.419  53.776  1.00  0.00    -0.061 A 
HETATM    3  C3  UNL     1      25.415  -0.551  54.303  1.00  0.00     0.007 A 
HETATM    4  C4  UNL     1      24.103  -0.542  53.889  1.00  0.00     0.009 A 
HETATM    5  C5  UNL     1      23.496   0.352  52.980  1.00  0.00    -0.035 A 
HETATM    6  C6  UNL     1      24.411   1.280  52.515  1.00  0.00     0.014 A 
HETATM    7  C7  UNL     1      25.724   1.324  52.886  1.00  0.00     0.026 A 
HETATM    8  S1  UNL     1      23.977   2.585  51.336  1.00  0.00    -0.066 SA
HETATM    9  C8  UNL     1      23.274   3.891  52.376  1.00  0.00     0.105 C 
HETATM   10  C9  UNL     1      21.996   4.224  52.368  1.00  0.00     0.038 C 
HETATM   11  C10 UNL     1      20.762   3.793  51.670  1.00  0.00     0.172 C 
HETATM   12  N1  UNL     1      21.009   2.674  50.748  1.00  0.00    -0.310 N 
HETATM   13  N2  UNL     1      21.602   1.749  51.534  1.00  0.00    -0.183 NA
HETATM   14  C11 UNL     1      21.179   0.745  52.093  1.00  0.00     0.068 C 
HETATM   15  C18 UNL     1      22.114  -0.051  52.874  1.00  0.00     0.101 C 
HETATM   16  H11 UNL     1      20.708   2.790  49.734  1.00  0.00     0.182 HD
ENDROOT
BRANCH  14  17
HETATM   17  C12 UNL     1      19.836   0.176  52.108  1.00  0.00    -0.009 A 
HETATM   18  C13 UNL     1      19.395  -0.573  53.173  1.00  0.00     0.015 A 
HETATM   19  C14 UNL     1      18.150  -1.135  53.251  1.00  0.00     0.024 A 
HETATM   20  C15 UNL     1      17.238  -0.972  52.226  1.00  0.00     0.034 A 
HETATM   21 CL1  UNL     1      15.641  -1.639  52.226  1.00  0.00    -0.084 Cl
HETATM   22  C16 UNL     1      17.633  -0.233  51.145  1.00  0.00     0.024 A 
HETATM   23  C17 UNL     1      18.890   0.308  51.115  1.00  0.00     0.015 A 
ENDBRANCH  14  17
BRANCH   9  24
HETATM   24  O1  UNL     1      24.130   4.553  53.216  1.00  0.00    -0.354 OA
HETATM   25  H7  UNL     1      24.838   5.217  52.895  1.00  0.00     0.218 HD
ENDBRANCH   9  24
TORSDOF 2
ENDMDL
MODEL 5
REMARK VINA RESULT:      -8.3      4.236      6.434
REMARK  2 active torsions:
REMARK  status: ('A' for Active; 'I' for Inactive)
REMARK    1  A    between atoms: C8_9  and  O1_10 
REMARK    2  A    between atoms: C11_15  and  C12_16 
ROOT
HETATM    1  C1  UNL     1      24.996  -0.904  53.645  1.00  0.00     0.048 C 
HETATM    2  C2  UNL     1      25.316   0.270  52.785  1.00  0.00    -0.061 A 
HETATM    3  C3  UNL     1      26.609   0.512  52.374  1.00  0.00     0.007 A 
HETATM    4  C4  UNL     1      26.811   1.619  51.582  1.00  0.00     0.009 A 
HETATM    5  C5  UNL     1      25.843   2.546  51.138  1.00  0.00    -0.035 A 
HETATM    6  C6  UNL     1      24.586   2.209  51.607  1.00  0.00     0.014 A 
HETATM    7  C7  UNL     1      24.319   1.126  52.395  1.00  0.00     0.026 A 
HETATM    8  S1  UNL     1      23.101   3.175  51.228  1.00  0.00    -0.066 SA
HETATM    9  C8  UNL     1      22.589   2.561  49.602  1.00  0.00     0.105 C 
HETATM   10  C9  UNL     1      22.666   3.276  48.494  1.00  0.00     0.038 C 
HETATM   11  C10 UNL     1      23.113   4.633  48.101  1.00  0.00     0.172 C 
HETATM   12  N1  UNL     1      23.640   5.395  49.243  1.00  0.00    -0.310 N 
HETATM   13  N2  UNL     1      24.591   4.579  49.748  1.00  0.00    -0.183 NA
HETATM   14  C11 UNL     1      25.810   4.560  49.638  1.00  0.00     0.068 C 
HETATM   15  C18 UNL     1      26.548   3.522  50.342  1.00  0.00     0.101 C 
HETATM   16  H11 UNL     1      23.217   6.351  49.440  1.00  0.00     0.182 HD
ENDROOT
BRANCH  14  17
HETATM   17  C12 UNL     1      26.697   5.446  48.892  1.00  0.00    -0.009 A 
HETATM   18  C13 UNL     1      27.990   5.079  48.607  1.00  0.00     0.015 A 
HETATM   19  C14 UNL     1      28.874   5.860  47.913  1.00  0.00     0.024 A 
HETATM   20  C15 UNL     1      28.497   7.104  47.445  1.00  0.00     0.034 A 
HETATM   21 CL1  UNL     1      29.534   8.169  46.559  1.00  0.00    -0.084 Cl
HETATM   22  C16 UNL     1      27.218   7.512  47.704  1.00  0.00     0.024 A 
HETATM   23  C17 UNL     1      26.372   6.693  48.404  1.00  0.00     0.015 A 
ENDBRANCH  14  17
BRANCH   9  24
HETATM   24  O1  UNL     1      22.108   1.281  49.538  1.00  0.00    -0.354 OA
HETATM   25  H7  UNL     1      21.673   0.799  50.328  1.00  0.00     0.218 HD
ENDBRANCH   9  24
TORSDOF 2
ENDMDL
MODEL 6
REMARK VINA RESULT:      -8.3      5.414      8.807
REMARK  2 active torsions:
REMARK  status: ('A' for Active; 'I' for Inactive)
REMARK    1  A    between atoms: C8_9  and  O1_10 
REMARK    2  A    between atoms: C11_15  and  C12_16 
ROOT
HETATM    1  C1  UNL     1      30.266   7.655  47.362  1.00  0.00     0.048 C 
HETATM    2  C2  UNL     1      29.064   6.902  47.815  1.00  0.00    -0.061 A 
HETATM    3  C3  UNL     1      29.162   5.582  48.200  1.00  0.00     0.007 A 
HETATM    4  C4  UNL     1      28.000   4.965  48.604  1.00  0.00     0.009 A 
HETATM    5  C5  UNL     1      26.707   5.529  48.671  1.00  0.00    -0.035 A 
HETATM    6  C6  UNL     1      26.724   6.851  48.265  1.00  0.00     0.014 A 
HETATM    7  C7  UNL     1      27.841   7.520  47.853  1.00  0.00     0.026 A 
HETATM    8  S1  UNL     1      25.240   7.889  48.229  1.00  0.00    -0.066 SA
HETATM    9  C8  UNL     1      25.085   8.481  49.934  1.00  0.00     0.105 C 
HETATM   10  C9  UNL     1      24.124   8.098  50.756  1.00  0.00     0.038 C 
HETATM   11  C10 UNL     1      22.954   7.190  50.718  1.00  0.00     0.172 C 
HETATM   12  N1  UNL     1      22.828   6.503  49.423  1.00  0.00    -0.310 N 
HETATM   13  N2  UNL     1      24.038   5.922  49.261  1.00  0.00    -0.183 NA
HETATM   14  C11 UNL     1      24.437   4.779  49.441  1.00  0.00     0.068 C 
HETATM   15  C18 UNL     1      25.832   4.485  49.150  1.00  0.00     0.101 C 
HETATM   16  H11 UNL     1      21.902   6.584  48.905  1.00  0.00     0.182 HD
ENDROOT
BRANCH  14  17
HETATM   17  C12 UNL     1      23.720   3.598  49.912  1.00  0.00    -0.009 A 
HETATM   18  C13 UNL     1      23.863   3.150  51.203  1.00  0.00     0.015 A 
HETATM   19  C14 UNL     1      23.223   2.052  51.708  1.00  0.00     0.024 A 
HETATM   20  C15 UNL     1      22.366   1.310  50.917  1.00  0.00     0.034 A 
HETATM   21 CL1  UNL     1      21.507  -0.092  51.458  1.00  0.00    -0.084 Cl
HETATM   22  C16 UNL     1      22.192   1.720  49.624  1.00  0.00     0.024 A 
HETATM   23  C17 UNL     1      22.857   2.825  49.166  1.00  0.00     0.015 A 
ENDBRANCH  14  17
BRANCH   9  24
HETATM   24  O1  UNL     1      26.029   9.367  50.379  1.00  0.00    -0.354 OA
HETATM   25  H7  UNL     1      27.015   9.326  50.110  1.00  0.00     0.218 HD
ENDBRANCH   9  24
TORSDOF 2
ENDMDL
MODEL 7
REMARK VINA RESULT:      -8.3      3.116      4.810
REMARK  2 active torsions:
REMARK  status: ('A' for Active; 'I' for Inactive)
REMARK    1  A    between atoms: C8_9  and  O1_10 
REMARK    2  A    between atoms: C11_15  and  C12_16 
ROOT
HETATM    1  C1  UNL     1      21.897  -1.490  54.591  1.00  0.00     0.048 C 
HETATM    2  C2  UNL     1      22.486  -0.417  53.743  1.00  0.00    -0.061 A 
HETATM    3  C3  UNL     1      23.838  -0.394  53.473  1.00  0.00     0.007 A 
HETATM    4  C4  UNL     1      24.294   0.634  52.680  1.00  0.00     0.009 A 
HETATM    5  C5  UNL     1      23.537   1.678  52.107  1.00  0.00    -0.035 A 
HETATM    6  C6  UNL     1      22.199   1.558  52.441  1.00  0.00     0.014 A 
HETATM    7  C7  UNL     1      21.684   0.564  53.221  1.00  0.00     0.026 A 
HETATM    8  S1  UNL     1      20.934   2.723  51.873  1.00  0.00    -0.066 SA
HETATM    9  C8  UNL     1      20.509   2.126  50.216  1.00  0.00     0.105 C 
HETATM   10  C9  UNL     1      20.814   2.772  49.105  1.00  0.00     0.038 C 
HETATM   11  C10 UNL     1      21.508   4.026  48.730  1.00  0.00     0.172 C 
HETATM   12  N1  UNL     1      22.024   4.747  49.904  1.00  0.00    -0.310 N 
HETATM   13  N2  UNL     1      22.775   3.817  50.533  1.00  0.00    -0.183 NA
HETATM   14  C11 UNL     1      23.981   3.607  50.560  1.00  0.00     0.068 C 
HETATM   15  C18 UNL     1      24.468   2.500  51.370  1.00  0.00     0.101 C 
HETATM   16  H11 UNL     1      21.737   5.764  50.027  1.00  0.00     0.182 HD
ENDROOT
BRANCH  14  17
HETATM   17  C12 UNL     1      25.071   4.314  49.896  1.00  0.00    -0.009 A 
HETATM   18  C13 UNL     1      26.241   3.671  49.574  1.00  0.00     0.015 A 
HETATM   19  C14 UNL     1      27.301   4.272  48.952  1.00  0.00     0.024 A 
HETATM   20  C15 UNL     1      27.246   5.607  48.602  1.00  0.00     0.034 A 
HETATM   21 CL1  UNL     1      28.527   6.462  47.813  1.00  0.00    -0.084 Cl
HETATM   22  C16 UNL     1      26.099   6.289  48.901  1.00  0.00     0.024 A 
HETATM   23  C17 UNL     1      25.067   5.641  49.526  1.00  0.00     0.015 A 
ENDBRANCH  14  17
BRANCH   9  24
HETATM   24  O1  UNL     1      19.842   0.933  50.131  1.00  0.00    -0.354 OA
HETATM   25  H7  UNL     1      19.060   0.677  50.738  1.00  0.00     0.218 HD
ENDBRANCH   9  24
TORSDOF 2
ENDMDL
MODEL 8
REMARK VINA RESULT:      -8.2      4.645      7.771
REMARK  2 active torsions:
REMARK  status: ('A' for Active; 'I' for Inactive)
REMARK    1  A    between atoms: C8_9  and  O1_10 
REMARK    2  A    between atoms: C11_15  and  C12_16 
ROOT
HETATM    1  C1  UNL     1      28.694   8.419  46.514  1.00  0.00     0.048 C 
HETATM    2  C2  UNL     1      28.114   7.331  47.348  1.00  0.00    -0.061 A 
HETATM    3  C3  UNL     1      28.901   6.295  47.804  1.00  0.00     0.007 A 
HETATM    4  C4  UNL     1      28.280   5.333  48.568  1.00  0.00     0.009 A 
HETATM    5  C5  UNL     1      26.920   5.281  48.943  1.00  0.00    -0.035 A 
HETATM    6  C6  UNL     1      26.226   6.364  48.434  1.00  0.00     0.014 A 
HETATM    7  C7  UNL     1      26.782   7.350  47.671  1.00  0.00     0.026 A 
HETATM    8  S1  UNL     1      24.456   6.623  48.723  1.00  0.00    -0.066 SA
HETATM    9  C8  UNL     1      24.396   7.427  50.345  1.00  0.00     0.105 C 
HETATM   10  C9  UNL     1      23.924   6.844  51.433  1.00  0.00     0.038 C 
HETATM   11  C10 UNL     1      23.342   5.532  51.801  1.00  0.00     0.172 C 
HETATM   12  N1  UNL     1      23.291   4.608  50.657  1.00  0.00    -0.310 N 
HETATM   13  N2  UNL     1      24.568   4.590  50.217  1.00  0.00    -0.183 NA
HETATM   14  C11 UNL     1      25.487   3.797  50.377  1.00  0.00     0.068 C 
HETATM   15  C18 UNL     1      26.762   4.085  49.736  1.00  0.00     0.101 C 
HETATM   16  H11 UNL     1      22.352   4.171  50.413  1.00  0.00     0.182 HD
ENDROOT
BRANCH  14  17
HETATM   17  C12 UNL     1      25.528   2.548  51.130  1.00  0.00    -0.009 A 
HETATM   18  C13 UNL     1      26.713   1.886  51.342  1.00  0.00     0.015 A 
HETATM   19  C14 UNL     1      26.822   0.713  52.037  1.00  0.00     0.024 A 
HETATM   20  C15 UNL     1      25.705   0.112  52.584  1.00  0.00     0.034 A 
HETATM   21 CL1  UNL     1      25.732  -1.368  53.480  1.00  0.00    -0.084 Cl
HETATM   22  C16 UNL     1      24.502   0.735  52.399  1.00  0.00     0.024 A 
HETATM   23  C17 UNL     1      24.446   1.908  51.694  1.00  0.00     0.015 A 
ENDBRANCH  14  17
BRANCH   9  24
HETATM   24  O1  UNL     1      24.878   8.706  50.430  1.00  0.00    -0.354 OA
HETATM   25  H7  UNL     1      24.335   9.492  50.793  1.00  0.00     0.218 HD
ENDBRANCH   9  24
TORSDOF 2
ENDMDL
MODEL 9
REMARK VINA RESULT:      -7.6      2.100      4.655
REMARK  2 active torsions:
REMARK  status: ('A' for Active; 'I' for Inactive)
REMARK    1  A    between atoms: C8_9  and  O1_10 
REMARK    2  A    between atoms: C11_15  and  C12_16 
ROOT
HETATM    1  C1  UNL     1      20.921   5.522  47.192  1.00  0.00     0.048 C 
HETATM    2  C2  UNL     1      21.713   4.686  48.137  1.00  0.00    -0.061 A 
HETATM    3  C3  UNL     1      23.038   4.968  48.388  1.00  0.00     0.007 A 
HETATM    4  C4  UNL     1      23.691   4.142  49.275  1.00  0.00     0.009 A 
HETATM    5  C5  UNL     1      23.160   3.030  49.964  1.00  0.00    -0.035 A 
HETATM    6  C6  UNL     1      21.829   2.839  49.639  1.00  0.00     0.014 A 
HETATM    7  C7  UNL     1      21.125   3.621  48.768  1.00  0.00     0.026 A 
HETATM    8  S1  UNL     1      20.825   1.505  50.342  1.00  0.00    -0.066 SA
HETATM    9  C8  UNL     1      20.276   2.170  51.934  1.00  0.00     0.105 C 
HETATM   10  C9  UNL     1      20.700   1.718  53.101  1.00  0.00     0.038 C 
HETATM   11  C10 UNL     1      21.634   0.679  53.593  1.00  0.00     0.172 C 
HETATM   12  N1  UNL     1      22.294  -0.039  52.491  1.00  0.00    -0.310 N 
HETATM   13  N2  UNL     1      22.843   0.955  51.759  1.00  0.00    -0.183 NA
HETATM   14  C11 UNL     1      23.980   1.403  51.692  1.00  0.00     0.068 C 
HETATM   15  C18 UNL     1      24.235   2.497  50.767  1.00  0.00     0.101 C 
HETATM   16  H11 UNL     1      22.223  -1.101  52.476  1.00  0.00     0.182 HD
ENDROOT
BRANCH  14  17
HETATM   17  C12 UNL     1      25.187   1.007  52.409  1.00  0.00    -0.009 A 
HETATM   18  C13 UNL     1      25.601   1.684  53.531  1.00  0.00     0.015 A 
HETATM   19  C14 UNL     1      26.721   1.367  54.250  1.00  0.00     0.024 A 
HETATM   20  C15 UNL     1      27.523   0.308  53.870  1.00  0.00     0.034 A 
HETATM   21 CL1  UNL     1      28.958  -0.177  54.708  1.00  0.00    -0.084 Cl
HETATM   22  C16 UNL     1      27.151  -0.397  52.759  1.00  0.00     0.024 A 
HETATM   23  C17 UNL     1      26.021  -0.038  52.074  1.00  0.00     0.015 A 
ENDBRANCH  14  17
BRANCH   9  24
HETATM   24  O1  UNL     1      19.378   3.204  51.907  1.00  0.00    -0.354 OA
HETATM   25  H7  UNL     1      18.897   3.513  51.059  1.00  0.00     0.218 HD
ENDBRANCH   9  24
TORSDOF 2
ENDMDL
