MODEL 1
REMARK VINA RESULT:      -8.5      0.000      0.000
REMARK  0 active torsions:
REMARK  status: ('A' for Active; 'I' for Inactive)
ROOT
HETATM    1 CL1  UNL     1      22.948   7.317  50.392  1.00  0.00    -0.081 Cl
HETATM    2  C1  UNL     1      23.512   5.719  49.954  1.00  0.00     0.069 A 
HETATM    3  C2  UNL     1      24.659   5.249  50.544  1.00  0.00     0.056 A 
HETATM    4  C3  UNL     1      25.241   4.021  50.316  1.00  0.00     0.034 A 
HETATM    5  C4  UNL     1      24.553   3.251  49.402  1.00  0.00     0.032 A 
HETATM    6  C5  UNL     1      23.397   3.675  48.781  1.00  0.00     0.041 A 
HETATM    7  C6  UNL     1      22.842   4.934  49.046  1.00  0.00     0.090 A 
HETATM    8  O1  UNL     1      21.694   5.100  48.297  1.00  0.00    -0.346 OA
HETATM    9  C7  UNL     1      20.676   5.951  48.766  1.00  0.00     0.203 C 
HETATM   10  C8  UNL     1      19.482   5.965  47.827  1.00  0.00    -0.004 C 
HETATM   11  C9  UNL     1      18.276   5.581  48.265  1.00  0.00    -0.018 C 
HETATM   12  C10 UNL     1      16.823   5.357  47.958  1.00  0.00     0.100 C 
HETATM   13  S1  UNL     1      16.448   3.625  48.237  1.00  0.00    -0.164 SA
HETATM   14  C11 UNL     1      16.666   3.226  49.989  1.00  0.00     0.104 C 
HETATM   15  C12 UNL     1      16.306   1.772  50.288  1.00  0.00     0.279 C 
HETATM   16  N1  UNL     1      16.547   1.533  51.687  1.00  0.00     0.086 N 
HETATM   17  C13 UNL     1      16.184   0.221  52.113  1.00  0.00     0.295 C 
HETATM   18  C14 UNL     1      17.088  -0.803  51.497  1.00  0.00     0.198 C 
HETATM   19  O2  UNL     1      18.395  -0.568  51.834  1.00  0.00    -0.386 OA
HETATM   20  C15 UNL     1      18.685  -0.578  53.169  1.00  0.00     0.195 C 
HETATM   21  C16 UNL     1      20.178  -0.358  53.306  1.00  0.00    -0.001 C 
HETATM   22  C17 UNL     1      20.958  -1.238  53.886  1.00  0.00    -0.001 C 
HETATM   23  C18 UNL     1      22.373  -1.048  54.023  1.00  0.00     0.019 C 
HETATM   24  C19 UNL     1      22.913   0.059  53.545  1.00  0.00     0.118 C 
HETATM   25  N2  UNL     1      23.885   1.034  53.207  1.00  0.00    -0.254 NA
HETATM   26  C20 UNL     1      25.130   0.735  53.011  1.00  0.00     0.233 C 
HETATM   27  N3  UNL     1      25.299   2.141  52.762  1.00  0.00    -0.237 NA
HETATM   28  C21 UNL     1      25.966   2.439  51.680  1.00  0.00     0.208 C 
HETATM   29  N4  UNL     1      26.415   3.611  50.970  1.00  0.00    -0.351 N 
HETATM   30  H14 UNL     1      16.240   2.303  52.296  1.00  0.00     0.315 HD
HETATM   31  H27 UNL     1      27.413   3.958  51.025  1.00  0.00     0.166 HD
ENDROOT
TORSDOF 0
ENDMDL
MODEL 2
REMARK VINA RESULT:      -7.9     26.208     27.729
REMARK  0 active torsions:
REMARK  status: ('A' for Active; 'I' for Inactive)
ROOT
HETATM    1 CL1  UNL     1      44.431  -1.583  69.519  1.00  0.00    -0.081 Cl
HETATM    2  C1  UNL     1      42.916  -1.556  68.644  1.00  0.00     0.069 A 
HETATM    3  C2  UNL     1      42.116  -2.672  68.692  1.00  0.00     0.056 A 
HETATM    4  C3  UNL     1      40.898  -2.821  68.065  1.00  0.00     0.034 A 
HETATM    5  C4  UNL     1      40.514  -1.711  67.345  1.00  0.00     0.032 A 
HETATM    6  C5  UNL     1      41.278  -0.566  67.264  1.00  0.00     0.041 A 
HETATM    7  C6  UNL     1      42.512  -0.460  67.920  1.00  0.00     0.090 A 
HETATM    8  O1  UNL     1      43.060   0.783  67.675  1.00  0.00    -0.346 OA
HETATM    9  C7  UNL     1      43.938   1.352  68.616  1.00  0.00     0.203 C 
HETATM   10  C8  UNL     1      44.397   2.735  68.188  1.00  0.00    -0.004 C 
HETATM   11  C9  UNL     1      44.140   3.799  68.960  1.00  0.00    -0.018 C 
HETATM   12  C10 UNL     1      44.264   5.282  69.165  1.00  0.00     0.100 C 
HETATM   13  S1  UNL     1      42.612   5.977  69.263  1.00  0.00    -0.164 SA
HETATM   14  C11 UNL     1      41.762   5.330  70.723  1.00  0.00     0.104 C 
HETATM   15  C12 UNL     1      40.368   5.935  70.882  1.00  0.00     0.279 C 
HETATM   16  N1  UNL     1      39.753   5.336  72.038  1.00  0.00     0.086 N 
HETATM   17  C13 UNL     1      38.463   5.868  72.337  1.00  0.00     0.295 C 
HETATM   18  C14 UNL     1      37.478   5.493  71.274  1.00  0.00     0.198 C 
HETATM   19  O2  UNL     1      37.384   4.132  71.151  1.00  0.00    -0.386 OA
HETATM   20  C15 UNL     1      36.993   3.451  72.269  1.00  0.00     0.195 C 
HETATM   21  C16 UNL     1      36.901   1.986  71.893  1.00  0.00    -0.001 C 
HETATM   22  C17 UNL     1      35.780   1.313  71.995  1.00  0.00    -0.001 C 
HETATM   23  C18 UNL     1      35.673  -0.073  71.643  1.00  0.00     0.019 C 
HETATM   24  C19 UNL     1      36.748  -0.698  71.197  1.00  0.00     0.118 C 
HETATM   25  N2  UNL     1      37.585  -1.730  70.701  1.00  0.00    -0.254 NA
HETATM   26  C20 UNL     1      37.125  -2.732  70.022  1.00  0.00     0.233 C 
HETATM   27  N3  UNL     1      38.495  -3.164  69.970  1.00  0.00    -0.237 NA
HETATM   28  C21 UNL     1      38.926  -3.512  68.788  1.00  0.00     0.208 C 
HETATM   29  N4  UNL     1      40.136  -3.998  68.173  1.00  0.00    -0.351 N 
HETATM   30  H14 UNL     1      40.391   5.232  72.838  1.00  0.00     0.315 HD
HETATM   31  H27 UNL     1      40.274  -5.016  67.922  1.00  0.00     0.166 HD
ENDROOT
TORSDOF 0
ENDMDL
MODEL 3
REMARK VINA RESULT:      -7.9      1.974      3.383
REMARK  0 active torsions:
REMARK  status: ('A' for Active; 'I' for Inactive)
ROOT
HETATM    1 CL1  UNL     1      23.742   5.273  52.956  1.00  0.00    -0.081 Cl
HETATM    2  C1  UNL     1      23.758   3.633  52.346  1.00  0.00     0.069 A 
HETATM    3  C2  UNL     1      24.164   2.628  53.189  1.00  0.00     0.056 A 
HETATM    4  C3  UNL     1      24.237   1.288  52.874  1.00  0.00     0.034 A 
HETATM    5  C4  UNL     1      23.852   1.009  51.580  1.00  0.00     0.032 A 
HETATM    6  C5  UNL     1      23.437   1.979  50.694  1.00  0.00     0.041 A 
HETATM    7  C6  UNL     1      23.378   3.330  51.060  1.00  0.00     0.090 A 
HETATM    8  O1  UNL     1      22.930   4.080  49.990  1.00  0.00    -0.346 OA
HETATM    9  C7  UNL     1      22.250   5.290  50.228  1.00  0.00     0.203 C 
HETATM   10  C8  UNL     1      21.799   5.941  48.931  1.00  0.00    -0.004 C 
HETATM   11  C9  UNL     1      20.498   6.169  48.709  1.00  0.00    -0.018 C 
HETATM   12  C10 UNL     1      19.439   6.701  47.786  1.00  0.00     0.100 C 
HETATM   13  S1  UNL     1      18.321   5.359  47.376  1.00  0.00    -0.164 SA
HETATM   14  C11 UNL     1      17.464   4.800  48.868  1.00  0.00     0.104 C 
HETATM   15  C12 UNL     1      16.458   3.691  48.561  1.00  0.00     0.279 C 
HETATM   16  N1  UNL     1      15.856   3.281  49.803  1.00  0.00     0.086 N 
HETATM   17  C13 UNL     1      14.842   2.290  49.646  1.00  0.00     0.295 C 
HETATM   18  C14 UNL     1      15.437   0.994  49.186  1.00  0.00     0.198 C 
HETATM   19  O2  UNL     1      16.373   0.541  50.078  1.00  0.00    -0.386 OA
HETATM   20  C15 UNL     1      15.931   0.310  51.350  1.00  0.00     0.195 C 
HETATM   21  C16 UNL     1      17.104  -0.234  52.140  1.00  0.00    -0.001 C 
HETATM   22  C17 UNL     1      17.068  -1.417  52.707  1.00  0.00    -0.001 C 
HETATM   23  C18 UNL     1      18.167  -1.950  53.458  1.00  0.00     0.019 C 
HETATM   24  C19 UNL     1      19.262  -1.220  53.583  1.00  0.00     0.118 C 
HETATM   25  N2  UNL     1      20.569  -0.825  53.967  1.00  0.00    -0.254 NA
HETATM   26  C20 UNL     1      21.508  -1.682  54.218  1.00  0.00     0.233 C 
HETATM   27  N3  UNL     1      22.321  -0.524  54.476  1.00  0.00    -0.237 NA
HETATM   28  C21 UNL     1      23.491  -0.525  53.896  1.00  0.00     0.208 C 
HETATM   29  N4  UNL     1      24.657   0.319  53.802  1.00  0.00    -0.351 N 
HETATM   30  H14 UNL     1      15.623   4.065  50.428  1.00  0.00     0.315 HD
HETATM   31  H27 UNL     1      25.537   0.131  54.356  1.00  0.00     0.166 HD
ENDROOT
TORSDOF 0
ENDMDL
MODEL 4
REMARK VINA RESULT:      -7.6      2.774      7.040
REMARK  0 active torsions:
REMARK  status: ('A' for Active; 'I' for Inactive)
ROOT
HETATM    1 CL1  UNL     1      17.090   2.899  47.213  1.00  0.00    -0.081 Cl
HETATM    2  C1  UNL     1      16.933   2.942  48.956  1.00  0.00     0.069 A 
HETATM    3  C2  UNL     1      16.144   1.996  49.563  1.00  0.00     0.056 A 
HETATM    4  C3  UNL     1      15.912   1.885  50.916  1.00  0.00     0.034 A 
HETATM    5  C4  UNL     1      16.562   2.844  51.664  1.00  0.00     0.032 A 
HETATM    6  C5  UNL     1      17.364   3.815  51.106  1.00  0.00     0.041 A 
HETATM    7  C6  UNL     1      17.572   3.888  49.722  1.00  0.00     0.090 A 
HETATM    8  O1  UNL     1      18.413   4.946  49.436  1.00  0.00    -0.346 OA
HETATM    9  C7  UNL     1      19.218   4.900  48.282  1.00  0.00     0.203 C 
HETATM   10  C8  UNL     1      20.102   6.130  48.168  1.00  0.00    -0.004 C 
HETATM   11  C9  UNL     1      21.435   6.002  48.143  1.00  0.00    -0.018 C 
HETATM   12  C10 UNL     1      22.776   6.672  48.059  1.00  0.00     0.100 C 
HETATM   13  S1  UNL     1      23.696   6.280  49.549  1.00  0.00    -0.164 SA
HETATM   14  C11 UNL     1      24.019   4.501  49.618  1.00  0.00     0.104 C 
HETATM   15  C12 UNL     1      24.848   4.123  50.845  1.00  0.00     0.279 C 
HETATM   16  N1  UNL     1      25.021   2.694  50.841  1.00  0.00     0.086 N 
HETATM   17  C13 UNL     1      25.842   2.215  51.906  1.00  0.00     0.295 C 
HETATM   18  C14 UNL     1      25.159   2.408  53.225  1.00  0.00     0.198 C 
HETATM   19  O2  UNL     1      23.957   1.752  53.256  1.00  0.00    -0.386 OA
HETATM   20  C15 UNL     1      24.003   0.401  53.061  1.00  0.00     0.195 C 
HETATM   21  C16 UNL     1      22.585  -0.119  53.193  1.00  0.00    -0.001 C 
HETATM   22  C17 UNL     1      22.255  -1.008  54.099  1.00  0.00    -0.001 C 
HETATM   23  C18 UNL     1      20.920  -1.511  54.240  1.00  0.00     0.019 C 
HETATM   24  C19 UNL     1      19.983  -1.061  53.424  1.00  0.00     0.118 C 
HETATM   25  N2  UNL     1      18.717  -0.882  52.811  1.00  0.00    -0.254 NA
HETATM   26  C20 UNL     1      17.604  -1.086  53.443  1.00  0.00     0.233 C 
HETATM   27  N3  UNL     1      16.978  -0.708  52.205  1.00  0.00    -0.237 NA
HETATM   28  C21 UNL     1      16.020   0.172  52.310  1.00  0.00     0.208 C 
HETATM   29  N4  UNL     1      15.095   0.878  51.458  1.00  0.00    -0.351 N 
HETATM   30  H14 UNL     1      25.223   2.304  49.910  1.00  0.00     0.315 HD
HETATM   31  H27 UNL     1      14.081   0.591  51.366  1.00  0.00     0.166 HD
ENDROOT
TORSDOF 0
ENDMDL
MODEL 5
REMARK VINA RESULT:      -7.4      3.262      6.448
REMARK  0 active torsions:
REMARK  status: ('A' for Active; 'I' for Inactive)
ROOT
HETATM    1 CL1  UNL     1      26.396   3.211  49.395  1.00  0.00    -0.081 Cl
HETATM    2  C1  UNL     1      25.304   4.502  49.846  1.00  0.00     0.069 A 
HETATM    3  C2  UNL     1      25.146   5.555  48.979  1.00  0.00     0.056 A 
HETATM    4  C3  UNL     1      24.331   6.649  49.175  1.00  0.00     0.034 A 
HETATM    5  C4  UNL     1      23.645   6.612  50.371  1.00  0.00     0.032 A 
HETATM    6  C5  UNL     1      23.767   5.580  51.276  1.00  0.00     0.041 A 
HETATM    7  C6  UNL     1      24.609   4.487  51.032  1.00  0.00     0.090 A 
HETATM    8  O1  UNL     1      24.541   3.605  52.093  1.00  0.00    -0.346 OA
HETATM    9  C7  UNL     1      24.794   2.237  51.876  1.00  0.00     0.203 C 
HETATM   10  C8  UNL     1      24.625   1.428  53.150  1.00  0.00    -0.004 C 
HETATM   11  C9  UNL     1      23.720   0.443  53.208  1.00  0.00    -0.018 C 
HETATM   12  C10 UNL     1      23.071  -0.643  54.017  1.00  0.00     0.100 C 
HETATM   13  S1  UNL     1      21.318  -0.284  54.140  1.00  0.00    -0.164 SA
HETATM   14  C11 UNL     1      20.563  -0.353  52.496  1.00  0.00     0.104 C 
HETATM   15  C12 UNL     1      19.056  -0.107  52.555  1.00  0.00     0.279 C 
HETATM   16  N1  UNL     1      18.548  -0.139  51.207  1.00  0.00     0.086 N 
HETATM   17  C13 UNL     1      17.132   0.012  51.128  1.00  0.00     0.295 C 
HETATM   18  C14 UNL     1      16.724   1.391  51.545  1.00  0.00     0.198 C 
HETATM   19  O2  UNL     1      17.320   2.338  50.755  1.00  0.00    -0.386 OA
HETATM   20  C15 UNL     1      17.051   2.265  49.418  1.00  0.00     0.195 C 
HETATM   21  C16 UNL     1      17.759   3.429  48.753  1.00  0.00    -0.001 C 
HETATM   22  C17 UNL     1      17.104   4.345  48.080  1.00  0.00    -0.001 C 
HETATM   23  C18 UNL     1      17.755   5.453  47.446  1.00  0.00     0.019 C 
HETATM   24  C19 UNL     1      19.069   5.558  47.544  1.00  0.00     0.118 C 
HETATM   25  N2  UNL     1      20.385   6.060  47.386  1.00  0.00    -0.254 NA
HETATM   26  C20 UNL     1      20.631   7.317  47.191  1.00  0.00     0.233 C 
HETATM   27  N3  UNL     1      22.010   6.913  47.159  1.00  0.00    -0.237 NA
HETATM   28  C21 UNL     1      22.818   7.628  47.895  1.00  0.00     0.208 C 
HETATM   29  N4  UNL     1      24.219   7.683  48.230  1.00  0.00    -0.351 N 
HETATM   30  H14 UNL     1      18.952  -0.890  50.632  1.00  0.00     0.315 HD
HETATM   31  H27 UNL     1      24.879   8.383  47.791  1.00  0.00     0.166 HD
ENDROOT
TORSDOF 0
ENDMDL
MODEL 6
REMARK VINA RESULT:      -7.3      7.696     11.740
REMARK  0 active torsions:
REMARK  status: ('A' for Active; 'I' for Inactive)
ROOT
HETATM    1 CL1  UNL     1      23.406   6.645  47.090  1.00  0.00    -0.081 Cl
HETATM    2  C1  UNL     1      24.523   7.292  48.272  1.00  0.00     0.069 A 
HETATM    3  C2  UNL     1      25.839   6.903  48.206  1.00  0.00     0.056 A 
HETATM    4  C3  UNL     1      26.846   7.313  49.052  1.00  0.00     0.034 A 
HETATM    5  C4  UNL     1      26.420   8.191  50.026  1.00  0.00     0.032 A 
HETATM    6  C5  UNL     1      25.112   8.613  50.136  1.00  0.00     0.041 A 
HETATM    7  C6  UNL     1      24.121   8.169  49.251  1.00  0.00     0.090 A 
HETATM    8  O1  UNL     1      22.911   8.745  49.585  1.00  0.00    -0.346 OA
HETATM    9  C7  UNL     1      21.937   8.942  48.587  1.00  0.00     0.203 C 
HETATM   10  C8  UNL     1      20.700   9.627  49.141  1.00  0.00    -0.004 C 
HETATM   11  C9  UNL     1      20.307  10.809  48.648  1.00  0.00    -0.018 C 
HETATM   12  C10 UNL     1      19.318  11.938  48.688  1.00  0.00     0.100 C 
HETATM   13  S1  UNL     1      20.201  13.448  49.086  1.00  0.00    -0.164 SA
HETATM   14  C11 UNL     1      21.370  13.840  47.761  1.00  0.00     0.104 C 
HETATM   15  C12 UNL     1      22.111  15.149  48.028  1.00  0.00     0.279 C 
HETATM   16  N1  UNL     1      23.043  15.360  46.950  1.00  0.00     0.086 N 
HETATM   17  C13 UNL     1      23.756  16.593  47.046  1.00  0.00     0.295 C 
HETATM   18  C14 UNL     1      24.687  16.574  48.218  1.00  0.00     0.198 C 
HETATM   19  O2  UNL     1      25.585  15.544  48.115  1.00  0.00    -0.386 OA
HETATM   20  C15 UNL     1      26.387  15.552  47.010  1.00  0.00     0.195 C 
HETATM   21  C16 UNL     1      27.328  14.370  47.130  1.00  0.00    -0.001 C 
HETATM   22  C17 UNL     1      28.631  14.522  47.163  1.00  0.00    -0.001 C 
HETATM   23  C18 UNL     1      29.537  13.418  47.278  1.00  0.00     0.019 C 
HETATM   24  C19 UNL     1      29.041  12.196  47.354  1.00  0.00     0.118 C 
HETATM   25  N2  UNL     1      28.976  10.783  47.460  1.00  0.00    -0.254 NA
HETATM   26  C20 UNL     1      29.904  10.086  48.035  1.00  0.00     0.233 C 
HETATM   27  N3  UNL     1      29.084   8.953  47.702  1.00  0.00    -0.237 NA
HETATM   28  C21 UNL     1      28.873   8.111  48.677  1.00  0.00     0.208 C 
HETATM   29  N4  UNL     1      28.173   6.872  48.910  1.00  0.00    -0.351 N 
HETATM   30  H14 UNL     1      22.660  15.135  46.023  1.00  0.00     0.315 HD
HETATM   31  H27 UNL     1      28.669   5.939  48.939  1.00  0.00     0.166 HD
ENDROOT
TORSDOF 0
ENDMDL
MODEL 7
REMARK VINA RESULT:      -7.1      3.307      6.465
REMARK  0 active torsions:
REMARK  status: ('A' for Active; 'I' for Inactive)
ROOT
HETATM    1 CL1  UNL     1      22.722  -0.883  52.689  1.00  0.00    -0.081 Cl
HETATM    2  C1  UNL     1      22.432   0.839  52.571  1.00  0.00     0.069 A 
HETATM    3  C2  UNL     1      23.476   1.651  52.199  1.00  0.00     0.056 A 
HETATM    4  C3  UNL     1      23.424   3.021  52.058  1.00  0.00     0.034 A 
HETATM    5  C4  UNL     1      22.181   3.552  52.330  1.00  0.00     0.032 A 
HETATM    6  C5  UNL     1      21.102   2.783  52.707  1.00  0.00     0.041 A 
HETATM    7  C6  UNL     1      21.202   1.392  52.837  1.00  0.00     0.090 A 
HETATM    8  O1  UNL     1      19.981   0.874  53.221  1.00  0.00    -0.346 OA
HETATM    9  C7  UNL     1      19.647  -0.449  52.872  1.00  0.00     0.203 C 
HETATM   10  C8  UNL     1      18.251  -0.816  53.343  1.00  0.00    -0.004 C 
HETATM   11  C9  UNL     1      17.316  -1.184  52.457  1.00  0.00    -0.018 C 
HETATM   12  C10 UNL     1      15.903  -1.628  52.210  1.00  0.00     0.100 C 
HETATM   13  S1  UNL     1      15.110  -0.420  51.145  1.00  0.00    -0.164 SA
HETATM   14  C11 UNL     1      15.929  -0.398  49.531  1.00  0.00     0.104 C 
HETATM   15  C12 UNL     1      15.254   0.579  48.568  1.00  0.00     0.279 C 
HETATM   16  N1  UNL     1      15.991   0.562  47.331  1.00  0.00     0.086 N 
HETATM   17  C13 UNL     1      15.420   1.387  46.316  1.00  0.00     0.295 C 
HETATM   18  C14 UNL     1      15.535   2.834  46.687  1.00  0.00     0.198 C 
HETATM   19  O2  UNL     1      16.844   3.191  46.871  1.00  0.00    -0.386 OA
HETATM   20  C15 UNL     1      17.672   3.021  45.798  1.00  0.00     0.195 C 
HETATM   21  C16 UNL     1      19.042   3.528  46.203  1.00  0.00    -0.001 C 
HETATM   22  C17 UNL     1      19.634   4.509  45.565  1.00  0.00    -0.001 C 
HETATM   23  C18 UNL     1      20.928   5.003  45.933  1.00  0.00     0.019 C 
HETATM   24  C19 UNL     1      21.550   4.449  46.960  1.00  0.00     0.118 C 
HETATM   25  N2  UNL     1      22.543   4.182  47.936  1.00  0.00    -0.254 NA
HETATM   26  C20 UNL     1      23.378   5.086  48.342  1.00  0.00     0.233 C 
HETATM   27  N3  UNL     1      23.899   4.045  49.186  1.00  0.00    -0.237 NA
HETATM   28  C21 UNL     1      24.074   4.376  50.436  1.00  0.00     0.208 C 
HETATM   29  N4  UNL     1      24.540   3.779  51.664  1.00  0.00    -0.351 N 
HETATM   30  H14 UNL     1      16.277  -0.380  47.033  1.00  0.00     0.315 HD
HETATM   31  H27 UNL     1      25.508   3.959  52.048  1.00  0.00     0.166 HD
ENDROOT
TORSDOF 0
ENDMDL
MODEL 8
REMARK VINA RESULT:      -7.1     11.388     14.845
REMARK  0 active torsions:
REMARK  status: ('A' for Active; 'I' for Inactive)
ROOT
HETATM    1 CL1  UNL     1      28.658   5.458  48.245  1.00  0.00    -0.081 Cl
HETATM    2  C1  UNL     1      30.385   5.683  48.075  1.00  0.00     0.069 A 
HETATM    3  C2  UNL     1      31.124   4.666  47.522  1.00  0.00     0.056 A 
HETATM    4  C3  UNL     1      32.487   4.676  47.316  1.00  0.00     0.034 A 
HETATM    5  C4  UNL     1      33.094   5.844  47.726  1.00  0.00     0.032 A 
HETATM    6  C5  UNL     1      32.400   6.895  48.286  1.00  0.00     0.041 A 
HETATM    7  C6  UNL     1      31.012   6.839  48.476  1.00  0.00     0.090 A 
HETATM    8  O1  UNL     1      30.576   8.018  49.049  1.00  0.00    -0.346 OA
HETATM    9  C7  UNL     1      29.258   8.455  48.820  1.00  0.00     0.203 C 
HETATM   10  C8  UNL     1      28.986   9.788  49.495  1.00  0.00    -0.004 C 
HETATM   11  C9  UNL     1      28.626  10.852  48.765  1.00  0.00    -0.018 C 
HETATM   12  C10 UNL     1      28.243  12.304  48.735  1.00  0.00     0.100 C 
HETATM   13  S1  UNL     1      29.439  13.181  47.725  1.00  0.00    -0.164 SA
HETATM   14  C11 UNL     1      29.344  12.593  46.016  1.00  0.00     0.104 C 
HETATM   15  C12 UNL     1      30.307  13.349  45.102  1.00  0.00     0.279 C 
HETATM   16  N1  UNL     1      30.194  12.793  43.779  1.00  0.00     0.086 N 
HETATM   17  C13 UNL     1      31.000  13.460  42.809  1.00  0.00     0.295 C 
HETATM   18  C14 UNL     1      32.454  13.231  43.083  1.00  0.00     0.198 C 
HETATM   19  O2  UNL     1      32.752  11.895  43.069  1.00  0.00    -0.386 OA
HETATM   20  C15 UNL     1      32.490  11.231  41.903  1.00  0.00     0.195 C 
HETATM   21  C16 UNL     1      32.944   9.797  42.091  1.00  0.00    -0.001 C 
HETATM   22  C17 UNL     1      33.862   9.255  41.327  1.00  0.00    -0.001 C 
HETATM   23  C18 UNL     1      34.306   7.902  41.490  1.00  0.00     0.019 C 
HETATM   24  C19 UNL     1      33.769   7.170  42.451  1.00  0.00     0.118 C 
HETATM   25  N2  UNL     1      33.498   6.064  43.296  1.00  0.00    -0.254 NA
HETATM   26  C20 UNL     1      34.375   5.142  43.536  1.00  0.00     0.233 C 
HETATM   27  N3  UNL     1      33.349   4.556  44.356  1.00  0.00    -0.237 NA
HETATM   28  C21 UNL     1      33.729   4.196  45.552  1.00  0.00     0.208 C 
HETATM   29  N4  UNL     1      33.167   3.592  46.735  1.00  0.00    -0.351 N 
HETATM   30  H14 UNL     1      29.226  12.592  43.496  1.00  0.00     0.315 HD
HETATM   31  H27 UNL     1      33.315   2.573  46.974  1.00  0.00     0.166 HD
ENDROOT
TORSDOF 0
ENDMDL
MODEL 9
REMARK VINA RESULT:      -7.1      5.681      9.870
REMARK  0 active torsions:
REMARK  status: ('A' for Active; 'I' for Inactive)
ROOT
HETATM    1 CL1  UNL     1      20.153   6.693  47.773  1.00  0.00    -0.081 Cl
HETATM    2  C1  UNL     1      21.323   6.550  49.066  1.00  0.00     0.069 A 
HETATM    3  C2  UNL     1      21.727   5.292  49.443  1.00  0.00     0.056 A 
HETATM    4  C3  UNL     1      22.636   4.999  50.436  1.00  0.00     0.034 A 
HETATM    5  C4  UNL     1      23.141   6.118  51.063  1.00  0.00     0.032 A 
HETATM    6  C5  UNL     1      22.770   7.402  50.725  1.00  0.00     0.041 A 
HETATM    7  C6  UNL     1      21.841   7.651  49.705  1.00  0.00     0.090 A 
HETATM    8  O1  UNL     1      21.655   9.013  49.573  1.00  0.00    -0.346 OA
HETATM    9  C7  UNL     1      21.267   9.543  48.328  1.00  0.00     0.203 C 
HETATM   10  C8  UNL     1      21.159  11.058  48.374  1.00  0.00    -0.004 C 
HETATM   11  C9  UNL     1      21.919  11.812  47.570  1.00  0.00    -0.018 C 
HETATM   12  C10 UNL     1      22.312  13.188  47.114  1.00  0.00     0.100 C 
HETATM   13  S1  UNL     1      24.063  13.411  47.436  1.00  0.00    -0.164 SA
HETATM   14  C11 UNL     1      25.021  12.248  46.434  1.00  0.00     0.104 C 
HETATM   15  C12 UNL     1      26.525  12.435  46.633  1.00  0.00     0.279 C 
HETATM   16  N1  UNL     1      27.205  11.449  45.835  1.00  0.00     0.086 N 
HETATM   17  C13 UNL     1      28.627  11.560  45.879  1.00  0.00     0.295 C 
HETATM   18  C14 UNL     1      29.140  11.214  47.243  1.00  0.00     0.198 C 
HETATM   19  O2  UNL     1      28.779   9.941  47.595  1.00  0.00    -0.386 OA
HETATM   20  C15 UNL     1      29.218   8.941  46.774  1.00  0.00     0.195 C 
HETATM   21  C16 UNL     1      28.757   7.629  47.378  1.00  0.00    -0.001 C 
HETATM   22  C17 UNL     1      29.606   6.696  47.738  1.00  0.00    -0.001 C 
HETATM   23  C18 UNL     1      29.189   5.450  48.312  1.00  0.00     0.019 C 
HETATM   24  C19 UNL     1      27.898   5.233  48.487  1.00  0.00     0.118 C 
HETATM   25  N2  UNL     1      26.687   4.587  48.845  1.00  0.00    -0.254 NA
HETATM   26  C20 UNL     1      26.627   3.691  49.779  1.00  0.00     0.233 C 
HETATM   27  N3  UNL     1      25.226   3.635  49.461  1.00  0.00    -0.237 NA
HETATM   28  C21 UNL     1      24.419   3.694  50.486  1.00  0.00     0.208 C 
HETATM   29  N4  UNL     1      23.002   3.680  50.755  1.00  0.00    -0.351 N 
HETATM   30  H14 UNL     1      26.795  11.319  44.900  1.00  0.00     0.315 HD
HETATM   31  H27 UNL     1      22.501   2.817  51.101  1.00  0.00     0.166 HD
ENDROOT
TORSDOF 0
ENDMDL
