MODEL 1
REMARK VINA RESULT:      -8.4      0.000      0.000
REMARK  2 active torsions:
REMARK  status: ('A' for Active; 'I' for Inactive)
REMARK    1  A    between atoms: O1_2  and  C2_3 
REMARK    2  A    between atoms: N1_13  and  C11_14 
ROOT
HETATM    1  C2  UNL     1      27.422  -0.473  53.897  1.00  0.00     0.059 C 
HETATM    2  C3  UNL     1      28.380   0.268  53.406  1.00  0.00     0.004 C 
HETATM    3  C4  UNL     1      28.663   1.207  54.323  1.00  0.00     0.014 C 
HETATM    4  C5  UNL     1      27.797   2.083  53.700  1.00  0.00     0.196 C 
HETATM    5  O2  UNL     1      28.055   2.405  52.262  1.00  0.00    -0.381 OA
HETATM    6  C6  UNL     1      26.842   2.575  51.492  1.00  0.00     0.055 A 
HETATM    7  C7  UNL     1      25.541   2.186  51.413  1.00  0.00     0.135 A 
HETATM    8  C8  UNL     1      25.016   1.257  52.388  1.00  0.00     0.199 A 
HETATM    9  C9  UNL     1      24.642   0.392  53.366  1.00  0.00     0.405 A 
HETATM   10  C10 UNL     1      24.944  -0.366  54.492  1.00  0.00     0.093 A 
HETATM   11  N1  UNL     1      23.649  -0.438  54.020  1.00  0.00    -0.202 N 
HETATM   12  C11 UNL     1      23.044   0.130  53.008  1.00  0.00     0.499 A 
HETATM   13  N2  UNL     1      23.761   0.936  52.262  1.00  0.00     0.179 N 
HETATM   14  N3  UNL     1      22.481   0.786  51.897  1.00  0.00     0.170 N 
HETATM   15  C12 UNL     1      22.642   1.710  50.758  1.00  0.00     0.236 A 
HETATM   16  C13 UNL     1      23.511   2.462  50.161  1.00  0.00     0.006 A 
HETATM   17  C14 UNL     1      24.869   2.862  50.245  1.00  0.00     0.026 A 
HETATM   18  C15 UNL     1      26.097   3.162  50.402  1.00  0.00     0.033 A 
HETATM   19  C16 UNL     1      26.437  -0.117  54.851  1.00  0.00     0.096 C 
HETATM   20  H9  UNL     1      21.691   0.220  52.266  1.00  0.00     0.327 HD
ENDROOT
BRANCH   1  21
HETATM   21  O1  UNL     1      27.957  -1.480  53.060  1.00  0.00    -0.359 OA
HETATM   22  C1  UNL     1      27.038  -2.301  52.319  1.00  0.00     0.209 C 
ENDBRANCH   1  21
TORSDOF 2
ENDMDL
MODEL 2
REMARK VINA RESULT:      -8.4      1.885      2.972
REMARK  2 active torsions:
REMARK  status: ('A' for Active; 'I' for Inactive)
REMARK    1  A    between atoms: O1_2  and  C2_3 
REMARK    2  A    between atoms: N1_13  and  C11_14 
ROOT
HETATM    1  C2  UNL     1      26.179  -0.603  53.197  1.00  0.00     0.059 C 
HETATM    2  C3  UNL     1      26.385   0.188  52.176  1.00  0.00     0.004 C 
HETATM    3  C4  UNL     1      26.751   1.381  52.669  1.00  0.00     0.014 C 
HETATM    4  C5  UNL     1      25.440   1.811  52.615  1.00  0.00     0.196 C 
HETATM    5  O2  UNL     1      24.756   1.780  51.286  1.00  0.00    -0.381 OA
HETATM    6  C6  UNL     1      23.356   1.428  51.374  1.00  0.00     0.055 A 
HETATM    7  C7  UNL     1      22.457   0.723  52.114  1.00  0.00     0.135 A 
HETATM    8  C8  UNL     1      22.909  -0.002  53.279  1.00  0.00     0.199 A 
HETATM    9  C9  UNL     1      23.455  -0.632  54.353  1.00  0.00     0.405 A 
HETATM   10  C10 UNL     1      24.559  -0.953  55.135  1.00  0.00     0.093 A 
HETATM   11  N1  UNL     1      23.342  -1.469  55.531  1.00  0.00    -0.202 N 
HETATM   12  C11 UNL     1      22.134  -1.367  55.035  1.00  0.00     0.499 A 
HETATM   13  N2  UNL     1      21.996  -0.646  53.949  1.00  0.00     0.179 N 
HETATM   14  N3  UNL     1      20.876  -1.201  54.428  1.00  0.00     0.170 N 
HETATM   15  C12 UNL     1      20.060  -0.615  53.348  1.00  0.00     0.236 A 
HETATM   16  C13 UNL     1      20.136   0.135  52.294  1.00  0.00     0.006 A 
HETATM   17  C14 UNL     1      21.077   0.865  51.524  1.00  0.00     0.026 A 
HETATM   18  C15 UNL     1      21.993   1.490  50.898  1.00  0.00     0.033 A 
HETATM   19  C16 UNL     1      25.804  -0.255  54.517  1.00  0.00     0.096 C 
HETATM   20  H9  UNL     1      20.671  -1.821  55.237  1.00  0.00     0.327 HD
ENDROOT
BRANCH   1  21
HETATM   21  O1  UNL     1      26.506  -1.637  52.287  1.00  0.00    -0.359 OA
HETATM   22  C1  UNL     1      27.562  -2.544  52.649  1.00  0.00     0.209 C 
ENDBRANCH   1  21
TORSDOF 2
ENDMDL
MODEL 3
REMARK VINA RESULT:      -8.3      1.612      4.014
REMARK  2 active torsions:
REMARK  status: ('A' for Active; 'I' for Inactive)
REMARK    1  A    between atoms: O1_2  and  C2_3 
REMARK    2  A    between atoms: N1_13  and  C11_14 
ROOT
HETATM    1  C2  UNL     1      26.872   1.248  52.831  1.00  0.00     0.059 C 
HETATM    2  C3  UNL     1      27.201   0.308  53.678  1.00  0.00     0.004 C 
HETATM    3  C4  UNL     1      27.508  -0.782  52.958  1.00  0.00     0.014 C 
HETATM    4  C5  UNL     1      26.214  -1.244  53.097  1.00  0.00     0.196 C 
HETATM    5  O2  UNL     1      25.695  -1.441  54.485  1.00  0.00    -0.381 OA
HETATM    6  C6  UNL     1      24.294  -1.110  54.621  1.00  0.00     0.055 A 
HETATM    7  C7  UNL     1      23.311  -0.316  54.118  1.00  0.00     0.135 A 
HETATM    8  C8  UNL     1      23.617   0.598  53.040  1.00  0.00     0.199 A 
HETATM    9  C9  UNL     1      24.028   1.403  52.026  1.00  0.00     0.405 A 
HETATM   10  C10 UNL     1      25.029   1.869  51.180  1.00  0.00     0.093 A 
HETATM   11  N1  UNL     1      23.772   2.416  51.020  1.00  0.00    -0.202 N 
HETATM   12  C11 UNL     1      22.634   2.209  51.633  1.00  0.00     0.499 A 
HETATM   13  N2  UNL     1      22.629   1.320  52.596  1.00  0.00     0.179 N 
HETATM   14  N3  UNL     1      21.458   1.920  52.350  1.00  0.00     0.170 N 
HETATM   15  C12 UNL     1      20.780   1.151  53.410  1.00  0.00     0.236 A 
HETATM   16  C13 UNL     1      20.984   0.243  54.311  1.00  0.00     0.006 A 
HETATM   17  C14 UNL     1      22.013  -0.580  54.836  1.00  0.00     0.026 A 
HETATM   18  C15 UNL     1      22.999  -1.278  55.240  1.00  0.00     0.033 A 
HETATM   19  C16 UNL     1      26.342   1.108  51.525  1.00  0.00     0.096 C 
HETATM   20  H9  UNL     1      21.156   2.658  51.683  1.00  0.00     0.327 HD
ENDROOT
BRANCH   1  21
HETATM   21  O1  UNL     1      27.305   2.129  53.851  1.00  0.00    -0.359 OA
HETATM   22  C1  UNL     1      28.691   2.510  53.868  1.00  0.00     0.209 C 
ENDBRANCH   1  21
TORSDOF 2
ENDMDL
MODEL 4
REMARK VINA RESULT:      -7.8      2.862      5.452
REMARK  2 active torsions:
REMARK  status: ('A' for Active; 'I' for Inactive)
REMARK    1  A    between atoms: O1_2  and  C2_3 
REMARK    2  A    between atoms: N1_13  and  C11_14 
ROOT
HETATM    1  C2  UNL     1      20.698   1.203  51.967  1.00  0.00     0.059 C 
HETATM    2  C3  UNL     1      20.755   0.001  52.479  1.00  0.00     0.004 C 
HETATM    3  C4  UNL     1      20.456   0.111  53.782  1.00  0.00     0.014 C 
HETATM    4  C5  UNL     1      21.799   0.201  54.088  1.00  0.00     0.196 C 
HETATM    5  O2  UNL     1      22.682  -0.929  53.663  1.00  0.00    -0.381 OA
HETATM    6  C6  UNL     1      23.998  -0.496  53.246  1.00  0.00     0.055 A 
HETATM    7  C7  UNL     1      24.675   0.547  52.695  1.00  0.00     0.135 A 
HETATM    8  C8  UNL     1      23.958   1.748  52.332  1.00  0.00     0.199 A 
HETATM    9  C9  UNL     1      23.174   2.820  52.044  1.00  0.00     0.405 A 
HETATM   10  C10 UNL     1      21.927   3.436  52.018  1.00  0.00     0.093 A 
HETATM   11  N1  UNL     1      22.995   4.166  51.536  1.00  0.00    -0.202 N 
HETATM   12  C11 UNL     1      24.270   3.896  51.418  1.00  0.00     0.499 A 
HETATM   13  N2  UNL     1      24.667   2.713  51.821  1.00  0.00     0.179 N 
HETATM   14  N3  UNL     1      25.621   3.513  51.330  1.00  0.00     0.170 N 
HETATM   15  C12 UNL     1      26.666   2.496  51.554  1.00  0.00     0.236 A 
HETATM   16  C13 UNL     1      26.850   1.297  52.008  1.00  0.00     0.006 A 
HETATM   17  C14 UNL     1      26.140   0.210  52.579  1.00  0.00     0.026 A 
HETATM   18  C15 UNL     1      25.418  -0.710  53.084  1.00  0.00     0.033 A 
HETATM   19  C16 UNL     1      20.890   2.445  52.619  1.00  0.00     0.096 C 
HETATM   20  H9  UNL     1      25.618   4.472  50.928  1.00  0.00     0.327 HD
ENDROOT
BRANCH   1  21
HETATM   21  O1  UNL     1      20.403   0.526  50.759  1.00  0.00    -0.359 OA
HETATM   22  C1  UNL     1      21.272   0.747  49.634  1.00  0.00     0.209 C 
ENDBRANCH   1  21
TORSDOF 2
ENDMDL
MODEL 5
REMARK VINA RESULT:      -7.7      1.739      4.706
REMARK  2 active torsions:
REMARK  status: ('A' for Active; 'I' for Inactive)
REMARK    1  A    between atoms: O1_2  and  C2_3 
REMARK    2  A    between atoms: N1_13  and  C11_14 
ROOT
HETATM    1  C2  UNL     1      24.275   4.277  50.173  1.00  0.00     0.059 C 
HETATM    2  C3  UNL     1      25.546   4.526  50.357  1.00  0.00     0.004 C 
HETATM    3  C4  UNL     1      26.197   4.084  49.270  1.00  0.00     0.014 C 
HETATM    4  C5  UNL     1      26.440   2.879  49.899  1.00  0.00     0.196 C 
HETATM    5  O2  UNL     1      27.182   2.914  51.197  1.00  0.00    -0.381 OA
HETATM    6  C6  UNL     1      26.721   1.922  52.143  1.00  0.00     0.055 A 
HETATM    7  C7  UNL     1      25.628   1.205  52.520  1.00  0.00     0.135 A 
HETATM    8  C8  UNL     1      24.380   1.388  51.815  1.00  0.00     0.199 A 
HETATM    9  C9  UNL     1      23.273   1.641  51.069  1.00  0.00     0.405 A 
HETATM   10  C10 UNL     1      22.639   2.326  50.037  1.00  0.00     0.093 A 
HETATM   11  N1  UNL     1      21.877   1.420  50.746  1.00  0.00    -0.202 N 
HETATM   12  C11 UNL     1      22.152   0.628  51.752  1.00  0.00     0.499 A 
HETATM   13  N2  UNL     1      23.377   0.663  52.219  1.00  0.00     0.179 N 
HETATM   14  N3  UNL     1      22.541  -0.184  52.833  1.00  0.00     0.170 N 
HETATM   15  C12 UNL     1      23.594  -0.630  53.766  1.00  0.00     0.236 A 
HETATM   16  C13 UNL     1      24.840  -0.453  54.069  1.00  0.00     0.006 A 
HETATM   17  C14 UNL     1      25.976   0.299  53.674  1.00  0.00     0.026 A 
HETATM   18  C15 UNL     1      26.939   1.016  53.248  1.00  0.00     0.033 A 
HETATM   19  C16 UNL     1      23.685   3.268  49.374  1.00  0.00     0.096 C 
HETATM   20  H9  UNL     1      21.536  -0.417  52.709  1.00  0.00     0.327 HD
ENDROOT
BRANCH   1  21
HETATM   21  O1  UNL     1      24.075   5.376  51.042  1.00  0.00    -0.359 OA
HETATM   22  C1  UNL     1      23.423   5.130  52.300  1.00  0.00     0.209 C 
ENDBRANCH   1  21
TORSDOF 2
ENDMDL
MODEL 6
REMARK VINA RESULT:      -7.6      2.487      5.107
REMARK  2 active torsions:
REMARK  status: ('A' for Active; 'I' for Inactive)
REMARK    1  A    between atoms: O1_2  and  C2_3 
REMARK    2  A    between atoms: N1_13  and  C11_14 
ROOT
HETATM    1  C2  UNL     1      24.284   2.543  52.188  1.00  0.00     0.059 C 
HETATM    2  C3  UNL     1      25.009   1.980  53.119  1.00  0.00     0.004 C 
HETATM    3  C4  UNL     1      25.873   1.158  52.504  1.00  0.00     0.014 C 
HETATM    4  C5  UNL     1      25.001   0.102  52.679  1.00  0.00     0.196 C 
HETATM    5  O2  UNL     1      24.589  -0.229  54.079  1.00  0.00    -0.381 OA
HETATM    6  C6  UNL     1      23.215  -0.667  54.178  1.00  0.00     0.055 A 
HETATM    7  C7  UNL     1      21.989  -0.543  53.600  1.00  0.00     0.135 A 
HETATM    8  C8  UNL     1      21.832   0.311  52.444  1.00  0.00     0.199 A 
HETATM    9  C9  UNL     1      21.818   1.132  51.361  1.00  0.00     0.405 A 
HETATM   10  C10 UNL     1      22.473   1.985  50.480  1.00  0.00     0.093 A 
HETATM   11  N1  UNL     1      21.125   1.782  50.266  1.00  0.00    -0.202 N 
HETATM   12  C11 UNL     1      20.229   1.061  50.891  1.00  0.00     0.499 A 
HETATM   13  N2  UNL     1      20.637   0.376  51.932  1.00  0.00     0.179 N 
HETATM   14  N3  UNL     1      19.339   0.258  51.627  1.00  0.00     0.170 N 
HETATM   15  C12 UNL     1      19.104  -0.669  52.751  1.00  0.00     0.236 A 
HETATM   16  C13 UNL     1      19.703  -1.265  53.732  1.00  0.00     0.006 A 
HETATM   17  C14 UNL     1      20.981  -1.389  54.334  1.00  0.00     0.026 A 
HETATM   18  C15 UNL     1      22.164  -1.437  54.804  1.00  0.00     0.033 A 
HETATM   19  C16 UNL     1      23.971   2.048  50.899  1.00  0.00     0.096 C 
HETATM   20  H9  UNL     1      18.733   0.676  50.893  1.00  0.00     0.327 HD
ENDROOT
BRANCH   1  21
HETATM   21  O1  UNL     1      24.144   3.596  53.124  1.00  0.00    -0.359 OA
HETATM   22  C1  UNL     1      23.385   4.752  52.730  1.00  0.00     0.209 C 
ENDBRANCH   1  21
TORSDOF 2
ENDMDL
MODEL 7
REMARK VINA RESULT:      -7.6      2.901      5.875
REMARK  2 active torsions:
REMARK  status: ('A' for Active; 'I' for Inactive)
REMARK    1  A    between atoms: O1_2  and  C2_3 
REMARK    2  A    between atoms: N1_13  and  C11_14 
ROOT
HETATM    1  C2  UNL     1      22.657   2.437  50.177  1.00  0.00     0.059 C 
HETATM    2  C3  UNL     1      21.374   2.597  50.367  1.00  0.00     0.004 C 
HETATM    3  C4  UNL     1      21.203   3.814  50.905  1.00  0.00     0.014 C 
HETATM    4  C5  UNL     1      21.223   3.263  52.170  1.00  0.00     0.196 C 
HETATM    5  O2  UNL     1      20.209   2.208  52.481  1.00  0.00    -0.381 OA
HETATM    6  C6  UNL     1      20.718   1.167  53.346  1.00  0.00     0.055 A 
HETATM    7  C7  UNL     1      21.854   0.507  53.701  1.00  0.00     0.135 A 
HETATM    8  C8  UNL     1      23.106   0.858  53.069  1.00  0.00     0.199 A 
HETATM    9  C9  UNL     1      24.217   1.286  52.414  1.00  0.00     0.405 A 
HETATM   10  C10 UNL     1      24.826   2.119  51.481  1.00  0.00     0.093 A 
HETATM   11  N1  UNL     1      25.641   1.226  52.147  1.00  0.00    -0.202 N 
HETATM   12  C11 UNL     1      25.400   0.322  53.063  1.00  0.00     0.499 A 
HETATM   13  N2  UNL     1      24.157   0.198  53.463  1.00  0.00     0.179 N 
HETATM   14  N3  UNL     1      25.043  -0.622  54.043  1.00  0.00     0.170 N 
HETATM   15  C12 UNL     1      23.999  -1.247  54.878  1.00  0.00     0.236 A 
HETATM   16  C13 UNL     1      22.730  -1.207  55.136  1.00  0.00     0.006 A 
HETATM   17  C14 UNL     1      21.548  -0.520  54.760  1.00  0.00     0.026 A 
HETATM   18  C15 UNL     1      20.542   0.152  54.359  1.00  0.00     0.033 A 
HETATM   19  C16 UNL     1      23.731   3.042  50.875  1.00  0.00     0.096 C 
HETATM   20  H9  UNL     1      26.065  -0.771  53.929  1.00  0.00     0.327 HD
ENDROOT
BRANCH   1  21
HETATM   21  O1  UNL     1      22.256   1.554  49.146  1.00  0.00    -0.359 OA
HETATM   22  C1  UNL     1      22.344   2.019  47.788  1.00  0.00     0.209 C 
ENDBRANCH   1  21
TORSDOF 2
ENDMDL
MODEL 8
REMARK VINA RESULT:      -7.5      3.677      6.649
REMARK  2 active torsions:
REMARK  status: ('A' for Active; 'I' for Inactive)
REMARK    1  A    between atoms: O1_2  and  C2_3 
REMARK    2  A    between atoms: N1_13  and  C11_14 
ROOT
HETATM    1  C2  UNL     1      19.362   2.252  50.179  1.00  0.00     0.059 C 
HETATM    2  C3  UNL     1      20.472   2.742  49.690  1.00  0.00     0.004 C 
HETATM    3  C4  UNL     1      20.747   2.054  48.571  1.00  0.00     0.014 C 
HETATM    4  C5  UNL     1      21.556   1.198  49.291  1.00  0.00     0.196 C 
HETATM    5  O2  UNL     1      22.699   1.797  50.047  1.00  0.00    -0.381 OA
HETATM    6  C6  UNL     1      22.954   1.139  51.309  1.00  0.00     0.055 A 
HETATM    7  C7  UNL     1      22.354   0.440  52.311  1.00  0.00     0.135 A 
HETATM    8  C8  UNL     1      20.936   0.171  52.241  1.00  0.00     0.199 A 
HETATM    9  C9  UNL     1      19.605  -0.025  52.053  1.00  0.00     0.405 A 
HETATM   10  C10 UNL     1      18.450   0.149  51.297  1.00  0.00     0.093 A 
HETATM   11  N1  UNL     1      18.324  -0.558  52.475  1.00  0.00    -0.202 N 
HETATM   12  C11 UNL     1      19.186  -0.896  53.401  1.00  0.00     0.499 A 
HETATM   13  N2  UNL     1      20.428  -0.513  53.225  1.00  0.00     0.179 N 
HETATM   14  N3  UNL     1      20.184  -1.210  54.342  1.00  0.00     0.170 N 
HETATM   15  C12 UNL     1      21.596  -1.135  54.762  1.00  0.00     0.236 A 
HETATM   16  C13 UNL     1      22.751  -0.673  54.402  1.00  0.00     0.006 A 
HETATM   17  C14 UNL     1      23.371   0.059  53.357  1.00  0.00     0.026 A 
HETATM   18  C15 UNL     1      23.838   0.721  52.373  1.00  0.00     0.033 A 
HETATM   19  C16 UNL     1      18.831   0.950  50.018  1.00  0.00     0.096 C 
HETATM   20  H9  UNL     1      19.325  -1.623  54.757  1.00  0.00     0.327 HD
ENDROOT
BRANCH   1  21
HETATM   21  O1  UNL     1      19.204   3.541  50.744  1.00  0.00    -0.359 OA
HETATM   22  C1  UNL     1      20.145   3.957  51.748  1.00  0.00     0.209 C 
ENDBRANCH   1  21
TORSDOF 2
ENDMDL
MODEL 9
REMARK VINA RESULT:      -7.0      2.967      5.551
REMARK  2 active torsions:
REMARK  status: ('A' for Active; 'I' for Inactive)
REMARK    1  A    between atoms: O1_2  and  C2_3 
REMARK    2  A    between atoms: N1_13  and  C11_14 
ROOT
HETATM    1  C2  UNL     1      23.779   3.926  49.865  1.00  0.00     0.059 C 
HETATM    2  C3  UNL     1      22.567   4.414  49.918  1.00  0.00     0.004 C 
HETATM    3  C4  UNL     1      22.613   5.503  50.701  1.00  0.00     0.014 C 
HETATM    4  C5  UNL     1      22.251   4.739  51.792  1.00  0.00     0.196 C 
HETATM    5  O2  UNL     1      20.961   3.986  51.712  1.00  0.00    -0.381 OA
HETATM    6  C6  UNL     1      21.014   2.697  52.366  1.00  0.00     0.055 A 
HETATM    7  C7  UNL     1      21.855   1.681  52.700  1.00  0.00     0.135 A 
HETATM    8  C8  UNL     1      23.251   1.766  52.338  1.00  0.00     0.199 A 
HETATM    9  C9  UNL     1      24.538   1.970  51.952  1.00  0.00     0.405 A 
HETATM   10  C10 UNL     1      25.506   2.750  51.328  1.00  0.00     0.093 A 
HETATM   11  N1  UNL     1      25.923   1.550  51.866  1.00  0.00    -0.202 N 
HETATM   12  C11 UNL     1      25.290   0.599  52.505  1.00  0.00     0.499 A 
HETATM   13  N2  UNL     1      24.004   0.767  52.699  1.00  0.00     0.179 N 
HETATM   14  N3  UNL     1      24.523  -0.369  53.180  1.00  0.00     0.170 N 
HETATM   15  C12 UNL     1      23.216  -0.810  53.701  1.00  0.00     0.236 A 
HETATM   16  C13 UNL     1      21.974  -0.453  53.794  1.00  0.00     0.006 A 
HETATM   17  C14 UNL     1      21.100   0.606  53.440  1.00  0.00     0.026 A 
HETATM   18  C15 UNL     1      20.395   1.604  53.080  1.00  0.00     0.033 A 
HETATM   19  C16 UNL     1      24.818   4.050  50.819  1.00  0.00     0.096 C 
HETATM   20  H9  UNL     1      25.477  -0.784  53.168  1.00  0.00     0.327 HD
ENDROOT
BRANCH   1  21
HETATM   21  O1  UNL     1      23.370   3.410  48.612  1.00  0.00    -0.359 OA
HETATM   22  C1  UNL     1      22.488   2.274  48.607  1.00  0.00     0.209 C 
ENDBRANCH   1  21
TORSDOF 2
ENDMDL
