MODEL 1
REMARK VINA RESULT:      -6.9      0.000      0.000
REMARK  10 active torsions:
REMARK  status: ('A' for Active; 'I' for Inactive)
REMARK    1  A    between atoms: C6_6  and  N1_7 
REMARK    2  A    between atoms: N1_7  and  C7_8 
REMARK    3  A    between atoms: C11_14  and  O1_15 
REMARK    4  A    between atoms: O1_15  and  C12_16 
REMARK    5  A    between atoms: C12_16  and  C13_17 
REMARK    6  A    between atoms: C13_17  and  O2_18 
REMARK    7  A    between atoms: C15_20  and  O3_21 
REMARK    8  A    between atoms: O3_21  and  C16_22 
REMARK    9  A    between atoms: C16_22  and  C17_23 
REMARK   10  A    between atoms: C17_23  and  O4_24 
ROOT
HETATM    1  C1  UNL     1      30.156  -0.982  53.805  1.00  0.00     0.013 C 
HETATM    2  C2  UNL     1      29.129  -0.322  53.849  1.00  0.00    -0.105 C 
HETATM    3  C3  UNL     1      27.896   0.468  53.886  1.00  0.00     0.111 A 
HETATM    4  C4  UNL     1      28.280   1.907  53.819  1.00  0.00    -0.004 A 
HETATM    5  C5  UNL     1      27.715   2.429  52.739  1.00  0.00     0.027 A 
HETATM    6  C6  UNL     1      26.944   1.388  52.048  1.00  0.00     0.031 A 
HETATM    7  C21 UNL     1      27.047   0.248  52.710  1.00  0.00     0.023 A 
ENDROOT
BRANCH   6   8
HETATM    8  N1  UNL     1      26.229   1.669  50.850  1.00  0.00    -0.340 N 
HETATM    9  H5  UNL     1      26.416   0.989  50.097  1.00  0.00     0.167 HD
BRANCH   8  10
HETATM   10  C7  UNL     1      25.383   2.807  50.841  1.00  0.00     0.142 A 
HETATM   11  N2  UNL     1      25.862   3.969  50.361  1.00  0.00    -0.224 NA
HETATM   12  C8  UNL     1      25.120   5.091  50.320  1.00  0.00     0.236 A 
HETATM   13  N3  UNL     1      23.851   5.098  50.763  1.00  0.00    -0.241 NA
HETATM   14  C9  UNL     1      23.307   3.973  51.257  1.00  0.00     0.075 A 
HETATM   15  C10 UNL     1      22.006   3.958  51.717  1.00  0.00     0.072 A 
HETATM   16  C20 UNL     1      24.100   2.848  51.281  1.00  0.00     0.042 A 
HETATM   17  C11 UNL     1      21.481   2.765  52.223  1.00  0.00     0.104 A 
HETATM   18  C15 UNL     1      22.245   1.592  52.269  1.00  0.00     0.103 A 
HETATM   19  C19 UNL     1      23.528   1.707  51.787  1.00  0.00     0.057 A 
BRANCH  17  20
HETATM   20  O1  UNL     1      20.168   2.837  52.663  1.00  0.00    -0.346 OA
BRANCH  20  21
HETATM   21  C12 UNL     1      19.168   3.345  51.809  1.00  0.00     0.201 C 
BRANCH  21  22
HETATM   22  C13 UNL     1      18.289   2.230  51.271  1.00  0.00     0.193 C 
BRANCH  22  23
HETATM   23  O2  UNL     1      18.426   1.093  52.028  1.00  0.00    -0.394 OA
HETATM   24  C14 UNL     1      18.321  -0.075  51.314  1.00  0.00     0.201 C 
ENDBRANCH  22  23
ENDBRANCH  21  22
ENDBRANCH  20  21
ENDBRANCH  17  20
BRANCH  18  25
HETATM   25  O3  UNL     1      21.544   0.573  52.792  1.00  0.00    -0.346 OA
BRANCH  25  26
HETATM   26  C16 UNL     1      21.847  -0.719  53.155  1.00  0.00     0.201 C 
BRANCH  26  27
HETATM   27  C17 UNL     1      20.997  -1.160  54.319  1.00  0.00     0.193 C 
BRANCH  27  28
HETATM   28  O4  UNL     1      21.832  -1.908  55.180  1.00  0.00    -0.394 OA
HETATM   29  C18 UNL     1      23.074  -1.306  55.306  1.00  0.00     0.201 C 
ENDBRANCH  27  28
ENDBRANCH  26  27
ENDBRANCH  25  26
ENDBRANCH  18  25
ENDBRANCH   8  10
ENDBRANCH   6   8
TORSDOF 10
ENDMDL
MODEL 2
REMARK VINA RESULT:      -6.8      2.286      5.412
REMARK  10 active torsions:
REMARK  status: ('A' for Active; 'I' for Inactive)
REMARK    1  A    between atoms: C6_6  and  N1_7 
REMARK    2  A    between atoms: N1_7  and  C7_8 
REMARK    3  A    between atoms: C11_14  and  O1_15 
REMARK    4  A    between atoms: O1_15  and  C12_16 
REMARK    5  A    between atoms: C12_16  and  C13_17 
REMARK    6  A    between atoms: C13_17  and  O2_18 
REMARK    7  A    between atoms: C15_20  and  O3_21 
REMARK    8  A    between atoms: O3_21  and  C16_22 
REMARK    9  A    between atoms: C16_22  and  C17_23 
REMARK   10  A    between atoms: C17_23  and  O4_24 
ROOT
HETATM    1  C1  UNL     1      26.092   8.263  50.560  1.00  0.00     0.013 C 
HETATM    2  C2  UNL     1      26.141   7.390  49.706  1.00  0.00    -0.105 C 
HETATM    3  C3  UNL     1      26.201   6.334  48.694  1.00  0.00     0.111 A 
HETATM    4  C4  UNL     1      27.637   6.078  48.390  1.00  0.00    -0.004 A 
HETATM    5  C5  UNL     1      27.894   4.809  48.674  1.00  0.00     0.027 A 
HETATM    6  C6  UNL     1      26.668   4.169  49.170  1.00  0.00     0.031 A 
HETATM    7  C21 UNL     1      25.683   5.051  49.182  1.00  0.00     0.023 A 
ENDROOT
BRANCH   6   8
HETATM    8  N1  UNL     1      26.652   2.799  49.552  1.00  0.00    -0.340 N 
HETATM    9  H5  UNL     1      26.793   2.155  48.759  1.00  0.00     0.167 HD
BRANCH   8  10
HETATM   10  C7  UNL     1      26.450   2.501  50.924  1.00  0.00     0.142 A 
HETATM   11  N2  UNL     1      27.491   2.597  51.770  1.00  0.00    -0.224 NA
HETATM   12  C8  UNL     1      27.378   2.330  53.084  1.00  0.00     0.236 A 
HETATM   13  N3  UNL     1      26.203   1.951  53.614  1.00  0.00    -0.241 NA
HETATM   14  C9  UNL     1      25.120   1.833  52.828  1.00  0.00     0.075 A 
HETATM   15  C10 UNL     1      23.904   1.446  53.352  1.00  0.00     0.072 A 
HETATM   16  C20 UNL     1      25.278   2.116  51.490  1.00  0.00     0.042 A 
HETATM   17  C11 UNL     1      22.802   1.336  52.496  1.00  0.00     0.104 A 
HETATM   18  C15 UNL     1      22.910   1.611  51.128  1.00  0.00     0.103 A 
HETATM   19  C19 UNL     1      24.162   1.991  50.702  1.00  0.00     0.057 A 
BRANCH  17  20
HETATM   20  O1  UNL     1      21.620   0.941  53.104  1.00  0.00    -0.346 OA
BRANCH  20  21
HETATM   21  C12 UNL     1      21.298  -0.429  53.189  1.00  0.00     0.201 C 
BRANCH  21  22
HETATM   22  C13 UNL     1      21.016  -0.837  54.625  1.00  0.00     0.193 C 
BRANCH  22  23
HETATM   23  O2  UNL     1      21.869  -1.835  55.025  1.00  0.00    -0.394 OA
HETATM   24  C14 UNL     1      23.081  -1.389  55.489  1.00  0.00     0.201 C 
ENDBRANCH  22  23
ENDBRANCH  21  22
ENDBRANCH  20  21
ENDBRANCH  17  20
BRANCH  18  25
HETATM   25  O3  UNL     1      21.735   1.440  50.501  1.00  0.00    -0.346 OA
BRANCH  25  26
HETATM   26  C16 UNL     1      21.356   0.901  49.293  1.00  0.00     0.201 C 
BRANCH  26  27
HETATM   27  C17 UNL     1      21.640   1.859  48.167  1.00  0.00     0.193 C 
BRANCH  27  28
HETATM   28  O4  UNL     1      21.132   3.119  48.557  1.00  0.00    -0.394 OA
HETATM   29  C18 UNL     1      22.011   4.133  48.208  1.00  0.00     0.201 C 
ENDBRANCH  27  28
ENDBRANCH  26  27
ENDBRANCH  25  26
ENDBRANCH  18  25
ENDBRANCH   8  10
ENDBRANCH   6   8
TORSDOF 10
ENDMDL
MODEL 3
REMARK VINA RESULT:      -6.8      2.529      4.595
REMARK  10 active torsions:
REMARK  status: ('A' for Active; 'I' for Inactive)
REMARK    1  A    between atoms: C6_6  and  N1_7 
REMARK    2  A    between atoms: N1_7  and  C7_8 
REMARK    3  A    between atoms: C11_14  and  O1_15 
REMARK    4  A    between atoms: O1_15  and  C12_16 
REMARK    5  A    between atoms: C12_16  and  C13_17 
REMARK    6  A    between atoms: C13_17  and  O2_18 
REMARK    7  A    between atoms: C15_20  and  O3_21 
REMARK    8  A    between atoms: O3_21  and  C16_22 
REMARK    9  A    between atoms: C16_22  and  C17_23 
REMARK   10  A    between atoms: C17_23  and  O4_24 
ROOT
HETATM    1  C1  UNL     1      30.221  -0.133  53.322  1.00  0.00     0.013 C 
HETATM    2  C2  UNL     1      29.066  -0.412  53.607  1.00  0.00    -0.105 C 
HETATM    3  C3  UNL     1      27.678  -0.739  53.937  1.00  0.00     0.111 A 
HETATM    4  C4  UNL     1      27.193   0.279  54.912  1.00  0.00    -0.004 A 
HETATM    5  C5  UNL     1      26.150   0.895  54.372  1.00  0.00     0.027 A 
HETATM    6  C6  UNL     1      25.893   0.330  53.041  1.00  0.00     0.031 A 
HETATM    7  C21 UNL     1      26.778  -0.619  52.785  1.00  0.00     0.023 A 
ENDROOT
BRANCH   6   8
HETATM    8  N1  UNL     1      24.826   0.805  52.229  1.00  0.00    -0.340 N 
HETATM    9  H5  UNL     1      25.147   1.362  51.422  1.00  0.00     0.167 HD
BRANCH   8  10
HETATM   10  C7  UNL     1      23.504   0.468  52.617  1.00  0.00     0.142 A 
HETATM   11  N2  UNL     1      23.277  -0.734  53.178  1.00  0.00    -0.224 NA
HETATM   12  C8  UNL     1      22.051  -1.125  53.571  1.00  0.00     0.236 A 
HETATM   13  N3  UNL     1      20.986  -0.320  53.418  1.00  0.00    -0.241 NA
HETATM   14  C9  UNL     1      21.138   0.896  52.865  1.00  0.00     0.075 A 
HETATM   15  C10 UNL     1      20.058   1.738  52.699  1.00  0.00     0.072 A 
HETATM   16  C20 UNL     1      22.408   1.257  52.477  1.00  0.00     0.042 A 
HETATM   17  C11 UNL     1      20.262   2.994  52.117  1.00  0.00     0.104 A 
HETATM   18  C15 UNL     1      21.534   3.410  51.705  1.00  0.00     0.103 A 
HETATM   19  C19 UNL     1      22.546   2.501  51.914  1.00  0.00     0.057 A 
BRANCH  17  20
HETATM   20  O1  UNL     1      19.125   3.777  51.987  1.00  0.00    -0.346 OA
BRANCH  20  21
HETATM   21  C12 UNL     1      17.933   3.206  51.495  1.00  0.00     0.201 C 
BRANCH  21  22
HETATM   22  C13 UNL     1      16.803   4.221  51.486  1.00  0.00     0.193 C 
BRANCH  22  23
HETATM   23  O2  UNL     1      16.328   4.433  52.756  1.00  0.00    -0.394 OA
HETATM   24  C14 UNL     1      15.084   3.902  52.988  1.00  0.00     0.201 C 
ENDBRANCH  22  23
ENDBRANCH  21  22
ENDBRANCH  20  21
ENDBRANCH  17  20
BRANCH  18  25
HETATM   25  O3  UNL     1      21.497   4.643  51.176  1.00  0.00    -0.346 OA
BRANCH  25  26
HETATM   26  C16 UNL     1      22.342   5.373  50.372  1.00  0.00     0.201 C 
BRANCH  26  27
HETATM   27  C17 UNL     1      22.485   6.782  50.885  1.00  0.00     0.193 C 
BRANCH  27  28
HETATM   28  O4  UNL     1      23.854   6.977  51.179  1.00  0.00    -0.394 OA
HETATM   29  C18 UNL     1      24.635   6.031  50.533  1.00  0.00     0.201 C 
ENDBRANCH  27  28
ENDBRANCH  26  27
ENDBRANCH  25  26
ENDBRANCH  18  25
ENDBRANCH   8  10
ENDBRANCH   6   8
TORSDOF 10
ENDMDL
MODEL 4
REMARK VINA RESULT:      -6.7      2.434      5.130
REMARK  10 active torsions:
REMARK  status: ('A' for Active; 'I' for Inactive)
REMARK    1  A    between atoms: C6_6  and  N1_7 
REMARK    2  A    between atoms: N1_7  and  C7_8 
REMARK    3  A    between atoms: C11_14  and  O1_15 
REMARK    4  A    between atoms: O1_15  and  C12_16 
REMARK    5  A    between atoms: C12_16  and  C13_17 
REMARK    6  A    between atoms: C13_17  and  O2_18 
REMARK    7  A    between atoms: C15_20  and  O3_21 
REMARK    8  A    between atoms: O3_21  and  C16_22 
REMARK    9  A    between atoms: C16_22  and  C17_23 
REMARK   10  A    between atoms: C17_23  and  O4_24 
ROOT
HETATM    1  C1  UNL     1      26.679   6.597  48.796  1.00  0.00     0.013 C 
HETATM    2  C2  UNL     1      26.146   5.520  49.012  1.00  0.00    -0.105 C 
HETATM    3  C3  UNL     1      25.507   4.231  49.285  1.00  0.00     0.111 A 
HETATM    4  C4  UNL     1      26.586   3.241  49.566  1.00  0.00    -0.004 A 
HETATM    5  C5  UNL     1      26.395   2.766  50.789  1.00  0.00     0.027 A 
HETATM    6  C6  UNL     1      25.205   3.401  51.371  1.00  0.00     0.031 A 
HETATM    7  C21 UNL     1      24.687   4.252  50.501  1.00  0.00     0.023 A 
ENDROOT
BRANCH   6   8
HETATM    8  N1  UNL     1      24.762   3.077  52.683  1.00  0.00    -0.340 N 
HETATM    9  H5  UNL     1      24.834   3.868  53.342  1.00  0.00     0.167 HD
BRANCH   8  10
HETATM   10  C7  UNL     1      24.296   1.758  52.914  1.00  0.00     0.142 A 
HETATM   11  N2  UNL     1      25.193   0.786  53.161  1.00  0.00    -0.224 NA
HETATM   12  C8  UNL     1      24.829  -0.489  53.389  1.00  0.00     0.236 A 
HETATM   13  N3  UNL     1      23.535  -0.851  53.379  1.00  0.00    -0.241 NA
HETATM   14  C9  UNL     1      22.583   0.067  53.138  1.00  0.00     0.075 A 
HETATM   15  C10 UNL     1      21.249  -0.283  53.123  1.00  0.00     0.072 A 
HETATM   16  C20 UNL     1      22.999   1.360  52.910  1.00  0.00     0.042 A 
HETATM   17  C11 UNL     1      20.293   0.706  52.868  1.00  0.00     0.104 A 
HETATM   18  C15 UNL     1      20.662   2.035  52.630  1.00  0.00     0.103 A 
HETATM   19  C19 UNL     1      22.015   2.285  52.667  1.00  0.00     0.057 A 
BRANCH  17  20
HETATM   20  O1  UNL     1      18.976   0.269  52.871  1.00  0.00    -0.346 OA
BRANCH  20  21
HETATM   21  C12 UNL     1      18.675  -1.048  53.275  1.00  0.00     0.201 C 
BRANCH  21  22
HETATM   22  C13 UNL     1      17.250  -1.420  52.907  1.00  0.00     0.193 C 
BRANCH  22  23
HETATM   23  O2  UNL     1      16.400  -0.362  53.112  1.00  0.00    -0.394 OA
HETATM   24  C14 UNL     1      15.631  -0.038  52.023  1.00  0.00     0.201 C 
ENDBRANCH  22  23
ENDBRANCH  21  22
ENDBRANCH  20  21
ENDBRANCH  17  20
BRANCH  18  25
HETATM   25  O3  UNL     1      19.587   2.809  52.408  1.00  0.00    -0.346 OA
BRANCH  25  26
HETATM   26  C16 UNL     1      19.042   3.405  51.294  1.00  0.00     0.201 C 
BRANCH  26  27
HETATM   27  C17 UNL     1      17.549   3.205  51.257  1.00  0.00     0.193 C 
BRANCH  27  28
HETATM   28  O4  UNL     1      16.982   4.173  52.116  1.00  0.00    -0.394 OA
HETATM   29  C18 UNL     1      15.678   3.836  52.444  1.00  0.00     0.201 C 
ENDBRANCH  27  28
ENDBRANCH  26  27
ENDBRANCH  25  26
ENDBRANCH  18  25
ENDBRANCH   8  10
ENDBRANCH   6   8
TORSDOF 10
ENDMDL
MODEL 5
REMARK VINA RESULT:      -6.7      2.360      5.266
REMARK  10 active torsions:
REMARK  status: ('A' for Active; 'I' for Inactive)
REMARK    1  A    between atoms: C6_6  and  N1_7 
REMARK    2  A    between atoms: N1_7  and  C7_8 
REMARK    3  A    between atoms: C11_14  and  O1_15 
REMARK    4  A    between atoms: O1_15  and  C12_16 
REMARK    5  A    between atoms: C12_16  and  C13_17 
REMARK    6  A    between atoms: C13_17  and  O2_18 
REMARK    7  A    between atoms: C15_20  and  O3_21 
REMARK    8  A    between atoms: O3_21  and  C16_22 
REMARK    9  A    between atoms: C16_22  and  C17_23 
REMARK   10  A    between atoms: C17_23  and  O4_24 
ROOT
HETATM    1  C1  UNL     1      29.034   7.903  48.210  1.00  0.00     0.013 C 
HETATM    2  C2  UNL     1      27.944   7.351  48.221  1.00  0.00    -0.105 C 
HETATM    3  C3  UNL     1      26.636   6.693  48.248  1.00  0.00     0.111 A 
HETATM    4  C4  UNL     1      26.853   5.271  48.640  1.00  0.00    -0.004 A 
HETATM    5  C5  UNL     1      26.172   5.048  49.756  1.00  0.00     0.027 A 
HETATM    6  C6  UNL     1      25.482   6.282  50.153  1.00  0.00     0.031 A 
HETATM    7  C21 UNL     1      25.749   7.240  49.281  1.00  0.00     0.023 A 
ENDROOT
BRANCH   6   8
HETATM    8  N1  UNL     1      24.671   6.332  51.321  1.00  0.00    -0.340 N 
HETATM    9  H5  UNL     1      25.135   6.796  52.118  1.00  0.00     0.167 HD
BRANCH   8  10
HETATM   10  C7  UNL     1      23.376   5.759  51.249  1.00  0.00     0.142 A 
HETATM   11  N2  UNL     1      22.367   6.494  50.749  1.00  0.00    -0.224 NA
HETATM   12  C8  UNL     1      21.111   6.019  50.650  1.00  0.00     0.236 A 
HETATM   13  N3  UNL     1      20.809   4.773  51.051  1.00  0.00    -0.241 NA
HETATM   14  C9  UNL     1      21.768   3.982  51.562  1.00  0.00     0.075 A 
HETATM   15  C10 UNL     1      21.479   2.699  51.979  1.00  0.00     0.072 A 
HETATM   16  C20 UNL     1      23.038   4.506  51.646  1.00  0.00     0.042 A 
HETATM   17  C11 UNL     1      22.508   1.911  52.505  1.00  0.00     0.104 A 
HETATM   18  C15 UNL     1      23.817   2.395  52.613  1.00  0.00     0.103 A 
HETATM   19  C19 UNL     1      24.005   3.684  52.169  1.00  0.00     0.057 A 
BRANCH  17  20
HETATM   20  O1  UNL     1      22.132   0.636  52.901  1.00  0.00    -0.346 OA
BRANCH  20  21
HETATM   21  C12 UNL     1      20.947   0.453  53.642  1.00  0.00     0.201 C 
BRANCH  21  22
HETATM   22  C13 UNL     1      21.243  -0.137  55.010  1.00  0.00     0.193 C 
BRANCH  22  23
HETATM   23  O2  UNL     1      21.845  -1.364  54.893  1.00  0.00    -0.394 OA
HETATM   24  C14 UNL     1      23.072  -1.450  55.502  1.00  0.00     0.201 C 
ENDBRANCH  22  23
ENDBRANCH  21  22
ENDBRANCH  20  21
ENDBRANCH  17  20
BRANCH  18  25
HETATM   25  O3  UNL     1      24.637   1.474  53.144  1.00  0.00    -0.346 OA
BRANCH  25  26
HETATM   26  C16 UNL     1      25.976   1.442  53.458  1.00  0.00     0.201 C 
BRANCH  26  27
HETATM   27  C17 UNL     1      26.315   0.192  54.229  1.00  0.00     0.193 C 
BRANCH  27  28
HETATM   28  O4  UNL     1      27.242   0.562  55.229  1.00  0.00    -0.394 OA
HETATM   29  C18 UNL     1      28.538   0.275  54.828  1.00  0.00     0.201 C 
ENDBRANCH  27  28
ENDBRANCH  26  27
ENDBRANCH  25  26
ENDBRANCH  18  25
ENDBRANCH   8  10
ENDBRANCH   6   8
TORSDOF 10
ENDMDL
MODEL 6
REMARK VINA RESULT:      -6.6      3.248      8.324
REMARK  10 active torsions:
REMARK  status: ('A' for Active; 'I' for Inactive)
REMARK    1  A    between atoms: C6_6  and  N1_7 
REMARK    2  A    between atoms: N1_7  and  C7_8 
REMARK    3  A    between atoms: C11_14  and  O1_15 
REMARK    4  A    between atoms: O1_15  and  C12_16 
REMARK    5  A    between atoms: C12_16  and  C13_17 
REMARK    6  A    between atoms: C13_17  and  O2_18 
REMARK    7  A    between atoms: C15_20  and  O3_21 
REMARK    8  A    between atoms: O3_21  and  C16_22 
REMARK    9  A    between atoms: C16_22  and  C17_23 
REMARK   10  A    between atoms: C17_23  and  O4_24 
ROOT
HETATM    1  C1  UNL     1      16.116  -0.897  51.107  1.00  0.00     0.013 C 
HETATM    2  C2  UNL     1      17.071  -0.203  50.793  1.00  0.00    -0.105 C 
HETATM    3  C3  UNL     1      18.221   0.628  50.431  1.00  0.00     0.111 A 
HETATM    4  C4  UNL     1      17.806   2.054  50.556  1.00  0.00    -0.004 A 
HETATM    5  C5  UNL     1      18.598   2.632  51.448  1.00  0.00     0.027 A 
HETATM    6  C6  UNL     1      19.560   1.643  51.950  1.00  0.00     0.031 A 
HETATM    7  C21 UNL     1      19.345   0.477  51.362  1.00  0.00     0.023 A 
ENDROOT
BRANCH   6   8
HETATM    8  N1  UNL     1      20.538   1.989  52.924  1.00  0.00    -0.340 N 
HETATM    9  H5  UNL     1      20.541   2.995  53.155  1.00  0.00     0.167 HD
BRANCH   8  10
HETATM   10  C7  UNL     1      21.356   0.950  53.434  1.00  0.00     0.142 A 
HETATM   11  N2  UNL     1      20.827   0.076  54.310  1.00  0.00    -0.224 NA
HETATM   12  C8  UNL     1      21.540  -0.935  54.838  1.00  0.00     0.236 A 
HETATM   13  N3  UNL     1      22.829  -1.118  54.507  1.00  0.00    -0.241 NA
HETATM   14  C9  UNL     1      23.425  -0.283  53.639  1.00  0.00     0.075 A 
HETATM   15  C10 UNL     1      24.748  -0.453  53.286  1.00  0.00     0.072 A 
HETATM   16  C20 UNL     1      22.660   0.738  53.122  1.00  0.00     0.042 A 
HETATM   17  C11 UNL     1      25.327   0.440  52.378  1.00  0.00     0.104 A 
HETATM   18  C15 UNL     1      24.592   1.495  51.824  1.00  0.00     0.103 A 
HETATM   19  C19 UNL     1      23.282   1.581  52.236  1.00  0.00     0.057 A 
BRANCH  17  20
HETATM   20  O1  UNL     1      26.659   0.198  52.079  1.00  0.00    -0.346 OA
BRANCH  20  21
HETATM   21  C12 UNL     1      27.467  -0.505  52.996  1.00  0.00     0.201 C 
BRANCH  21  22
HETATM   22  C13 UNL     1      28.190   0.449  53.931  1.00  0.00     0.193 C 
BRANCH  22  23
HETATM   23  O2  UNL     1      29.243  -0.177  54.549  1.00  0.00    -0.394 OA
HETATM   24  C14 UNL     1      30.028  -0.924  53.706  1.00  0.00     0.201 C 
ENDBRANCH  22  23
ENDBRANCH  21  22
ENDBRANCH  20  21
ENDBRANCH  17  20
BRANCH  18  25
HETATM   25  O3  UNL     1      25.344   2.224  50.983  1.00  0.00    -0.346 OA
BRANCH  25  26
HETATM   26  C16 UNL     1      25.094   3.275  50.131  1.00  0.00     0.201 C 
BRANCH  26  27
HETATM   27  C17 UNL     1      26.379   3.939  49.709  1.00  0.00     0.193 C 
BRANCH  27  28
HETATM   28  O4  UNL     1      26.119   5.326  49.624  1.00  0.00    -0.394 OA
HETATM   29  C18 UNL     1      24.924   5.641  50.253  1.00  0.00     0.201 C 
ENDBRANCH  27  28
ENDBRANCH  26  27
ENDBRANCH  25  26
ENDBRANCH  18  25
ENDBRANCH   8  10
ENDBRANCH   6   8
TORSDOF 10
ENDMDL
MODEL 7
REMARK VINA RESULT:      -6.5      2.817      6.404
REMARK  10 active torsions:
REMARK  status: ('A' for Active; 'I' for Inactive)
REMARK    1  A    between atoms: C6_6  and  N1_7 
REMARK    2  A    between atoms: N1_7  and  C7_8 
REMARK    3  A    between atoms: C11_14  and  O1_15 
REMARK    4  A    between atoms: O1_15  and  C12_16 
REMARK    5  A    between atoms: C12_16  and  C13_17 
REMARK    6  A    between atoms: C13_17  and  O2_18 
REMARK    7  A    between atoms: C15_20  and  O3_21 
REMARK    8  A    between atoms: O3_21  and  C16_22 
REMARK    9  A    between atoms: C16_22  and  C17_23 
REMARK   10  A    between atoms: C17_23  and  O4_24 
ROOT
HETATM    1  C1  UNL     1      25.868  10.239  48.665  1.00  0.00     0.013 C 
HETATM    2  C2  UNL     1      25.010   9.370  48.712  1.00  0.00    -0.105 C 
HETATM    3  C3  UNL     1      23.985   8.328  48.782  1.00  0.00     0.111 A 
HETATM    4  C4  UNL     1      24.637   7.029  48.451  1.00  0.00    -0.004 A 
HETATM    5  C5  UNL     1      24.487   6.221  49.492  1.00  0.00     0.027 A 
HETATM    6  C6  UNL     1      23.744   6.926  50.545  1.00  0.00     0.031 A 
HETATM    7  C21 UNL     1      23.450   8.149  50.136  1.00  0.00     0.023 A 
ENDROOT
BRANCH   6   8
HETATM    8  N1  UNL     1      23.437   6.295  51.782  1.00  0.00    -0.340 N 
HETATM    9  H5  UNL     1      23.852   6.775  52.596  1.00  0.00     0.167 HD
BRANCH   8  10
HETATM   10  C7  UNL     1      22.631   5.129  51.745  1.00  0.00     0.142 A 
HETATM   11  N2  UNL     1      21.396   5.209  51.216  1.00  0.00    -0.224 NA
HETATM   12  C8  UNL     1      20.573   4.146  51.147  1.00  0.00     0.236 A 
HETATM   13  N3  UNL     1      20.956   2.944  51.608  1.00  0.00    -0.241 NA
HETATM   14  C9  UNL     1      22.176   2.790  52.150  1.00  0.00     0.075 A 
HETATM   15  C10 UNL     1      22.589   1.564  52.629  1.00  0.00     0.072 A 
HETATM   16  C20 UNL     1      22.986   3.901  52.202  1.00  0.00     0.042 A 
HETATM   17  C11 UNL     1      23.867   1.450  53.186  1.00  0.00     0.104 A 
HETATM   18  C15 UNL     1      24.730   2.549  53.263  1.00  0.00     0.103 A 
HETATM   19  C19 UNL     1      24.229   3.727  52.758  1.00  0.00     0.057 A 
BRANCH  17  20
HETATM   20  O1  UNL     1      24.201   0.184  53.644  1.00  0.00    -0.346 OA
BRANCH  20  21
HETATM   21  C12 UNL     1      23.235  -0.842  53.638  1.00  0.00     0.201 C 
BRANCH  21  22
HETATM   22  C13 UNL     1      22.882  -1.270  55.051  1.00  0.00     0.193 C 
BRANCH  22  23
HETATM   23  O2  UNL     1      21.681  -1.934  55.075  1.00  0.00    -0.394 OA
HETATM   24  C14 UNL     1      20.727  -1.404  54.242  1.00  0.00     0.201 C 
ENDBRANCH  22  23
ENDBRANCH  21  22
ENDBRANCH  20  21
ENDBRANCH  17  20
BRANCH  18  25
HETATM   25  O3  UNL     1      25.899   2.214  53.833  1.00  0.00    -0.346 OA
BRANCH  25  26
HETATM   26  C16 UNL     1      27.177   2.011  53.364  1.00  0.00     0.201 C 
BRANCH  26  27
HETATM   27  C17 UNL     1      27.767   0.754  53.947  1.00  0.00     0.193 C 
BRANCH  27  28
HETATM   28  O4  UNL     1      29.102   0.674  53.490  1.00  0.00    -0.394 OA
HETATM   29  C18 UNL     1      29.586  -0.620  53.609  1.00  0.00     0.201 C 
ENDBRANCH  27  28
ENDBRANCH  26  27
ENDBRANCH  25  26
ENDBRANCH  18  25
ENDBRANCH   8  10
ENDBRANCH   6   8
TORSDOF 10
ENDMDL
MODEL 8
REMARK VINA RESULT:      -6.4      3.483      5.424
REMARK  10 active torsions:
REMARK  status: ('A' for Active; 'I' for Inactive)
REMARK    1  A    between atoms: C6_6  and  N1_7 
REMARK    2  A    between atoms: N1_7  and  C7_8 
REMARK    3  A    between atoms: C11_14  and  O1_15 
REMARK    4  A    between atoms: O1_15  and  C12_16 
REMARK    5  A    between atoms: C12_16  and  C13_17 
REMARK    6  A    between atoms: C13_17  and  O2_18 
REMARK    7  A    between atoms: C15_20  and  O3_21 
REMARK    8  A    between atoms: O3_21  and  C16_22 
REMARK    9  A    between atoms: C16_22  and  C17_23 
REMARK   10  A    between atoms: C17_23  and  O4_24 
ROOT
HETATM    1  C1  UNL     1      29.233  -2.302  53.041  1.00  0.00     0.013 C 
HETATM    2  C2  UNL     1      29.136  -1.266  53.680  1.00  0.00    -0.105 C 
HETATM    3  C3  UNL     1      29.007  -0.021  54.440  1.00  0.00     0.111 A 
HETATM    4  C4  UNL     1      29.553   1.081  53.599  1.00  0.00    -0.004 A 
HETATM    5  C5  UNL     1      28.582   1.961  53.399  1.00  0.00     0.027 A 
HETATM    6  C6  UNL     1      27.367   1.499  54.082  1.00  0.00     0.031 A 
HETATM    7  C21 UNL     1      27.609   0.349  54.688  1.00  0.00     0.023 A 
ENDROOT
BRANCH   6   8
HETATM    8  N1  UNL     1      26.161   2.253  54.037  1.00  0.00    -0.340 N 
HETATM    9  H5  UNL     1      26.236   3.168  54.506  1.00  0.00     0.167 HD
BRANCH   8  10
HETATM   10  C7  UNL     1      25.047   1.672  53.378  1.00  0.00     0.142 A 
HETATM   11  N2  UNL     1      24.538   0.521  53.854  1.00  0.00    -0.224 NA
HETATM   12  C8  UNL     1      23.483  -0.089  53.284  1.00  0.00     0.236 A 
HETATM   13  N3  UNL     1      22.885   0.432  52.199  1.00  0.00    -0.241 NA
HETATM   14  C9  UNL     1      23.341   1.580  51.669  1.00  0.00     0.075 A 
HETATM   15  C10 UNL     1      22.742   2.132  50.555  1.00  0.00     0.072 A 
HETATM   16  C20 UNL     1      24.421   2.172  52.282  1.00  0.00     0.042 A 
HETATM   17  C11 UNL     1      23.250   3.328  50.036  1.00  0.00     0.104 A 
HETATM   18  C15 UNL     1      24.346   3.971  50.623  1.00  0.00     0.103 A 
HETATM   19  C19 UNL     1      24.873   3.344  51.729  1.00  0.00     0.057 A 
BRANCH  17  20
HETATM   20  O1  UNL     1      22.590   3.814  48.918  1.00  0.00    -0.346 OA
BRANCH  20  21
HETATM   21  C12 UNL     1      22.374   2.970  47.809  1.00  0.00     0.201 C 
BRANCH  21  22
HETATM   22  C13 UNL     1      21.031   3.254  47.159  1.00  0.00     0.193 C 
BRANCH  22  23
HETATM   23  O2  UNL     1      21.139   4.268  46.240  1.00  0.00    -0.394 OA
HETATM   24  C14 UNL     1      21.573   3.863  45.002  1.00  0.00     0.201 C 
ENDBRANCH  22  23
ENDBRANCH  21  22
ENDBRANCH  20  21
ENDBRANCH  17  20
BRANCH  18  25
HETATM   25  O3  UNL     1      24.664   5.096  49.963  1.00  0.00    -0.346 OA
BRANCH  25  26
HETATM   26  C16 UNL     1      25.843   5.674  49.553  1.00  0.00     0.201 C 
BRANCH  26  27
HETATM   27  C17 UNL     1      26.772   4.639  48.974  1.00  0.00     0.193 C 
BRANCH  27  28
HETATM   28  O4  UNL     1      27.988   5.296  48.675  1.00  0.00    -0.394 OA
HETATM   29  C18 UNL     1      27.750   6.563  48.165  1.00  0.00     0.201 C 
ENDBRANCH  27  28
ENDBRANCH  26  27
ENDBRANCH  25  26
ENDBRANCH  18  25
ENDBRANCH   8  10
ENDBRANCH   6   8
TORSDOF 10
ENDMDL
MODEL 9
REMARK VINA RESULT:      -6.3      3.185      7.005
REMARK  10 active torsions:
REMARK  status: ('A' for Active; 'I' for Inactive)
REMARK    1  A    between atoms: C6_6  and  N1_7 
REMARK    2  A    between atoms: N1_7  and  C7_8 
REMARK    3  A    between atoms: C11_14  and  O1_15 
REMARK    4  A    between atoms: O1_15  and  C12_16 
REMARK    5  A    between atoms: C12_16  and  C13_17 
REMARK    6  A    between atoms: C13_17  and  O2_18 
REMARK    7  A    between atoms: C15_20  and  O3_21 
REMARK    8  A    between atoms: O3_21  and  C16_22 
REMARK    9  A    between atoms: C16_22  and  C17_23 
REMARK   10  A    between atoms: C17_23  and  O4_24 
ROOT
HETATM    1  C1  UNL     1      22.454   6.444  44.576  1.00  0.00     0.013 C 
HETATM    2  C2  UNL     1      21.914   5.784  45.450  1.00  0.00    -0.105 C 
HETATM    3  C3  UNL     1      21.277   4.995  46.506  1.00  0.00     0.111 A 
HETATM    4  C4  UNL     1      21.767   3.593  46.382  1.00  0.00    -0.004 A 
HETATM    5  C5  UNL     1      22.371   3.271  47.518  1.00  0.00     0.027 A 
HETATM    6  C6  UNL     1      22.315   4.416  48.435  1.00  0.00     0.031 A 
HETATM    7  C21 UNL     1      21.680   5.420  47.851  1.00  0.00     0.023 A 
ENDROOT
BRANCH   6   8
HETATM    8  N1  UNL     1      22.888   4.352  49.735  1.00  0.00    -0.340 N 
HETATM    9  H5  UNL     1      22.202   4.510  50.489  1.00  0.00     0.167 HD
BRANCH   8  10
HETATM   10  C7  UNL     1      24.279   4.091  49.828  1.00  0.00     0.142 A 
HETATM   11  N2  UNL     1      25.135   4.882  49.156  1.00  0.00    -0.224 NA
HETATM   12  C8  UNL     1      26.468   4.696  49.195  1.00  0.00     0.236 A 
HETATM   13  N3  UNL     1      27.007   3.700  49.917  1.00  0.00    -0.241 NA
HETATM   14  C9  UNL     1      26.211   2.869  50.613  1.00  0.00     0.075 A 
HETATM   15  C10 UNL     1      26.744   1.840  51.360  1.00  0.00     0.072 A 
HETATM   16  C20 UNL     1      24.855   3.094  50.546  1.00  0.00     0.042 A 
HETATM   17  C11 UNL     1      25.879   0.999  52.069  1.00  0.00     0.104 A 
HETATM   18  C15 UNL     1      24.492   1.184  52.035  1.00  0.00     0.103 A 
HETATM   19  C19 UNL     1      24.057   2.238  51.263  1.00  0.00     0.057 A 
BRANCH  17  20
HETATM   20  O1  UNL     1      26.496  -0.009  52.793  1.00  0.00    -0.346 OA
BRANCH  20  21
HETATM   21  C12 UNL     1      26.903   0.230  54.122  1.00  0.00     0.201 C 
BRANCH  21  22
HETATM   22  C13 UNL     1      28.297   0.831  54.167  1.00  0.00     0.193 C 
BRANCH  22  23
HETATM   23  O2  UNL     1      29.147   0.159  53.324  1.00  0.00    -0.394 OA
HETATM   24  C14 UNL     1      29.721  -0.959  53.877  1.00  0.00     0.201 C 
ENDBRANCH  22  23
ENDBRANCH  21  22
ENDBRANCH  20  21
ENDBRANCH  17  20
BRANCH  18  25
HETATM   25  O3  UNL     1      23.858   0.266  52.783  1.00  0.00    -0.346 OA
BRANCH  25  26
HETATM   26  C16 UNL     1      22.538  -0.017  53.048  1.00  0.00     0.201 C 
BRANCH  26  27
HETATM   27  C17 UNL     1      22.421  -1.188  53.989  1.00  0.00     0.193 C 
BRANCH  27  28
HETATM   28  O4  UNL     1      21.566  -0.788  55.041  1.00  0.00    -0.394 OA
HETATM   29  C18 UNL     1      20.709   0.218  54.623  1.00  0.00     0.201 C 
ENDBRANCH  27  28
ENDBRANCH  26  27
ENDBRANCH  25  26
ENDBRANCH  18  25
ENDBRANCH   8  10
ENDBRANCH   6   8
TORSDOF 10
ENDMDL
