MODEL 1
REMARK VINA RESULT:      -8.8      0.000      0.000
REMARK  3 active torsions:
REMARK  status: ('A' for Active; 'I' for Inactive)
REMARK    1  A    between atoms: N1_1  and  C1_2 
REMARK    2  A    between atoms: C1_2  and  C2_3 
REMARK    3  A    between atoms: C3_4  and  C4_5 
ROOT
HETATM    1  C4  UNL     1      26.188   4.958  48.986  1.00  0.00     0.035 C 
HETATM    2  C5  UNL     1      26.237   3.686  49.565  1.00  0.00     0.088 C 
HETATM    3  C6  UNL     1      24.792   3.309  49.678  1.00  0.00     0.237 C 
HETATM    4  O1  UNL     1      24.500   3.099  51.020  1.00  0.00    -0.349 OA
HETATM    5  C7  UNL     1      23.174   2.724  51.355  1.00  0.00     0.194 A 
HETATM    6  C8  UNL     1      22.925   1.343  51.079  1.00  0.00     0.097 A 
HETATM    7  C9  UNL     1      21.988   2.134  51.621  1.00  0.00     0.133 A 
HETATM    8  N2  UNL     1      21.034   2.902  52.164  1.00  0.00    -0.263 NA
HETATM    9  C10 UNL     1      21.558   4.199  52.306  1.00  0.00     0.225 A 
HETATM   10  N3  UNL     1      22.804   4.022  51.824  1.00  0.00    -0.241 NA
HETATM   11  C11 UNL     1      21.212   0.888  52.058  1.00  0.00     0.008 C 
HETATM   12  C12 UNL     1      21.987  -0.032  52.805  1.00  0.00    -0.016 C 
HETATM   13  C13 UNL     1      23.395   0.478  52.940  1.00  0.00     0.081 C 
HETATM   14  C14 UNL     1      24.555   0.178  53.479  1.00  0.00     0.092 C 
HETATM   15  F1  UNL     1      25.324  -0.684  54.237  1.00  0.00    -0.281 F 
HETATM   16  C15 UNL     1      25.835   0.841  53.395  1.00  0.00     0.235 C 
HETATM   17 CL1  UNL     1      27.132  -0.408  53.694  1.00  0.00    -0.030 Cl
HETATM   18  C16 UNL     1      26.228   1.489  52.184  1.00  0.00    -0.047 C 
HETATM   19  C17 UNL     1      26.546   2.036  51.177  1.00  0.00     0.061 C 
HETATM   20  O2  UNL     1      26.893   2.662  50.042  1.00  0.00    -0.263 OA
ENDROOT
BRANCH   1  21
HETATM   21  C3  UNL     1      27.207   5.935  48.587  1.00  0.00     0.000 C 
HETATM   22  C2  UNL     1      28.453   5.488  48.463  1.00  0.00     0.003 C 
BRANCH  22  23
HETATM   23  C1  UNL     1      29.751   6.007  48.116  1.00  0.00     0.294 C 
BRANCH  23  24
HETATM   24  N1  UNL     1      30.547   6.194  49.317  1.00  0.00     0.081 N 
HETATM   25  H1  UNL     1      31.403   6.748  49.105  1.00  0.00     0.313 HD
HETATM   26  H2  UNL     1      30.822   5.246  49.668  1.00  0.00     0.313 HD
ENDBRANCH  23  24
ENDBRANCH  22  23
ENDBRANCH   1  21
TORSDOF 3
ENDMDL
MODEL 2
REMARK VINA RESULT:      -8.5      3.654      5.728
REMARK  3 active torsions:
REMARK  status: ('A' for Active; 'I' for Inactive)
REMARK    1  A    between atoms: N1_1  and  C1_2 
REMARK    2  A    between atoms: C1_2  and  C2_3 
REMARK    3  A    between atoms: C3_4  and  C4_5 
ROOT
HETATM    1  C4  UNL     1      25.980   0.109  52.714  1.00  0.00     0.035 C 
HETATM    2  C5  UNL     1      26.289   1.395  52.258  1.00  0.00     0.088 C 
HETATM    3  C6  UNL     1      25.035   2.164  52.542  1.00  0.00     0.237 C 
HETATM    4  O1  UNL     1      24.545   2.657  51.339  1.00  0.00    -0.349 OA
HETATM    5  C7  UNL     1      23.356   3.428  51.379  1.00  0.00     0.194 A 
HETATM    6  C8  UNL     1      23.600   4.762  51.832  1.00  0.00     0.097 A 
HETATM    7  C9  UNL     1      22.376   4.353  51.471  1.00  0.00     0.133 A 
HETATM    8  N2  UNL     1      21.142   3.971  51.114  1.00  0.00    -0.263 NA
HETATM    9  C10 UNL     1      21.207   2.621  50.729  1.00  0.00     0.225 A 
HETATM   10  N3  UNL     1      22.520   2.372  50.901  1.00  0.00    -0.241 NA
HETATM   11  C11 UNL     1      21.939   5.817  51.354  1.00  0.00     0.008 C 
HETATM   12  C12 UNL     1      22.781   6.598  50.525  1.00  0.00    -0.016 C 
HETATM   13  C13 UNL     1      23.907   5.751  49.999  1.00  0.00     0.081 C 
HETATM   14  C14 UNL     1      24.962   5.805  49.218  1.00  0.00     0.092 C 
HETATM   15  F1  UNL     1      25.778   6.534  48.374  1.00  0.00    -0.281 F 
HETATM   16  C15 UNL     1      25.969   4.814  48.921  1.00  0.00     0.235 C 
HETATM   17 CL1  UNL     1      27.490   5.693  48.425  1.00  0.00    -0.030 Cl
HETATM   18  C16 UNL     1      26.393   3.899  49.934  1.00  0.00    -0.047 C 
HETATM   19  C17 UNL     1      26.736   3.132  50.776  1.00  0.00     0.061 C 
HETATM   20  O2  UNL     1      27.108   2.263  51.729  1.00  0.00    -0.263 OA
ENDROOT
BRANCH   1  21
HETATM   21  C3  UNL     1      26.716  -1.160  52.757  1.00  0.00     0.000 C 
HETATM   22  C2  UNL     1      28.008  -1.096  53.065  1.00  0.00     0.003 C 
BRANCH  22  23
HETATM   23  C1  UNL     1      29.118  -1.997  53.233  1.00  0.00     0.294 C 
BRANCH  23  24
HETATM   24  N1  UNL     1      28.650  -3.373  53.197  1.00  0.00     0.081 N 
HETATM   25  H1  UNL     1      27.745  -3.437  52.685  1.00  0.00     0.313 HD
HETATM   26  H2  UNL     1      28.517  -3.690  54.186  1.00  0.00     0.313 HD
ENDBRANCH  23  24
ENDBRANCH  22  23
ENDBRANCH   1  21
TORSDOF 3
ENDMDL
MODEL 3
REMARK VINA RESULT:      -8.4      2.912      3.993
REMARK  3 active torsions:
REMARK  status: ('A' for Active; 'I' for Inactive)
REMARK    1  A    between atoms: N1_1  and  C1_2 
REMARK    2  A    between atoms: C1_2  and  C2_3 
REMARK    3  A    between atoms: C3_4  and  C4_5 
ROOT
HETATM    1  C4  UNL     1      26.749   3.785  49.932  1.00  0.00     0.035 C 
HETATM    2  C5  UNL     1      25.457   3.505  50.391  1.00  0.00     0.088 C 
HETATM    3  C6  UNL     1      25.705   2.714  51.638  1.00  0.00     0.237 C 
HETATM    4  O1  UNL     1      25.123   1.462  51.482  1.00  0.00    -0.349 OA
HETATM    5  C7  UNL     1      25.234   0.546  52.559  1.00  0.00     0.194 A 
HETATM    6  C8  UNL     1      24.316   0.847  53.612  1.00  0.00     0.097 A 
HETATM    7  C9  UNL     1      25.139  -0.209  53.675  1.00  0.00     0.133 A 
HETATM    8  N2  UNL     1      25.950  -1.272  53.763  1.00  0.00    -0.263 NA
HETATM    9  C10 UNL     1      26.738  -1.306  52.599  1.00  0.00     0.225 A 
HETATM   10  N3  UNL     1      26.266  -0.228  51.942  1.00  0.00    -0.241 NA
HETATM   11  C11 UNL     1      24.268  -0.801  54.787  1.00  0.00     0.008 C 
HETATM   12  C12 UNL     1      22.897  -0.897  54.446  1.00  0.00    -0.016 C 
HETATM   13  C13 UNL     1      22.676  -0.353  53.061  1.00  0.00     0.081 C 
HETATM   14  C14 UNL     1      21.735  -0.162  52.165  1.00  0.00     0.092 C 
HETATM   15  F1  UNL     1      20.409  -0.277  51.792  1.00  0.00    -0.281 F 
HETATM   16  C15 UNL     1      21.779   0.478  50.871  1.00  0.00     0.235 C 
HETATM   17 CL1  UNL     1      20.099   1.079  50.487  1.00  0.00    -0.030 Cl
HETATM   18  C16 UNL     1      22.626   1.610  50.660  1.00  0.00    -0.047 C 
HETATM   19  C17 UNL     1      23.340   2.544  50.487  1.00  0.00     0.061 C 
HETATM   20  O2  UNL     1      24.158   3.591  50.295  1.00  0.00    -0.263 OA
ENDROOT
BRANCH   1  21
HETATM   21  C3  UNL     1      27.284   4.510  48.774  1.00  0.00     0.000 C 
HETATM   22  C2  UNL     1      27.294   5.837  48.848  1.00  0.00     0.003 C 
BRANCH  22  23
HETATM   23  C1  UNL     1      27.691   6.956  48.032  1.00  0.00     0.294 C 
BRANCH  23  24
HETATM   24  N1  UNL     1      28.619   7.801  48.766  1.00  0.00     0.081 N 
HETATM   25  H1  UNL     1      29.463   8.001  48.190  1.00  0.00     0.313 HD
HETATM   26  H2  UNL     1      28.900   7.286  49.633  1.00  0.00     0.313 HD
ENDBRANCH  23  24
ENDBRANCH  22  23
ENDBRANCH   1  21
TORSDOF 3
ENDMDL
MODEL 4
REMARK VINA RESULT:      -8.2      3.776      4.899
REMARK  3 active torsions:
REMARK  status: ('A' for Active; 'I' for Inactive)
REMARK    1  A    between atoms: N1_1  and  C1_2 
REMARK    2  A    between atoms: C1_2  and  C2_3 
REMARK    3  A    between atoms: C3_4  and  C4_5 
ROOT
HETATM    1  C4  UNL     1      27.172   1.108  52.579  1.00  0.00     0.035 C 
HETATM    2  C5  UNL     1      25.903   0.522  52.517  1.00  0.00     0.088 C 
HETATM    3  C6  UNL     1      25.081   1.568  51.830  1.00  0.00     0.237 C 
HETATM    4  O1  UNL     1      24.053   1.945  52.685  1.00  0.00    -0.349 OA
HETATM    5  C7  UNL     1      23.142   2.931  52.225  1.00  0.00     0.194 A 
HETATM    6  C8  UNL     1      22.188   2.390  51.309  1.00  0.00     0.097 A 
HETATM    7  C9  UNL     1      22.158   3.677  51.679  1.00  0.00     0.133 A 
HETATM    8  N2  UNL     1      22.104   4.968  52.033  1.00  0.00    -0.263 NA
HETATM    9  C10 UNL     1      23.163   5.212  52.925  1.00  0.00     0.225 A 
HETATM   10  N3  UNL     1      23.720   3.987  52.997  1.00  0.00    -0.241 NA
HETATM   11  C11 UNL     1      20.719   3.775  51.164  1.00  0.00     0.008 C 
HETATM   12  C12 UNL     1      19.855   2.787  51.696  1.00  0.00    -0.016 C 
HETATM   13  C13 UNL     1      20.622   1.884  52.623  1.00  0.00     0.081 C 
HETATM   14  C14 UNL     1      20.469   0.850  53.419  1.00  0.00     0.092 C 
HETATM   15  F1  UNL     1      19.640  -0.102  53.982  1.00  0.00    -0.281 F 
HETATM   16  C15 UNL     1      21.434   0.095  54.182  1.00  0.00     0.235 C 
HETATM   17 CL1  UNL     1      20.756  -1.580  54.439  1.00  0.00    -0.030 Cl
HETATM   18  C16 UNL     1      22.747  -0.122  53.661  1.00  0.00    -0.047 C 
HETATM   19  C17 UNL     1      23.842  -0.291  53.229  1.00  0.00     0.061 C 
HETATM   20  O2  UNL     1      25.079  -0.466  52.739  1.00  0.00    -0.263 OA
ENDROOT
BRANCH   1  21
HETATM   21  C3  UNL     1      28.468   0.676  53.114  1.00  0.00     0.000 C 
HETATM   22  C2  UNL     1      28.660  -0.634  53.241  1.00  0.00     0.003 C 
BRANCH  22  23
HETATM   23  C1  UNL     1      29.695  -1.530  53.689  1.00  0.00     0.294 C 
BRANCH  23  24
HETATM   24  N1  UNL     1      29.281  -2.908  53.482  1.00  0.00     0.081 N 
HETATM   25  H1  UNL     1      28.271  -3.024  53.707  1.00  0.00     0.313 HD
HETATM   26  H2  UNL     1      29.853  -3.511  54.119  1.00  0.00     0.313 HD
ENDBRANCH  23  24
ENDBRANCH  22  23
ENDBRANCH   1  21
TORSDOF 3
ENDMDL
MODEL 5
REMARK VINA RESULT:      -7.7      3.095      5.554
REMARK  3 active torsions:
REMARK  status: ('A' for Active; 'I' for Inactive)
REMARK    1  A    between atoms: N1_1  and  C1_2 
REMARK    2  A    between atoms: C1_2  and  C2_3 
REMARK    3  A    between atoms: C3_4  and  C4_5 
ROOT
HETATM    1  C4  UNL     1      21.702   5.956  50.759  1.00  0.00     0.035 C 
HETATM    2  C5  UNL     1      21.625   4.864  51.629  1.00  0.00     0.088 C 
HETATM    3  C6  UNL     1      23.052   4.652  52.034  1.00  0.00     0.237 C 
HETATM    4  O1  UNL     1      23.429   3.373  51.646  1.00  0.00    -0.349 OA
HETATM    5  C7  UNL     1      24.754   2.959  51.940  1.00  0.00     0.194 A 
HETATM    6  C8  UNL     1      24.904   2.592  53.313  1.00  0.00     0.097 A 
HETATM    7  C9  UNL     1      25.921   2.504  52.445  1.00  0.00     0.133 A 
HETATM    8  N2  UNL     1      26.954   2.406  51.597  1.00  0.00    -0.263 NA
HETATM    9  C10 UNL     1      26.515   2.843  50.336  1.00  0.00     0.225 A 
HETATM   10  N3  UNL     1      25.229   3.142  50.605  1.00  0.00    -0.241 NA
HETATM   11  C11 UNL     1      26.656   1.584  53.424  1.00  0.00     0.008 C 
HETATM   12  C12 UNL     1      25.888   0.471  53.845  1.00  0.00    -0.016 C 
HETATM   13  C13 UNL     1      24.525   0.523  53.213  1.00  0.00     0.081 C 
HETATM   14  C14 UNL     1      23.392  -0.140  53.143  1.00  0.00     0.092 C 
HETATM   15  F1  UNL     1      22.634  -1.236  53.508  1.00  0.00    -0.281 F 
HETATM   16  C15 UNL     1      22.149   0.182  52.484  1.00  0.00     0.235 C 
HETATM   17 CL1  UNL     1      20.810  -0.701  53.355  1.00  0.00    -0.030 Cl
HETATM   18  C16 UNL     1      21.705   1.539  52.416  1.00  0.00    -0.047 C 
HETATM   19  C17 UNL     1      21.344   2.670  52.352  1.00  0.00     0.061 C 
HETATM   20  O2  UNL     1      20.950   3.950  52.273  1.00  0.00    -0.263 OA
ENDROOT
BRANCH   1  21
HETATM   21  C3  UNL     1      20.713   6.711  49.983  1.00  0.00     0.000 C 
HETATM   22  C2  UNL     1      20.767   8.037  50.066  1.00  0.00     0.003 C 
BRANCH  22  23
HETATM   23  C1  UNL     1      20.066   9.177  49.535  1.00  0.00     0.294 C 
BRANCH  23  24
HETATM   24  N1  UNL     1      18.800   9.348  50.229  1.00  0.00     0.081 N 
HETATM   25  H1  UNL     1      18.574   8.501  50.790  1.00  0.00     0.313 HD
HETATM   26  H2  UNL     1      18.058   9.498  49.505  1.00  0.00     0.313 HD
ENDBRANCH  23  24
ENDBRANCH  22  23
ENDBRANCH   1  21
TORSDOF 3
ENDMDL
MODEL 6
REMARK VINA RESULT:      -7.6      2.972      3.856
REMARK  3 active torsions:
REMARK  status: ('A' for Active; 'I' for Inactive)
REMARK    1  A    between atoms: N1_1  and  C1_2 
REMARK    2  A    between atoms: C1_2  and  C2_3 
REMARK    3  A    between atoms: C3_4  and  C4_5 
ROOT
HETATM    1  C4  UNL     1      26.878   5.124  49.305  1.00  0.00     0.035 C 
HETATM    2  C5  UNL     1      25.522   4.789  49.395  1.00  0.00     0.088 C 
HETATM    3  C6  UNL     1      25.440   4.061  50.700  1.00  0.00     0.237 C 
HETATM    4  O1  UNL     1      24.980   2.773  50.452  1.00  0.00    -0.349 OA
HETATM    5  C7  UNL     1      24.821   1.906  51.563  1.00  0.00     0.194 A 
HETATM    6  C8  UNL     1      23.629   2.194  52.298  1.00  0.00     0.097 A 
HETATM    7  C9  UNL     1      24.445   1.189  52.645  1.00  0.00     0.133 A 
HETATM    8  N2  UNL     1      25.242   0.177  53.012  1.00  0.00    -0.263 NA
HETATM    9  C10 UNL     1      26.329   0.144  52.121  1.00  0.00     0.225 A 
HETATM   10  N3  UNL     1      26.017   1.168  51.303  1.00  0.00    -0.241 NA
HETATM   11  C11 UNL     1      23.320   0.591  53.495  1.00  0.00     0.008 C 
HETATM   12  C12 UNL     1      22.108   0.407  52.788  1.00  0.00    -0.016 C 
HETATM   13  C13 UNL     1      22.266   0.885  51.370  1.00  0.00     0.081 C 
HETATM   14  C14 UNL     1      21.611   0.989  50.236  1.00  0.00     0.092 C 
HETATM   15  F1  UNL     1      20.452   0.785  49.512  1.00  0.00    -0.281 F 
HETATM   16  C15 UNL     1      21.993   1.581  48.976  1.00  0.00     0.235 C 
HETATM   17 CL1  UNL     1      20.467   2.072  48.104  1.00  0.00    -0.030 Cl
HETATM   18  C16 UNL     1      22.815   2.750  48.954  1.00  0.00    -0.047 C 
HETATM   19  C17 UNL     1      23.508   3.716  48.940  1.00  0.00     0.061 C 
HETATM   20  O2  UNL     1      24.301   4.799  48.933  1.00  0.00    -0.263 OA
ENDROOT
BRANCH   1  21
HETATM   21  C3  UNL     1      27.687   5.833  48.308  1.00  0.00     0.000 C 
HETATM   22  C2  UNL     1      28.999   5.620  48.336  1.00  0.00     0.003 C 
BRANCH  22  23
HETATM   23  C1  UNL     1      30.173   6.046  47.619  1.00  0.00     0.294 C 
BRANCH  23  24
HETATM   24  N1  UNL     1      31.234   5.066  47.777  1.00  0.00     0.081 N 
HETATM   25  H1  UNL     1      31.041   4.222  47.198  1.00  0.00     0.313 HD
HETATM   26  H2  UNL     1      31.270   4.796  48.789  1.00  0.00     0.313 HD
ENDBRANCH  23  24
ENDBRANCH  22  23
ENDBRANCH   1  21
TORSDOF 3
ENDMDL
MODEL 7
REMARK VINA RESULT:      -7.3      3.158      7.038
REMARK  3 active torsions:
REMARK  status: ('A' for Active; 'I' for Inactive)
REMARK    1  A    between atoms: N1_1  and  C1_2 
REMARK    2  A    between atoms: C1_2  and  C2_3 
REMARK    3  A    between atoms: C3_4  and  C4_5 
ROOT
HETATM    1  C4  UNL     1      18.612   3.888  51.205  1.00  0.00     0.035 C 
HETATM    2  C5  UNL     1      19.514   3.256  52.067  1.00  0.00     0.088 C 
HETATM    3  C6  UNL     1      20.840   3.793  51.623  1.00  0.00     0.237 C 
HETATM    4  O1  UNL     1      21.627   2.724  51.212  1.00  0.00    -0.349 OA
HETATM    5  C7  UNL     1      22.938   3.010  50.754  1.00  0.00     0.194 A 
HETATM    6  C8  UNL     1      23.838   3.263  51.835  1.00  0.00     0.097 A 
HETATM    7  C9  UNL     1      24.248   3.276  50.560  1.00  0.00     0.133 A 
HETATM    8  N2  UNL     1      24.686   3.294  49.293  1.00  0.00    -0.263 NA
HETATM    9  C10 UNL     1      23.587   3.026  48.458  1.00  0.00     0.225 A 
HETATM   10  N3  UNL     1      22.609   2.865  49.371  1.00  0.00    -0.241 NA
HETATM   11  C11 UNL     1      25.697   3.152  51.041  1.00  0.00     0.008 C 
HETATM   12  C12 UNL     1      25.913   2.064  51.922  1.00  0.00    -0.016 C 
HETATM   13  C13 UNL     1      24.618   1.335  52.159  1.00  0.00     0.081 C 
HETATM   14  C14 UNL     1      24.117   0.301  52.797  1.00  0.00     0.092 C 
HETATM   15  F1  UNL     1      24.307  -0.789  53.624  1.00  0.00    -0.281 F 
HETATM   16  C15 UNL     1      22.756  -0.163  52.918  1.00  0.00     0.235 C 
HETATM   17 CL1  UNL     1      22.628  -1.120  54.468  1.00  0.00    -0.030 Cl
HETATM   18  C16 UNL     1      21.681   0.777  52.983  1.00  0.00    -0.047 C 
HETATM   19  C17 UNL     1      20.790   1.562  53.026  1.00  0.00     0.061 C 
HETATM   20  O2  UNL     1      19.788   2.455  53.061  1.00  0.00    -0.263 OA
ENDROOT
BRANCH   1  21
HETATM   21  C3  UNL     1      17.154   3.846  51.047  1.00  0.00     0.000 C 
HETATM   22  C2  UNL     1      16.426   3.988  52.150  1.00  0.00     0.003 C 
BRANCH  22  23
HETATM   23  C1  UNL     1      15.035   4.020  52.523  1.00  0.00     0.294 C 
BRANCH  23  24
HETATM   24  N1  UNL     1      14.905   4.401  53.920  1.00  0.00     0.081 N 
HETATM   25  H1  UNL     1      14.121   5.076  54.042  1.00  0.00     0.313 HD
HETATM   26  H2  UNL     1      15.804   4.851  54.212  1.00  0.00     0.313 HD
ENDBRANCH  23  24
ENDBRANCH  22  23
ENDBRANCH   1  21
TORSDOF 3
ENDMDL
MODEL 8
REMARK VINA RESULT:      -7.3      2.625      3.426
REMARK  3 active torsions:
REMARK  status: ('A' for Active; 'I' for Inactive)
REMARK    1  A    between atoms: N1_1  and  C1_2 
REMARK    2  A    between atoms: C1_2  and  C2_3 
REMARK    3  A    between atoms: C3_4  and  C4_5 
ROOT
HETATM    1  C4  UNL     1      23.013   4.742  48.663  1.00  0.00     0.035 C 
HETATM    2  C5  UNL     1      23.097   3.508  49.316  1.00  0.00     0.088 C 
HETATM    3  C6  UNL     1      21.686   3.005  49.273  1.00  0.00     0.237 C 
HETATM    4  O1  UNL     1      21.247   2.831  50.580  1.00  0.00    -0.349 OA
HETATM    5  C7  UNL     1      19.926   2.352  50.772  1.00  0.00     0.194 A 
HETATM    6  C8  UNL     1      19.832   0.943  50.548  1.00  0.00     0.097 A 
HETATM    7  C9  UNL     1      18.771   1.668  50.925  1.00  0.00     0.133 A 
HETATM    8  N2  UNL     1      17.693   2.370  51.302  1.00  0.00    -0.263 NA
HETATM    9  C10 UNL     1      18.082   3.714  51.432  1.00  0.00     0.225 A 
HETATM   10  N3  UNL     1      19.390   3.631  51.117  1.00  0.00    -0.241 NA
HETATM   11  C11 UNL     1      18.055   0.378  51.335  1.00  0.00     0.008 C 
HETATM   12  C12 UNL     1      18.805  -0.431  52.223  1.00  0.00    -0.016 C 
HETATM   13  C13 UNL     1      20.136   0.213  52.499  1.00  0.00     0.081 C 
HETATM   14  C14 UNL     1      21.240   0.046  53.192  1.00  0.00     0.092 C 
HETATM   15  F1  UNL     1      21.979  -0.706  54.086  1.00  0.00    -0.281 F 
HETATM   16  C15 UNL     1      22.459   0.819  53.226  1.00  0.00     0.235 C 
HETATM   17 CL1  UNL     1      23.810  -0.290  53.752  1.00  0.00    -0.030 Cl
HETATM   18  C16 UNL     1      22.945   1.444  52.036  1.00  0.00    -0.047 C 
HETATM   19  C17 UNL     1      23.340   1.970  51.046  1.00  0.00     0.061 C 
HETATM   20  O2  UNL     1      23.772   2.572  49.927  1.00  0.00    -0.263 OA
ENDROOT
BRANCH   1  21
HETATM   21  C3  UNL     1      23.987   5.789  48.335  1.00  0.00     0.000 C 
HETATM   22  C2  UNL     1      24.927   6.041  49.240  1.00  0.00     0.003 C 
BRANCH  22  23
HETATM   23  C1  UNL     1      26.056   6.920  49.400  1.00  0.00     0.294 C 
BRANCH  23  24
HETATM   24  N1  UNL     1      26.110   7.415  50.766  1.00  0.00     0.081 N 
HETATM   25  H1  UNL     1      26.430   6.664  51.414  1.00  0.00     0.313 HD
HETATM   26  H2  UNL     1      25.144   7.719  51.032  1.00  0.00     0.313 HD
ENDBRANCH  23  24
ENDBRANCH  22  23
ENDBRANCH   1  21
TORSDOF 3
ENDMDL
MODEL 9
REMARK VINA RESULT:      -7.2      5.844     10.476
REMARK  3 active torsions:
REMARK  status: ('A' for Active; 'I' for Inactive)
REMARK    1  A    between atoms: N1_1  and  C1_2 
REMARK    2  A    between atoms: C1_2  and  C2_3 
REMARK    3  A    between atoms: C3_4  and  C4_5 
ROOT
HETATM    1  C4  UNL     1      27.219   5.547  48.647  1.00  0.00     0.035 C 
HETATM    2  C5  UNL     1      27.605   6.839  48.274  1.00  0.00     0.088 C 
HETATM    3  C6  UNL     1      28.942   6.622  47.636  1.00  0.00     0.237 C 
HETATM    4  O1  UNL     1      29.889   7.344  48.352  1.00  0.00    -0.349 OA
HETATM    5  C7  UNL     1      31.235   7.284  47.910  1.00  0.00     0.194 A 
HETATM    6  C8  UNL     1      31.459   8.114  46.768  1.00  0.00     0.097 A 
HETATM    7  C9  UNL     1      32.450   7.410  47.333  1.00  0.00     0.133 A 
HETATM    8  N2  UNL     1      33.459   6.717  47.878  1.00  0.00    -0.263 NA
HETATM    9  C10 UNL     1      32.941   5.992  48.966  1.00  0.00     0.225 A 
HETATM   10  N3  UNL     1      31.648   6.373  48.931  1.00  0.00    -0.241 NA
HETATM   11  C11 UNL     1      33.469   8.288  46.601  1.00  0.00     0.008 C 
HETATM   12  C12 UNL     1      33.279   9.675  46.809  1.00  0.00    -0.016 C 
HETATM   13  C13 UNL     1      32.083   9.899  47.694  1.00  0.00     0.081 C 
HETATM   14  C14 UNL     1      31.390  10.854  48.272  1.00  0.00     0.092 C 
HETATM   15  F1  UNL     1      31.204  12.201  48.522  1.00  0.00    -0.281 F 
HETATM   16  C15 UNL     1      30.179  10.800  49.055  1.00  0.00     0.235 C 
HETATM   17 CL1  UNL     1      29.350  12.420  48.915  1.00  0.00    -0.030 Cl
HETATM   18  C16 UNL     1      29.163   9.845  48.739  1.00  0.00    -0.047 C 
HETATM   19  C17 UNL     1      28.326   9.042  48.479  1.00  0.00     0.061 C 
HETATM   20  O2  UNL     1      27.391   8.124  48.187  1.00  0.00    -0.263 OA
ENDROOT
BRANCH   1  21
HETATM   21  C3  UNL     1      26.039   4.991  49.318  1.00  0.00     0.000 C 
HETATM   22  C2  UNL     1      25.358   5.809  50.114  1.00  0.00     0.003 C 
BRANCH  22  23
HETATM   23  C1  UNL     1      24.192   5.762  50.958  1.00  0.00     0.294 C 
BRANCH  23  24
HETATM   24  N1  UNL     1      24.319   6.733  52.032  1.00  0.00     0.081 N 
HETATM   25  H1  UNL     1      23.769   7.591  51.816  1.00  0.00     0.313 HD
HETATM   26  H2  UNL     1      25.332   6.980  52.120  1.00  0.00     0.313 HD
ENDBRANCH  23  24
ENDBRANCH  22  23
ENDBRANCH   1  21
TORSDOF 3
ENDMDL
