MODEL 1
REMARK VINA RESULT:      -9.8      0.000      0.000
REMARK  3 active torsions:
REMARK  status: ('A' for Active; 'I' for Inactive)
REMARK    1  A    between atoms: O1_1  and  C1_2 
REMARK    2  A    between atoms: C9_12  and  C10_13 
REMARK    3  A    between atoms: C10_13  and  C11_14 
ROOT
HETATM    1  C1  UNL     1      17.822  -0.892  52.880  1.00  0.00     0.175 A 
HETATM    2  N1  UNL     1      16.977  -0.675  51.876  1.00  0.00    -0.218 NA
HETATM    3  C2  UNL     1      17.334  -0.064  50.755  1.00  0.00     0.233 A 
HETATM    4  N2  UNL     1      18.615   0.331  50.690  1.00  0.00    -0.240 NA
HETATM    5  C3  UNL     1      19.504   0.121  51.705  1.00  0.00     0.197 A 
HETATM    6  C4  UNL     1      19.070  -0.573  52.957  1.00  0.00     0.070 A 
HETATM    7  C5  UNL     1      20.306  -0.276  53.075  1.00  0.00     0.066 A 
HETATM    8  C6  UNL     1      21.343  -0.019  53.155  1.00  0.00    -0.060 A 
HETATM    9  C7  UNL     1      22.545   0.286  53.224  1.00  0.00    -0.065 A 
HETATM   10  C8  UNL     1      23.565   0.552  53.261  1.00  0.00     0.011 A 
HETATM   11  C9  UNL     1      24.840   0.889  53.284  1.00  0.00    -0.047 A 
HETATM   12  C17 UNL     1      24.399   1.293  52.060  1.00  0.00     0.082 A 
HETATM   13  C18 UNL     1      23.166   1.296  51.285  1.00  0.00     0.004 A 
HETATM   14  C19 UNL     1      21.960   1.205  50.756  1.00  0.00     0.083 A 
HETATM   15  N3  UNL     1      20.762   0.710  51.231  1.00  0.00    -0.364 N 
HETATM   16  H12 UNL     1      20.557   1.671  51.681  1.00  0.00     0.162 HD
ENDROOT
BRANCH  11  17
HETATM   17  C10 UNL     1      26.060   0.928  53.971  1.00  0.00     0.075 C 
BRANCH  17  18
HETATM   18  C11 UNL     1      27.035  -0.148  53.630  1.00  0.00    -0.051 A 
HETATM   19  C12 UNL     1      26.506  -1.275  52.994  1.00  0.00     0.007 A 
HETATM   20  C13 UNL     1      27.329  -2.324  52.639  1.00  0.00     0.004 A 
HETATM   21  C14 UNL     1      28.678  -2.281  52.901  1.00  0.00     0.042 A 
HETATM   22  C15 UNL     1      29.186  -1.160  53.529  1.00  0.00     0.116 A 
HETATM   23  F1  UNL     1      30.506  -1.090  53.799  1.00  0.00    -0.206 F 
HETATM   24  C16 UNL     1      28.389  -0.100  53.894  1.00  0.00     0.049 A 
ENDBRANCH  17  18
ENDBRANCH  11  17
BRANCH   1  25
HETATM   25  O1  UNL     1      17.796  -1.480  54.156  1.00  0.00    -0.344 OA
HETATM   26  H1  UNL     1      17.989  -0.857  54.954  1.00  0.00     0.219 HD
ENDBRANCH   1  25
TORSDOF 3
ENDMDL
MODEL 2
REMARK VINA RESULT:      -9.8      4.578      8.310
REMARK  3 active torsions:
REMARK  status: ('A' for Active; 'I' for Inactive)
REMARK    1  A    between atoms: O1_1  and  C1_2 
REMARK    2  A    between atoms: C9_12  and  C10_13 
REMARK    3  A    between atoms: C10_13  and  C11_14 
ROOT
HETATM    1  C1  UNL     1      27.873   1.770  53.045  1.00  0.00     0.175 A 
HETATM    2  N1  UNL     1      28.952   1.371  53.712  1.00  0.00    -0.218 NA
HETATM    3  C2  UNL     1      28.911   0.444  54.659  1.00  0.00     0.233 A 
HETATM    4  N2  UNL     1      27.699  -0.076  54.911  1.00  0.00    -0.240 NA
HETATM    5  C3  UNL     1      26.576   0.315  54.241  1.00  0.00     0.197 A 
HETATM    6  C4  UNL     1      26.656   1.363  53.177  1.00  0.00     0.070 A 
HETATM    7  C5  UNL     1      25.440   0.989  53.274  1.00  0.00     0.066 A 
HETATM    8  C6  UNL     1      24.424   0.661  53.370  1.00  0.00    -0.060 A 
HETATM    9  C7  UNL     1      23.255   0.263  53.498  1.00  0.00    -0.065 A 
HETATM   10  C8  UNL     1      22.268  -0.090  53.621  1.00  0.00     0.011 A 
HETATM   11  C9  UNL     1      21.043  -0.551  53.787  1.00  0.00    -0.047 A 
HETATM   12  C17 UNL     1      21.801  -1.263  54.667  1.00  0.00     0.082 A 
HETATM   13  C18 UNL     1      23.191  -1.356  55.092  1.00  0.00     0.004 A 
HETATM   14  C19 UNL     1      24.486  -1.281  55.336  1.00  0.00     0.083 A 
HETATM   15  N3  UNL     1      25.492  -0.483  54.828  1.00  0.00    -0.364 N 
HETATM   16  H12 UNL     1      25.249   0.270  55.565  1.00  0.00     0.162 HD
ENDROOT
BRANCH  11  17
HETATM   17  C10 UNL     1      19.688  -0.514  53.435  1.00  0.00     0.075 C 
BRANCH  17  18
HETATM   18  C11 UNL     1      19.330   0.410  52.321  1.00  0.00    -0.051 A 
HETATM   19  C12 UNL     1      18.545  -0.134  51.300  1.00  0.00     0.007 A 
HETATM   20  C13 UNL     1      18.163   0.643  50.225  1.00  0.00     0.004 A 
HETATM   21  C14 UNL     1      18.545   1.960  50.138  1.00  0.00     0.042 A 
HETATM   22  C15 UNL     1      19.320   2.484  51.155  1.00  0.00     0.116 A 
HETATM   23  F1  UNL     1      19.710   3.775  51.096  1.00  0.00    -0.206 F 
HETATM   24  C16 UNL     1      19.715   1.733  52.237  1.00  0.00     0.049 A 
ENDBRANCH  17  18
ENDBRANCH  11  17
BRANCH   1  25
HETATM   25  O1  UNL     1      27.556   2.684  52.026  1.00  0.00    -0.344 OA
HETATM   26  H1  UNL     1      27.928   3.639  52.132  1.00  0.00     0.219 HD
ENDBRANCH   1  25
TORSDOF 3
ENDMDL
MODEL 3
REMARK VINA RESULT:      -9.8      4.418      8.083
REMARK  3 active torsions:
REMARK  status: ('A' for Active; 'I' for Inactive)
REMARK    1  A    between atoms: O1_1  and  C1_2 
REMARK    2  A    between atoms: C9_12  and  C10_13 
REMARK    3  A    between atoms: C10_13  and  C11_14 
ROOT
HETATM    1  C1  UNL     1      28.720  -2.034  53.151  1.00  0.00     0.175 A 
HETATM    2  N1  UNL     1      29.912  -1.581  53.532  1.00  0.00    -0.218 NA
HETATM    3  C2  UNL     1      30.142  -0.305  53.807  1.00  0.00     0.233 A 
HETATM    4  N2  UNL     1      29.089   0.517  53.676  1.00  0.00    -0.240 NA
HETATM    5  C3  UNL     1      27.855   0.079  53.288  1.00  0.00     0.197 A 
HETATM    6  C4  UNL     1      27.628  -1.368  52.985  1.00  0.00     0.070 A 
HETATM    7  C5  UNL     1      26.526  -0.748  52.810  1.00  0.00     0.066 A 
HETATM    8  C6  UNL     1      25.610  -0.210  52.669  1.00  0.00    -0.060 A 
HETATM    9  C7  UNL     1      24.560   0.435  52.515  1.00  0.00    -0.065 A 
HETATM   10  C8  UNL     1      23.678   1.000  52.391  1.00  0.00     0.011 A 
HETATM   11  C9  UNL     1      22.585   1.726  52.249  1.00  0.00    -0.047 A 
HETATM   12  C17 UNL     1      23.534   2.610  52.667  1.00  0.00     0.082 A 
HETATM   13  C18 UNL     1      24.945   2.615  53.027  1.00  0.00     0.004 A 
HETATM   14  C19 UNL     1      26.218   2.410  53.307  1.00  0.00     0.083 A 
HETATM   15  N3  UNL     1      27.019   1.285  53.264  1.00  0.00    -0.364 N 
HETATM   16  H12 UNL     1      27.219   1.482  52.220  1.00  0.00     0.162 HD
ENDROOT
BRANCH  11  17
HETATM   17  C10 UNL     1      21.228   1.799  51.910  1.00  0.00     0.075 C 
BRANCH  17  18
HETATM   18  C11 UNL     1      20.370   0.689  52.416  1.00  0.00    -0.051 A 
HETATM   19  C12 UNL     1      19.082   0.615  51.877  1.00  0.00     0.007 A 
HETATM   20  C13 UNL     1      18.214  -0.378  52.283  1.00  0.00     0.004 A 
HETATM   21  C14 UNL     1      18.596  -1.308  53.219  1.00  0.00     0.042 A 
HETATM   22  C15 UNL     1      19.872  -1.222  53.742  1.00  0.00     0.116 A 
HETATM   23  F1  UNL     1      20.276  -2.122  54.664  1.00  0.00    -0.206 F 
HETATM   24  C16 UNL     1      20.758  -0.244  53.357  1.00  0.00     0.049 A 
ENDBRANCH  17  18
ENDBRANCH  11  17
BRANCH   1  25
HETATM   25  O1  UNL     1      28.137  -3.262  52.794  1.00  0.00    -0.344 OA
HETATM   26  H1  UNL     1      27.136  -3.242  52.549  1.00  0.00     0.219 HD
ENDBRANCH   1  25
TORSDOF 3
ENDMDL
MODEL 4
REMARK VINA RESULT:      -9.6      1.632      2.378
REMARK  3 active torsions:
REMARK  status: ('A' for Active; 'I' for Inactive)
REMARK    1  A    between atoms: O1_1  and  C1_2 
REMARK    2  A    between atoms: C9_12  and  C10_13 
REMARK    3  A    between atoms: C10_13  and  C11_14 
ROOT
HETATM    1  C1  UNL     1      17.682   0.023  51.364  1.00  0.00     0.175 A 
HETATM    2  N1  UNL     1      16.762  -0.688  52.012  1.00  0.00    -0.218 NA
HETATM    3  C2  UNL     1      17.041  -1.419  53.083  1.00  0.00     0.233 A 
HETATM    4  N2  UNL     1      18.323  -1.401  53.481  1.00  0.00    -0.240 NA
HETATM    5  C3  UNL     1      19.286  -0.680  52.835  1.00  0.00     0.197 A 
HETATM    6  C4  UNL     1      18.939   0.135  51.630  1.00  0.00     0.070 A 
HETATM    7  C5  UNL     1      20.187   0.275  51.858  1.00  0.00     0.066 A 
HETATM    8  C6  UNL     1      21.233   0.380  52.065  1.00  0.00    -0.060 A 
HETATM    9  C7  UNL     1      22.442   0.489  52.327  1.00  0.00    -0.065 A 
HETATM   10  C8  UNL     1      23.466   0.569  52.568  1.00  0.00     0.011 A 
HETATM   11  C9  UNL     1      24.741   0.661  52.892  1.00  0.00    -0.047 A 
HETATM   12  C17 UNL     1      24.203  -0.152  53.843  1.00  0.00     0.082 A 
HETATM   13  C18 UNL     1      22.911  -0.730  54.188  1.00  0.00     0.004 A 
HETATM   14  C19 UNL     1      21.668  -1.152  54.324  1.00  0.00     0.083 A 
HETATM   15  N3  UNL     1      20.521  -0.950  53.582  1.00  0.00    -0.364 N 
HETATM   16  H12 UNL     1      20.798  -1.783  52.951  1.00  0.00     0.162 HD
ENDROOT
BRANCH  11  17
HETATM   17  C10 UNL     1      26.016   1.174  52.619  1.00  0.00     0.075 C 
BRANCH  17  18
HETATM   18  C11 UNL     1      27.162   0.273  52.935  1.00  0.00    -0.051 A 
HETATM   19  C12 UNL     1      28.283   0.882  53.505  1.00  0.00     0.007 A 
HETATM   20  C13 UNL     1      29.393   0.132  53.832  1.00  0.00     0.004 A 
HETATM   21  C14 UNL     1      29.418  -1.224  53.607  1.00  0.00     0.042 A 
HETATM   22  C15 UNL     1      28.302  -1.813  53.044  1.00  0.00     0.116 A 
HETATM   23  F1  UNL     1      28.298  -3.142  52.810  1.00  0.00    -0.206 F 
HETATM   24  C16 UNL     1      27.183  -1.089  52.707  1.00  0.00     0.049 A 
ENDBRANCH  17  18
ENDBRANCH  11  17
BRANCH   1  25
HETATM   25  O1  UNL     1      17.745   0.873  50.247  1.00  0.00    -0.344 OA
HETATM   26  H1  UNL     1      18.686   1.137  49.922  1.00  0.00     0.219 HD
ENDBRANCH   1  25
TORSDOF 3
ENDMDL
MODEL 5
REMARK VINA RESULT:      -9.4      4.596      8.559
REMARK  3 active torsions:
REMARK  status: ('A' for Active; 'I' for Inactive)
REMARK    1  A    between atoms: O1_1  and  C1_2 
REMARK    2  A    between atoms: C9_12  and  C10_13 
REMARK    3  A    between atoms: C10_13  and  C11_14 
ROOT
HETATM    1  C1  UNL     1      28.299   1.891  53.495  1.00  0.00     0.175 A 
HETATM    2  N1  UNL     1      29.164   1.195  54.228  1.00  0.00    -0.218 NA
HETATM    3  C2  UNL     1      28.818   0.119  54.920  1.00  0.00     0.233 A 
HETATM    4  N2  UNL     1      27.525  -0.233  54.840  1.00  0.00    -0.240 NA
HETATM    5  C3  UNL     1      26.617   0.463  54.095  1.00  0.00     0.197 A 
HETATM    6  C4  UNL     1      27.040   1.673  53.325  1.00  0.00     0.070 A 
HETATM    7  C5  UNL     1      25.791   1.493  53.128  1.00  0.00     0.066 A 
HETATM    8  C6  UNL     1      24.744   1.325  52.975  1.00  0.00    -0.060 A 
HETATM    9  C7  UNL     1      23.532   1.109  52.810  1.00  0.00    -0.065 A 
HETATM   10  C8  UNL     1      22.505   0.906  52.682  1.00  0.00     0.011 A 
HETATM   11  C9  UNL     1      21.224   0.631  52.530  1.00  0.00    -0.047 A 
HETATM   12  C17 UNL     1      21.694  -0.357  53.342  1.00  0.00     0.082 A 
HETATM   13  C18 UNL     1      22.948  -0.760  53.964  1.00  0.00     0.004 A 
HETATM   14  C19 UNL     1      24.167  -0.950  54.433  1.00  0.00     0.083 A 
HETATM   15  N3  UNL     1      25.346  -0.245  54.296  1.00  0.00    -0.364 N 
HETATM   16  H12 UNL     1      25.057   0.377  55.132  1.00  0.00     0.162 HD
ENDROOT
BRANCH  11  17
HETATM   17  C10 UNL     1      19.982   0.961  51.972  1.00  0.00     0.075 C 
BRANCH  17  18
HETATM   18  C11 UNL     1      18.874  -0.003  52.234  1.00  0.00    -0.051 A 
HETATM   19  C12 UNL     1      17.743   0.127  51.422  1.00  0.00     0.007 A 
HETATM   20  C13 UNL     1      16.666  -0.719  51.589  1.00  0.00     0.004 A 
HETATM   21  C14 UNL     1      16.684  -1.701  52.550  1.00  0.00     0.042 A 
HETATM   22  C15 UNL     1      17.809  -1.818  53.344  1.00  0.00     0.116 A 
HETATM   23  F1  UNL     1      17.855  -2.773  54.296  1.00  0.00    -0.206 F 
HETATM   24  C16 UNL     1      18.896  -0.989  53.200  1.00  0.00     0.049 A 
ENDBRANCH  17  18
ENDBRANCH  11  17
BRANCH   1  25
HETATM   25  O1  UNL     1      28.310   3.028  52.670  1.00  0.00    -0.344 OA
HETATM   26  H1  UNL     1      27.445   3.587  52.644  1.00  0.00     0.219 HD
ENDBRANCH   1  25
TORSDOF 3
ENDMDL
MODEL 6
REMARK VINA RESULT:      -9.3      5.023      8.468
REMARK  3 active torsions:
REMARK  status: ('A' for Active; 'I' for Inactive)
REMARK    1  A    between atoms: O1_1  and  C1_2 
REMARK    2  A    between atoms: C9_12  and  C10_13 
REMARK    3  A    between atoms: C10_13  and  C11_14 
ROOT
HETATM    1  C1  UNL     1      28.913  -2.154  53.227  1.00  0.00     0.175 A 
HETATM    2  N1  UNL     1      30.106  -1.668  53.557  1.00  0.00    -0.218 NA
HETATM    3  C2  UNL     1      30.313  -0.385  53.820  1.00  0.00     0.233 A 
HETATM    4  N2  UNL     1      29.234   0.408  53.730  1.00  0.00    -0.240 NA
HETATM    5  C3  UNL     1      27.998  -0.064  53.394  1.00  0.00     0.197 A 
HETATM    6  C4  UNL     1      27.797  -1.518  53.104  1.00  0.00     0.070 A 
HETATM    7  C5  UNL     1      26.673  -0.928  52.973  1.00  0.00     0.066 A 
HETATM    8  C6  UNL     1      25.738  -0.415  52.868  1.00  0.00    -0.060 A 
HETATM    9  C7  UNL     1      24.665   0.200  52.755  1.00  0.00    -0.065 A 
HETATM   10  C8  UNL     1      23.764   0.741  52.667  1.00  0.00     0.011 A 
HETATM   11  C9  UNL     1      22.647   1.437  52.568  1.00  0.00    -0.047 A 
HETATM   12  C17 UNL     1      23.588   2.348  52.944  1.00  0.00     0.082 A 
HETATM   13  C18 UNL     1      25.012   2.392  53.246  1.00  0.00     0.004 A 
HETATM   14  C19 UNL     1      26.300   2.222  53.474  1.00  0.00     0.083 A 
HETATM   15  N3  UNL     1      27.129   1.119  53.401  1.00  0.00    -0.364 N 
HETATM   16  H12 UNL     1      27.280   1.318  52.350  1.00  0.00     0.162 HD
ENDROOT
BRANCH  11  17
HETATM   17  C10 UNL     1      21.275   1.473  52.285  1.00  0.00     0.075 C 
BRANCH  17  18
HETATM   18  C11 UNL     1      20.909   1.852  50.890  1.00  0.00    -0.051 A 
HETATM   19  C12 UNL     1      21.515   1.110  49.872  1.00  0.00     0.007 A 
HETATM   20  C13 UNL     1      21.240   1.387  48.549  1.00  0.00     0.004 A 
HETATM   21  C14 UNL     1      20.367   2.392  48.208  1.00  0.00     0.042 A 
HETATM   22  C15 UNL     1      19.775   3.117  49.224  1.00  0.00     0.116 A 
HETATM   23  F1  UNL     1      18.914   4.110  48.919  1.00  0.00    -0.206 F 
HETATM   24  C16 UNL     1      20.032   2.863  50.551  1.00  0.00     0.049 A 
ENDBRANCH  17  18
ENDBRANCH  11  17
BRANCH   1  25
HETATM   25  O1  UNL     1      28.349  -3.398  52.897  1.00  0.00    -0.344 OA
HETATM   26  H1  UNL     1      27.695  -3.410  52.101  1.00  0.00     0.219 HD
ENDBRANCH   1  25
TORSDOF 3
ENDMDL
MODEL 7
REMARK VINA RESULT:      -9.2      5.363      7.259
REMARK  3 active torsions:
REMARK  status: ('A' for Active; 'I' for Inactive)
REMARK    1  A    between atoms: O1_1  and  C1_2 
REMARK    2  A    between atoms: C9_12  and  C10_13 
REMARK    3  A    between atoms: C10_13  and  C11_14 
ROOT
HETATM    1  C1  UNL     1      27.550   6.693  47.892  1.00  0.00     0.175 A 
HETATM    2  N1  UNL     1      26.796   7.646  47.351  1.00  0.00    -0.218 NA
HETATM    3  C2  UNL     1      25.478   7.683  47.485  1.00  0.00     0.233 A 
HETATM    4  N2  UNL     1      24.938   6.688  48.206  1.00  0.00    -0.240 NA
HETATM    5  C3  UNL     1      25.689   5.698  48.773  1.00  0.00     0.197 A 
HETATM    6  C4  UNL     1      27.175   5.685  48.604  1.00  0.00     0.070 A 
HETATM    7  C5  UNL     1      26.847   4.675  49.313  1.00  0.00     0.066 A 
HETATM    8  C6  UNL     1      26.552   3.833  49.907  1.00  0.00    -0.060 A 
HETATM    9  C7  UNL     1      26.187   2.867  50.595  1.00  0.00    -0.065 A 
HETATM   10  C8  UNL     1      25.855   2.053  51.180  1.00  0.00     0.011 A 
HETATM   11  C9  UNL     1      25.420   1.048  51.914  1.00  0.00    -0.047 A 
HETATM   12  C17 UNL     1      24.300   1.759  51.606  1.00  0.00     0.082 A 
HETATM   13  C18 UNL     1      23.931   2.953  50.859  1.00  0.00     0.004 A 
HETATM   14  C19 UNL     1      23.807   4.050  50.136  1.00  0.00     0.083 A 
HETATM   15  N3  UNL     1      24.716   4.829  49.447  1.00  0.00    -0.364 N 
HETATM   16  H12 UNL     1      24.604   4.180  48.590  1.00  0.00     0.162 HD
ENDROOT
BRANCH  11  17
HETATM   17  C10 UNL     1      25.698  -0.115  52.645  1.00  0.00     0.075 C 
BRANCH  17  18
HETATM   18  C11 UNL     1      27.093  -0.245  53.155  1.00  0.00    -0.051 A 
HETATM   19  C12 UNL     1      27.756  -1.433  52.834  1.00  0.00     0.007 A 
HETATM   20  C13 UNL     1      29.050  -1.646  53.262  1.00  0.00     0.004 A 
HETATM   21  C14 UNL     1      29.710  -0.698  54.007  1.00  0.00     0.042 A 
HETATM   22  C15 UNL     1      29.042   0.471  54.317  1.00  0.00     0.116 A 
HETATM   23  F1  UNL     1      29.665   1.419  55.048  1.00  0.00    -0.206 F 
HETATM   24  C16 UNL     1      27.752   0.709  53.904  1.00  0.00     0.049 A 
ENDBRANCH  17  18
ENDBRANCH  11  17
BRANCH   1  25
HETATM   25  O1  UNL     1      28.912   6.351  47.956  1.00  0.00    -0.344 OA
HETATM   26  H1  UNL     1      29.561   7.100  48.236  1.00  0.00     0.219 HD
ENDBRANCH   1  25
TORSDOF 3
ENDMDL
MODEL 8
REMARK VINA RESULT:      -9.1      4.312      7.995
REMARK  3 active torsions:
REMARK  status: ('A' for Active; 'I' for Inactive)
REMARK    1  A    between atoms: O1_1  and  C1_2 
REMARK    2  A    between atoms: C9_12  and  C10_13 
REMARK    3  A    between atoms: C10_13  and  C11_14 
ROOT
HETATM    1  C1  UNL     1      27.551   0.534  54.615  1.00  0.00     0.175 A 
HETATM    2  N1  UNL     1      28.724   1.161  54.658  1.00  0.00    -0.218 NA
HETATM    3  C2  UNL     1      29.042   2.147  53.833  1.00  0.00     0.233 A 
HETATM    4  N2  UNL     1      28.102   2.483  52.936  1.00  0.00    -0.240 NA
HETATM    5  C3  UNL     1      26.890   1.856  52.870  1.00  0.00     0.197 A 
HETATM    6  C4  UNL     1      26.560   0.747  53.817  1.00  0.00     0.070 A 
HETATM    7  C5  UNL     1      25.556   0.924  53.049  1.00  0.00     0.066 A 
HETATM    8  C6  UNL     1      24.724   1.089  52.394  1.00  0.00    -0.060 A 
HETATM    9  C7  UNL     1      23.771   1.300  51.627  1.00  0.00    -0.065 A 
HETATM   10  C8  UNL     1      22.972   1.496  50.966  1.00  0.00     0.011 A 
HETATM   11  C9  UNL     1      21.984   1.763  50.134  1.00  0.00    -0.047 A 
HETATM   12  C17 UNL     1      22.955   2.664  49.815  1.00  0.00     0.082 A 
HETATM   13  C18 UNL     1      24.303   3.019  50.238  1.00  0.00     0.004 A 
HETATM   14  C19 UNL     1      25.503   3.178  50.762  1.00  0.00     0.083 A 
HETATM   15  N3  UNL     1      26.187   2.514  51.761  1.00  0.00    -0.364 N 
HETATM   16  H12 UNL     1      26.536   1.799  51.030  1.00  0.00     0.162 HD
ENDROOT
BRANCH  11  17
HETATM   17  C10 UNL     1      20.694   1.474  49.668  1.00  0.00     0.075 C 
BRANCH  17  18
HETATM   18  C11 UNL     1      19.802   0.760  50.626  1.00  0.00    -0.051 A 
HETATM   19  C12 UNL     1      18.470   0.609  50.228  1.00  0.00     0.007 A 
HETATM   20  C13 UNL     1      17.567  -0.037  51.046  1.00  0.00     0.004 A 
HETATM   21  C14 UNL     1      17.958  -0.544  52.263  1.00  0.00     0.042 A 
HETATM   22  C15 UNL     1      19.277  -0.387  52.643  1.00  0.00     0.116 A 
HETATM   23  F1  UNL     1      19.689  -0.874  53.833  1.00  0.00    -0.206 F 
HETATM   24  C16 UNL     1      20.198   0.253  51.847  1.00  0.00     0.049 A 
ENDBRANCH  17  18
ENDBRANCH  11  17
BRANCH   1  25
HETATM   25  O1  UNL     1      26.899  -0.505  55.301  1.00  0.00    -0.344 OA
HETATM   26  H1  UNL     1      26.815  -1.403  54.803  1.00  0.00     0.219 HD
ENDBRANCH   1  25
TORSDOF 3
ENDMDL
MODEL 9
REMARK VINA RESULT:      -9.0      6.978      9.463
REMARK  3 active torsions:
REMARK  status: ('A' for Active; 'I' for Inactive)
REMARK    1  A    between atoms: O1_1  and  C1_2 
REMARK    2  A    between atoms: C9_12  and  C10_13 
REMARK    3  A    between atoms: C10_13  and  C11_14 
ROOT
HETATM    1  C1  UNL     1      30.615   6.063  47.643  1.00  0.00     0.175 A 
HETATM    2  N1  UNL     1      31.046   7.322  47.617  1.00  0.00    -0.218 NA
HETATM    3  C2  UNL     1      30.315   8.341  48.046  1.00  0.00     0.233 A 
HETATM    4  N2  UNL     1      29.096   8.027  48.514  1.00  0.00    -0.240 NA
HETATM    5  C3  UNL     1      28.630   6.744  48.552  1.00  0.00     0.197 A 
HETATM    6  C4  UNL     1      29.480   5.616  48.061  1.00  0.00     0.070 A 
HETATM    7  C5  UNL     1      28.370   5.130  48.465  1.00  0.00     0.066 A 
HETATM    8  C6  UNL     1      27.433   4.742  48.809  1.00  0.00    -0.060 A 
HETATM    9  C7  UNL     1      26.340   4.315  49.217  1.00  0.00    -0.065 A 
HETATM   10  C8  UNL     1      25.407   3.973  49.570  1.00  0.00     0.011 A 
HETATM   11  C9  UNL     1      24.236   3.566  50.022  1.00  0.00    -0.047 A 
HETATM   12  C17 UNL     1      24.231   4.915  50.216  1.00  0.00     0.082 A 
HETATM   13  C18 UNL     1      25.104   6.058  49.991  1.00  0.00     0.004 A 
HETATM   14  C19 UNL     1      26.032   6.951  49.703  1.00  0.00     0.083 A 
HETATM   15  N3  UNL     1      27.277   6.853  49.113  1.00  0.00    -0.364 N 
HETATM   16  H12 UNL     1      26.810   6.937  48.142  1.00  0.00     0.162 HD
ENDROOT
BRANCH  11  17
HETATM   17  C10 UNL     1      23.340   2.516  50.262  1.00  0.00     0.075 C 
BRANCH  17  18
HETATM   18  C11 UNL     1      23.700   1.596  51.379  1.00  0.00    -0.051 A 
HETATM   19  C12 UNL     1      22.633   0.945  52.006  1.00  0.00     0.007 A 
HETATM   20  C13 UNL     1      22.865   0.074  53.051  1.00  0.00     0.004 A 
HETATM   21  C14 UNL     1      24.144  -0.170  53.492  1.00  0.00     0.042 A 
HETATM   22  C15 UNL     1      25.188   0.480  52.863  1.00  0.00     0.116 A 
HETATM   23  F1  UNL     1      26.454   0.260  53.276  1.00  0.00    -0.206 F 
HETATM   24  C16 UNL     1      24.985   1.353  51.820  1.00  0.00     0.049 A 
ENDBRANCH  17  18
ENDBRANCH  11  17
BRANCH   1  25
HETATM   25  O1  UNL     1      31.093   4.791  47.288  1.00  0.00    -0.344 OA
HETATM   26  H1  UNL     1      31.783   4.365  47.924  1.00  0.00     0.219 HD
ENDBRANCH   1  25
TORSDOF 3
ENDMDL
