MODEL 1
REMARK VINA RESULT:      -7.2      0.000      0.000
REMARK  6 active torsions:
REMARK  status: ('A' for Active; 'I' for Inactive)
REMARK    1  A    between atoms: O1_2  and  C2_3 
REMARK    2  A    between atoms: C7_8  and  N1_9 
REMARK    3  A    between atoms: N1_9  and  C8_10 
REMARK    4  A    between atoms: C11_14  and  N2_15 
REMARK    5  A    between atoms: N2_15  and  C12_16 
REMARK    6  A    between atoms: C17_21  and  O2_22 
ROOT
HETATM    1  C8  UNL     1      22.915   1.287  52.603  1.00  0.00     0.130 A 
HETATM    2  C9  UNL     1      22.212   0.609  53.549  1.00  0.00     0.052 A 
HETATM    3  C10 UNL     1      22.821  -0.439  54.208  1.00  0.00     0.023 A 
HETATM    4  P1  UNL     1      24.457  -0.799  53.760  1.00  0.00     0.019 P 
HETATM    5  C11 UNL     1      25.066   0.254  52.518  1.00  0.00     0.141 A 
HETATM    6  N3  UNL     1      24.148   1.134  52.158  1.00  0.00    -0.212 NA
ENDROOT
BRANCH   1   7
HETATM    7  N1  UNL     1      22.184   2.361  51.974  1.00  0.00    -0.339 N 
HETATM    8  H8  UNL     1      21.647   3.138  52.406  1.00  0.00     0.167 HD
BRANCH   7   9
HETATM    9  C7  UNL     1      22.228   2.317  50.545  1.00  0.00     0.067 A 
HETATM   10  C2  UNL     1      22.864   3.289  49.797  1.00  0.00     0.094 A 
HETATM   11  C3  UNL     1      22.907   3.246  48.407  1.00  0.00     0.039 A 
HETATM   12  C4  UNL     1      22.302   2.205  47.731  1.00  0.00     0.003 A 
HETATM   13  C5  UNL     1      21.656   1.213  48.441  1.00  0.00     0.002 A 
HETATM   14  C6  UNL     1      21.629   1.285  49.838  1.00  0.00     0.032 A 
BRANCH  10  15
HETATM   15  O1  UNL     1      23.483   4.349  50.409  1.00  0.00    -0.354 OA
HETATM   16  C1  UNL     1      22.977   5.660  50.455  1.00  0.00     0.210 C 
ENDBRANCH  10  15
ENDBRANCH   7   9
ENDBRANCH   1   7
BRANCH   5  17
HETATM   17  N2  UNL     1      26.380   0.227  51.921  1.00  0.00    -0.338 N 
HETATM   18  H11 UNL     1      26.628  -0.013  50.924  1.00  0.00     0.167 HD
BRANCH  17  19
HETATM   19  C12 UNL     1      27.461   0.570  52.806  1.00  0.00     0.067 A 
HETATM   20  C13 UNL     1      27.588   1.952  52.906  1.00  0.00     0.032 A 
HETATM   21  C14 UNL     1      28.585   2.486  53.719  1.00  0.00     0.002 A 
HETATM   22  C15 UNL     1      29.411   1.637  54.401  1.00  0.00     0.003 A 
HETATM   23  C16 UNL     1      29.285   0.283  54.304  1.00  0.00     0.039 A 
HETATM   24  C17 UNL     1      28.310  -0.271  53.506  1.00  0.00     0.094 A 
BRANCH  24  25
HETATM   25  O2  UNL     1      28.022  -1.602  53.276  1.00  0.00    -0.354 OA
HETATM   26  C18 UNL     1      28.957  -2.644  53.215  1.00  0.00     0.210 C 
ENDBRANCH  24  25
ENDBRANCH  17  19
ENDBRANCH   5  17
TORSDOF 6
ENDMDL
MODEL 2
REMARK VINA RESULT:      -7.2      0.789      6.985
REMARK  6 active torsions:
REMARK  status: ('A' for Active; 'I' for Inactive)
REMARK    1  A    between atoms: O1_2  and  C2_3 
REMARK    2  A    between atoms: C7_8  and  N1_9 
REMARK    3  A    between atoms: N1_9  and  C8_10 
REMARK    4  A    between atoms: C11_14  and  N2_15 
REMARK    5  A    between atoms: N2_15  and  C12_16 
REMARK    6  A    between atoms: C17_21  and  O2_22 
ROOT
HETATM    1  C8  UNL     1      25.006   0.090  52.578  1.00  0.00     0.130 A 
HETATM    2  C9  UNL     1      24.792  -0.843  53.543  1.00  0.00     0.052 A 
HETATM    3  C10 UNL     1      23.571  -0.865  54.189  1.00  0.00     0.023 A 
HETATM    4  P1  UNL     1      22.406   0.321  53.698  1.00  0.00     0.019 P 
HETATM    5  C11 UNL     1      22.993   1.367  52.439  1.00  0.00     0.141 A 
HETATM    6  N3  UNL     1      24.229   1.045  52.100  1.00  0.00    -0.212 NA
ENDROOT
BRANCH   1   7
HETATM    7  N1  UNL     1      26.314   0.028  51.970  1.00  0.00    -0.339 N 
HETATM    8  H8  UNL     1      26.598  -0.359  51.049  1.00  0.00     0.167 HD
BRANCH   7   9
HETATM    9  C7  UNL     1      27.347   0.591  52.783  1.00  0.00     0.067 A 
HETATM   10  C2  UNL     1      28.213  -0.192  53.521  1.00  0.00     0.094 A 
HETATM   11  C3  UNL     1      29.219   0.356  54.312  1.00  0.00     0.039 A 
HETATM   12  C4  UNL     1      29.375   1.727  54.375  1.00  0.00     0.003 A 
HETATM   13  C5  UNL     1      28.531   2.545  53.652  1.00  0.00     0.002 A 
HETATM   14  C6  UNL     1      27.529   1.963  52.867  1.00  0.00     0.032 A 
BRANCH  10  15
HETATM   15  O1  UNL     1      28.108  -1.560  53.502  1.00  0.00    -0.354 OA
HETATM   16  C1  UNL     1      29.166  -2.444  53.229  1.00  0.00     0.210 C 
ENDBRANCH  10  15
ENDBRANCH   7   9
ENDBRANCH   1   7
BRANCH   5  17
HETATM   17  N2  UNL     1      22.282   2.453  51.808  1.00  0.00    -0.338 N 
HETATM   18  H11 UNL     1      21.707   3.203  52.277  1.00  0.00     0.167 HD
BRANCH  17  19
HETATM   19  C12 UNL     1      22.384   2.499  50.373  1.00  0.00     0.067 A 
HETATM   20  C13 UNL     1      21.640   1.473  49.799  1.00  0.00     0.032 A 
HETATM   21  C14 UNL     1      21.613   1.346  48.412  1.00  0.00     0.002 A 
HETATM   22  C15 UNL     1      22.317   2.237  47.651  1.00  0.00     0.003 A 
HETATM   23  C16 UNL     1      23.045   3.243  48.214  1.00  0.00     0.039 A 
HETATM   24  C17 UNL     1      23.090   3.389  49.581  1.00  0.00     0.094 A 
BRANCH  24  25
HETATM   25  O2  UNL     1      23.761   4.331  50.337  1.00  0.00    -0.354 OA
HETATM   26  C18 UNL     1      25.102   4.705  50.179  1.00  0.00     0.210 C 
ENDBRANCH  24  25
ENDBRANCH  17  19
ENDBRANCH   5  17
TORSDOF 6
ENDMDL
MODEL 3
REMARK VINA RESULT:      -7.1      2.903      6.547
REMARK  6 active torsions:
REMARK  status: ('A' for Active; 'I' for Inactive)
REMARK    1  A    between atoms: O1_2  and  C2_3 
REMARK    2  A    between atoms: C7_8  and  N1_9 
REMARK    3  A    between atoms: N1_9  and  C8_10 
REMARK    4  A    between atoms: C11_14  and  N2_15 
REMARK    5  A    between atoms: N2_15  and  C12_16 
REMARK    6  A    between atoms: C17_21  and  O2_22 
ROOT
HETATM    1  C8  UNL     1      23.832   3.285  52.758  1.00  0.00     0.130 A 
HETATM    2  C9  UNL     1      23.440   4.585  52.812  1.00  0.00     0.052 A 
HETATM    3  C10 UNL     1      22.253   4.948  52.206  1.00  0.00     0.023 A 
HETATM    4  P1  UNL     1      21.359   3.687  51.421  1.00  0.00     0.019 P 
HETATM    5  C11 UNL     1      22.134   2.135  51.534  1.00  0.00     0.141 A 
HETATM    6  N3  UNL     1      23.269   2.226  52.206  1.00  0.00    -0.212 NA
ENDROOT
BRANCH   1   7
HETATM    7  N1  UNL     1      25.086   3.014  53.419  1.00  0.00    -0.339 N 
HETATM    8  H8  UNL     1      25.642   3.616  54.058  1.00  0.00     0.167 HD
BRANCH   7   9
HETATM    9  C7  UNL     1      25.613   1.715  53.129  1.00  0.00     0.067 A 
HETATM   10  C2  UNL     1      26.569   1.509  52.155  1.00  0.00     0.094 A 
HETATM   11  C3  UNL     1      27.083   0.247  51.873  1.00  0.00     0.039 A 
HETATM   12  C4  UNL     1      26.635  -0.852  52.581  1.00  0.00     0.003 A 
HETATM   13  C5  UNL     1      25.681  -0.689  53.564  1.00  0.00     0.002 A 
HETATM   14  C6  UNL     1      25.184   0.594  53.823  1.00  0.00     0.032 A 
BRANCH  10  15
HETATM   15  O1  UNL     1      27.054   2.559  51.416  1.00  0.00    -0.354 OA
HETATM   16  C1  UNL     1      26.497   3.020  50.211  1.00  0.00     0.210 C 
ENDBRANCH  10  15
ENDBRANCH   7   9
ENDBRANCH   1   7
BRANCH   5  17
HETATM   17  N2  UNL     1      21.661   0.884  50.991  1.00  0.00    -0.338 N 
HETATM   18  H11 UNL     1      22.070   0.336  50.189  1.00  0.00     0.167 HD
BRANCH  17  19
HETATM   19  C12 UNL     1      20.494   0.341  51.637  1.00  0.00     0.067 A 
HETATM   20  C13 UNL     1      19.368   0.527  50.842  1.00  0.00     0.032 A 
HETATM   21  C14 UNL     1      18.133   0.069  51.295  1.00  0.00     0.002 A 
HETATM   22  C15 UNL     1      18.061  -0.554  52.509  1.00  0.00     0.003 A 
HETATM   23  C16 UNL     1      19.166  -0.737  53.287  1.00  0.00     0.039 A 
HETATM   24  C17 UNL     1      20.398  -0.293  52.864  1.00  0.00     0.094 A 
BRANCH  24  25
HETATM   25  O2  UNL     1      21.622  -0.381  53.497  1.00  0.00    -0.354 OA
HETATM   26  C18 UNL     1      21.927  -1.216  54.580  1.00  0.00     0.210 C 
ENDBRANCH  24  25
ENDBRANCH  17  19
ENDBRANCH   5  17
TORSDOF 6
ENDMDL
MODEL 4
REMARK VINA RESULT:      -7.0      2.280      7.111
REMARK  6 active torsions:
REMARK  status: ('A' for Active; 'I' for Inactive)
REMARK    1  A    between atoms: O1_2  and  C2_3 
REMARK    2  A    between atoms: C7_8  and  N1_9 
REMARK    3  A    between atoms: N1_9  and  C8_10 
REMARK    4  A    between atoms: C11_14  and  N2_15 
REMARK    5  A    between atoms: N2_15  and  C12_16 
REMARK    6  A    between atoms: C17_21  and  O2_22 
ROOT
HETATM    1  C8  UNL     1      25.642   1.679  52.960  1.00  0.00     0.130 A 
HETATM    2  C9  UNL     1      26.637   1.927  52.068  1.00  0.00     0.052 A 
HETATM    3  C10 UNL     1      26.359   2.702  50.959  1.00  0.00     0.023 A 
HETATM    4  P1  UNL     1      24.738   3.298  50.809  1.00  0.00     0.019 P 
HETATM    5  C11 UNL     1      23.709   2.801  52.119  1.00  0.00     0.141 A 
HETATM    6  N3  UNL     1      24.377   2.057  52.984  1.00  0.00    -0.212 NA
ENDROOT
BRANCH   1   7
HETATM    7  N1  UNL     1      26.038   0.858  54.080  1.00  0.00    -0.339 N 
HETATM    8  H8  UNL     1      25.732   0.898  55.072  1.00  0.00     0.167 HD
BRANCH   7   9
HETATM    9  C7  UNL     1      26.993  -0.150  53.736  1.00  0.00     0.067 A 
HETATM   10  C2  UNL     1      28.310  -0.087  54.147  1.00  0.00     0.094 A 
HETATM   11  C3  UNL     1      29.240  -1.068  53.813  1.00  0.00     0.039 A 
HETATM   12  C4  UNL     1      28.853  -2.150  53.047  1.00  0.00     0.003 A 
HETATM   13  C5  UNL     1      27.546  -2.251  52.616  1.00  0.00     0.002 A 
HETATM   14  C6  UNL     1      26.636  -1.248  52.968  1.00  0.00     0.032 A 
BRANCH  10  15
HETATM   15  O1  UNL     1      28.757   0.962  54.909  1.00  0.00    -0.354 OA
HETATM   16  C1  UNL     1      29.471   2.068  54.417  1.00  0.00     0.210 C 
ENDBRANCH  10  15
ENDBRANCH   7   9
ENDBRANCH   1   7
BRANCH   5  17
HETATM   17  N2  UNL     1      22.313   3.120  52.299  1.00  0.00    -0.338 N 
HETATM   18  H11 UNL     1      21.904   3.970  52.772  1.00  0.00     0.167 HD
BRANCH  17  19
HETATM   19  C12 UNL     1      21.391   2.154  51.763  1.00  0.00     0.067 A 
HETATM   20  C13 UNL     1      21.123   2.427  50.425  1.00  0.00     0.032 A 
HETATM   21  C14 UNL     1      20.247   1.601  49.725  1.00  0.00     0.002 A 
HETATM   22  C15 UNL     1      19.676   0.541  50.371  1.00  0.00     0.003 A 
HETATM   23  C16 UNL     1      19.940   0.273  51.682  1.00  0.00     0.039 A 
HETATM   24  C17 UNL     1      20.800   1.074  52.396  1.00  0.00     0.094 A 
BRANCH  24  25
HETATM   25  O2  UNL     1      21.193   0.972  53.717  1.00  0.00    -0.354 OA
HETATM   26  C18 UNL     1      21.684  -0.184  54.339  1.00  0.00     0.210 C 
ENDBRANCH  24  25
ENDBRANCH  17  19
ENDBRANCH   5  17
TORSDOF 6
ENDMDL
MODEL 5
REMARK VINA RESULT:      -7.0      2.824      4.738
REMARK  6 active torsions:
REMARK  status: ('A' for Active; 'I' for Inactive)
REMARK    1  A    between atoms: O1_2  and  C2_3 
REMARK    2  A    between atoms: C7_8  and  N1_9 
REMARK    3  A    between atoms: N1_9  and  C8_10 
REMARK    4  A    between atoms: C11_14  and  N2_15 
REMARK    5  A    between atoms: N2_15  and  C12_16 
REMARK    6  A    between atoms: C17_21  and  O2_22 
ROOT
HETATM    1  C8  UNL     1      22.020   2.402  51.425  1.00  0.00     0.130 A 
HETATM    2  C9  UNL     1      21.224   3.447  51.077  1.00  0.00     0.052 A 
HETATM    3  C10 UNL     1      21.599   4.722  51.449  1.00  0.00     0.023 A 
HETATM    4  P1  UNL     1      23.079   4.874  52.340  1.00  0.00     0.019 P 
HETATM    5  C11 UNL     1      23.858   3.346  52.622  1.00  0.00     0.141 A 
HETATM    6  N3  UNL     1      23.159   2.357  52.092  1.00  0.00    -0.212 NA
ENDROOT
BRANCH   1   7
HETATM    7  N1  UNL     1      21.536   1.113  50.990  1.00  0.00    -0.339 N 
HETATM    8  H8  UNL     1      21.381   0.755  50.028  1.00  0.00     0.167 HD
BRANCH   7   9
HETATM    9  C7  UNL     1      21.235   0.225  52.070  1.00  0.00     0.067 A 
HETATM   10  C2  UNL     1      19.948   0.039  52.534  1.00  0.00     0.094 A 
HETATM   11  C3  UNL     1      19.654  -0.826  53.584  1.00  0.00     0.039 A 
HETATM   12  C4  UNL     1      20.670  -1.534  54.197  1.00  0.00     0.003 A 
HETATM   13  C5  UNL     1      21.971  -1.377  53.763  1.00  0.00     0.002 A 
HETATM   14  C6  UNL     1      22.233  -0.499  52.705  1.00  0.00     0.032 A 
BRANCH  10  15
HETATM   15  O1  UNL     1      18.896   0.713  51.968  1.00  0.00    -0.354 OA
HETATM   16  C1  UNL     1      17.949   0.144  51.099  1.00  0.00     0.210 C 
ENDBRANCH  10  15
ENDBRANCH   7   9
ENDBRANCH   1   7
BRANCH   5  17
HETATM   17  N2  UNL     1      25.097   3.118  53.328  1.00  0.00    -0.338 N 
HETATM   18  H11 UNL     1      25.561   3.752  54.032  1.00  0.00     0.167 HD
BRANCH  17  19
HETATM   19  C12 UNL     1      25.756   1.876  53.020  1.00  0.00     0.067 A 
HETATM   20  C13 UNL     1      25.326   0.871  53.880  1.00  0.00     0.032 A 
HETATM   21  C14 UNL     1      25.851  -0.412  53.744  1.00  0.00     0.002 A 
HETATM   22  C15 UNL     1      26.775  -0.650  52.765  1.00  0.00     0.003 A 
HETATM   23  C16 UNL     1      27.196   0.336  51.921  1.00  0.00     0.039 A 
HETATM   24  C17 UNL     1      26.693   1.612  52.036  1.00  0.00     0.094 A 
BRANCH  24  25
HETATM   25  O2  UNL     1      26.987   2.736  51.288  1.00  0.00    -0.354 OA
HETATM   26  C18 UNL     1      26.475   3.031  50.017  1.00  0.00     0.210 C 
ENDBRANCH  24  25
ENDBRANCH  17  19
ENDBRANCH   5  17
TORSDOF 6
ENDMDL
MODEL 6
REMARK VINA RESULT:      -7.0      1.273      6.768
REMARK  6 active torsions:
REMARK  status: ('A' for Active; 'I' for Inactive)
REMARK    1  A    between atoms: O1_2  and  C2_3 
REMARK    2  A    between atoms: C7_8  and  N1_9 
REMARK    3  A    between atoms: N1_9  and  C8_10 
REMARK    4  A    between atoms: C11_14  and  N2_15 
REMARK    5  A    between atoms: N2_15  and  C12_16 
REMARK    6  A    between atoms: C17_21  and  O2_22 
ROOT
HETATM    1  C8  UNL     1      24.656   0.602  53.508  1.00  0.00     0.130 A 
HETATM    2  C9  UNL     1      24.490  -0.502  54.282  1.00  0.00     0.052 A 
HETATM    3  C10 UNL     1      23.214  -0.997  54.471  1.00  0.00     0.023 A 
HETATM    4  P1  UNL     1      21.922  -0.146  53.687  1.00  0.00     0.019 P 
HETATM    5  C11 UNL     1      22.472   1.226  52.772  1.00  0.00     0.141 A 
HETATM    6  N3  UNL     1      23.785   1.349  52.855  1.00  0.00    -0.212 NA
ENDROOT
BRANCH   1   7
HETATM    7  N1  UNL     1      26.027   1.037  53.378  1.00  0.00    -0.339 N 
HETATM    8  H8  UNL     1      26.415   2.000  53.333  1.00  0.00     0.167 HD
BRANCH   7   9
HETATM    9  C7  UNL     1      26.961  -0.044  53.303  1.00  0.00     0.067 A 
HETATM   10  C2  UNL     1      28.179  -0.011  53.952  1.00  0.00     0.094 A 
HETATM   11  C3  UNL     1      29.088  -1.063  53.880  1.00  0.00     0.039 A 
HETATM   12  C4  UNL     1      28.781  -2.188  53.140  1.00  0.00     0.003 A 
HETATM   13  C5  UNL     1      27.574  -2.260  52.476  1.00  0.00     0.002 A 
HETATM   14  C6  UNL     1      26.682  -1.186  52.568  1.00  0.00     0.032 A 
BRANCH  10  15
HETATM   15  O1  UNL     1      28.543   1.078  54.703  1.00  0.00    -0.354 OA
HETATM   16  C1  UNL     1      29.395   2.108  54.267  1.00  0.00     0.210 C 
ENDBRANCH  10  15
ENDBRANCH   7   9
ENDBRANCH   1   7
BRANCH   5  17
HETATM   17  N2  UNL     1      21.661   2.142  52.006  1.00  0.00    -0.338 N 
HETATM   18  H11 UNL     1      20.882   2.759  52.358  1.00  0.00     0.167 HD
BRANCH  17  19
HETATM   19  C12 UNL     1      21.970   2.204  50.601  1.00  0.00     0.067 A 
HETATM   20  C13 UNL     1      21.407   1.124  49.931  1.00  0.00     0.032 A 
HETATM   21  C14 UNL     1      21.595   1.003  48.556  1.00  0.00     0.002 A 
HETATM   22  C15 UNL     1      22.328   1.953  47.901  1.00  0.00     0.003 A 
HETATM   23  C16 UNL     1      22.879   3.013  48.559  1.00  0.00     0.039 A 
HETATM   24  C17 UNL     1      22.709   3.154  49.917  1.00  0.00     0.094 A 
BRANCH  24  25
HETATM   25  O2  UNL     1      23.181   4.144  50.757  1.00  0.00    -0.354 OA
HETATM   26  C18 UNL     1      24.516   4.553  50.874  1.00  0.00     0.210 C 
ENDBRANCH  24  25
ENDBRANCH  17  19
ENDBRANCH   5  17
TORSDOF 6
ENDMDL
MODEL 7
REMARK VINA RESULT:      -7.0      2.228      3.723
REMARK  6 active torsions:
REMARK  status: ('A' for Active; 'I' for Inactive)
REMARK    1  A    between atoms: O1_2  and  C2_3 
REMARK    2  A    between atoms: C7_8  and  N1_9 
REMARK    3  A    between atoms: N1_9  and  C8_10 
REMARK    4  A    between atoms: C11_14  and  N2_15 
REMARK    5  A    between atoms: N2_15  and  C12_16 
REMARK    6  A    between atoms: C17_21  and  O2_22 
ROOT
HETATM    1  C8  UNL     1      23.729   2.730  52.128  1.00  0.00     0.130 A 
HETATM    2  C9  UNL     1      24.206   3.264  50.973  1.00  0.00     0.052 A 
HETATM    3  C10 UNL     1      25.514   3.008  50.612  1.00  0.00     0.023 A 
HETATM    4  P1  UNL     1      26.441   2.010  51.685  1.00  0.00     0.019 P 
HETATM    5  C11 UNL     1      25.536   1.488  53.075  1.00  0.00     0.141 A 
HETATM    6  N3  UNL     1      24.302   1.962  53.037  1.00  0.00    -0.212 NA
ENDROOT
BRANCH   1   7
HETATM    7  N1  UNL     1      22.353   3.061  52.413  1.00  0.00    -0.339 N 
HETATM    8  H8  UNL     1      21.961   3.859  52.951  1.00  0.00     0.167 HD
BRANCH   7   9
HETATM    9  C7  UNL     1      21.418   2.131  51.858  1.00  0.00     0.067 A 
HETATM   10  C2  UNL     1      20.900   1.081  52.589  1.00  0.00     0.094 A 
HETATM   11  C3  UNL     1      19.990   0.177  52.050  1.00  0.00     0.039 A 
HETATM   12  C4  UNL     1      19.575   0.318  50.740  1.00  0.00     0.003 A 
HETATM   13  C5  UNL     1      20.068   1.355  49.974  1.00  0.00     0.002 A 
HETATM   14  C6  UNL     1      20.982   2.246  50.546  1.00  0.00     0.032 A 
BRANCH  10  15
HETATM   15  O1  UNL     1      21.274   0.886  53.895  1.00  0.00    -0.354 OA
HETATM   16  C1  UNL     1      21.285  -0.356  54.552  1.00  0.00     0.210 C 
ENDBRANCH  10  15
ENDBRANCH   7   9
ENDBRANCH   1   7
BRANCH   5  17
HETATM   17  N2  UNL     1      26.005   0.654  54.156  1.00  0.00    -0.338 N 
HETATM   18  H11 UNL     1      25.651   0.630  55.149  1.00  0.00     0.167 HD
BRANCH  17  19
HETATM   19  C12 UNL     1      27.079  -0.241  53.815  1.00  0.00     0.067 A 
HETATM   20  C13 UNL     1      26.597  -1.326  53.090  1.00  0.00     0.032 A 
HETATM   21  C14 UNL     1      27.486  -2.310  52.665  1.00  0.00     0.002 A 
HETATM   22  C15 UNL     1      28.813  -2.181  52.971  1.00  0.00     0.003 A 
HETATM   23  C16 UNL     1      29.285  -1.117  53.681  1.00  0.00     0.039 A 
HETATM   24  C17 UNL     1      28.427  -0.132  54.113  1.00  0.00     0.094 A 
BRANCH  24  25
HETATM   25  O2  UNL     1      28.704   1.012  54.835  1.00  0.00    -0.354 OA
HETATM   26  C18 UNL     1      29.469   2.098  54.389  1.00  0.00     0.210 C 
ENDBRANCH  24  25
ENDBRANCH  17  19
ENDBRANCH   5  17
TORSDOF 6
ENDMDL
MODEL 8
REMARK VINA RESULT:      -7.0      2.832      6.449
REMARK  6 active torsions:
REMARK  status: ('A' for Active; 'I' for Inactive)
REMARK    1  A    between atoms: O1_2  and  C2_3 
REMARK    2  A    between atoms: C7_8  and  N1_9 
REMARK    3  A    between atoms: N1_9  and  C8_10 
REMARK    4  A    between atoms: C11_14  and  N2_15 
REMARK    5  A    between atoms: N2_15  and  C12_16 
REMARK    6  A    between atoms: C17_21  and  O2_22 
ROOT
HETATM    1  C8  UNL     1      23.803   3.496  52.592  1.00  0.00     0.130 A 
HETATM    2  C9  UNL     1      23.555   4.816  52.380  1.00  0.00     0.052 A 
HETATM    3  C10 UNL     1      22.488   5.173  51.580  1.00  0.00     0.023 A 
HETATM    4  P1  UNL     1      21.545   3.881  50.911  1.00  0.00     0.019 P 
HETATM    5  C11 UNL     1      22.125   2.309  51.375  1.00  0.00     0.141 A 
HETATM    6  N3  UNL     1      23.185   2.412  52.158  1.00  0.00    -0.212 NA
ENDROOT
BRANCH   1   7
HETATM    7  N1  UNL     1      24.941   3.232  53.439  1.00  0.00    -0.339 N 
HETATM    8  H8  UNL     1      25.358   3.817  54.190  1.00  0.00     0.167 HD
BRANCH   7   9
HETATM    9  C7  UNL     1      25.564   1.971  53.178  1.00  0.00     0.067 A 
HETATM   10  C2  UNL     1      26.490   1.802  52.168  1.00  0.00     0.094 A 
HETATM   11  C3  UNL     1      27.097   0.575  51.914  1.00  0.00     0.039 A 
HETATM   12  C4  UNL     1      26.777  -0.524  52.688  1.00  0.00     0.003 A 
HETATM   13  C5  UNL     1      25.857  -0.397  53.708  1.00  0.00     0.002 A 
HETATM   14  C6  UNL     1      25.264   0.850  53.937  1.00  0.00     0.032 A 
BRANCH  10  15
HETATM   15  O1  UNL     1      26.849   2.854  51.363  1.00  0.00    -0.354 OA
HETATM   16  C1  UNL     1      26.418   3.037  50.038  1.00  0.00     0.210 C 
ENDBRANCH  10  15
ENDBRANCH   7   9
ENDBRANCH   1   7
BRANCH   5  17
HETATM   17  N2  UNL     1      21.574   1.031  50.994  1.00  0.00    -0.338 N 
HETATM   18  H11 UNL     1      21.446   0.651  50.018  1.00  0.00     0.167 HD
BRANCH  17  19
HETATM   19  C12 UNL     1      21.159   0.193  52.088  1.00  0.00     0.067 A 
HETATM   20  C13 UNL     1      22.257  -0.442  52.659  1.00  0.00     0.032 A 
HETATM   21  C14 UNL     1      22.062  -1.301  53.737  1.00  0.00     0.002 A 
HETATM   22  C15 UNL     1      20.793  -1.495  54.209  1.00  0.00     0.003 A 
HETATM   23  C16 UNL     1      19.717  -0.871  53.650  1.00  0.00     0.039 A 
HETATM   24  C17 UNL     1      19.883  -0.019  52.583  1.00  0.00     0.094 A 
BRANCH  24  25
HETATM   25  O2  UNL     1      18.933   0.701  51.885  1.00  0.00    -0.354 OA
HETATM   26  C18 UNL     1      18.050   0.181  50.928  1.00  0.00     0.210 C 
ENDBRANCH  24  25
ENDBRANCH  17  19
ENDBRANCH   5  17
TORSDOF 6
ENDMDL
MODEL 9
REMARK VINA RESULT:      -6.9      2.279      7.416
REMARK  6 active torsions:
REMARK  status: ('A' for Active; 'I' for Inactive)
REMARK    1  A    between atoms: O1_2  and  C2_3 
REMARK    2  A    between atoms: C7_8  and  N1_9 
REMARK    3  A    between atoms: N1_9  and  C8_10 
REMARK    4  A    between atoms: C11_14  and  N2_15 
REMARK    5  A    between atoms: N2_15  and  C12_16 
REMARK    6  A    between atoms: C17_21  and  O2_22 
ROOT
HETATM    1  C8  UNL     1      26.238   2.335  52.875  1.00  0.00     0.130 A 
HETATM    2  C9  UNL     1      27.031   2.462  51.778  1.00  0.00     0.052 A 
HETATM    3  C10 UNL     1      26.477   2.943  50.608  1.00  0.00     0.023 A 
HETATM    4  P1  UNL     1      24.792   3.348  50.649  1.00  0.00     0.019 P 
HETATM    5  C11 UNL     1      24.066   3.069  52.205  1.00  0.00     0.141 A 
HETATM    6  N3  UNL     1      24.957   2.597  53.060  1.00  0.00    -0.212 NA
ENDROOT
BRANCH   1   7
HETATM    7  N1  UNL     1      26.914   1.821  54.042  1.00  0.00    -0.339 N 
HETATM    8  H8  UNL     1      26.910   2.175  55.019  1.00  0.00     0.167 HD
BRANCH   7   9
HETATM    9  C7  UNL     1      27.696   0.653  53.778  1.00  0.00     0.067 A 
HETATM   10  C2  UNL     1      27.121  -0.556  53.439  1.00  0.00     0.094 A 
HETATM   11  C3  UNL     1      27.881  -1.693  53.181  1.00  0.00     0.039 A 
HETATM   12  C4  UNL     1      29.259  -1.633  53.260  1.00  0.00     0.003 A 
HETATM   13  C5  UNL     1      29.873  -0.443  53.596  1.00  0.00     0.002 A 
HETATM   14  C6  UNL     1      29.080   0.682  53.850  1.00  0.00     0.032 A 
BRANCH  10  15
HETATM   15  O1  UNL     1      25.758  -0.682  53.344  1.00  0.00    -0.354 OA
HETATM   16  C1  UNL     1      24.889  -0.865  54.433  1.00  0.00     0.210 C 
ENDBRANCH  10  15
ENDBRANCH   7   9
ENDBRANCH   1   7
BRANCH   5  17
HETATM   17  N2  UNL     1      22.691   3.299  52.577  1.00  0.00    -0.338 N 
HETATM   18  H11 UNL     1      22.308   4.083  53.169  1.00  0.00     0.167 HD
BRANCH  17  19
HETATM   19  C12 UNL     1      21.751   2.334  52.069  1.00  0.00     0.067 A 
HETATM   20  C13 UNL     1      21.757   1.187  52.857  1.00  0.00     0.032 A 
HETATM   21  C14 UNL     1      20.912   0.131  52.527  1.00  0.00     0.002 A 
HETATM   22  C15 UNL     1      20.096   0.250  51.436  1.00  0.00     0.003 A 
HETATM   23  C16 UNL     1      20.090   1.375  50.665  1.00  0.00     0.039 A 
HETATM   24  C17 UNL     1      20.916   2.432  50.969  1.00  0.00     0.094 A 
BRANCH  24  25
HETATM   25  O2  UNL     1      21.057   3.644  50.321  1.00  0.00    -0.354 OA
HETATM   26  C18 UNL     1      20.202   4.747  50.450  1.00  0.00     0.210 C 
ENDBRANCH  24  25
ENDBRANCH  17  19
ENDBRANCH   5  17
TORSDOF 6
ENDMDL
