MODEL 1
REMARK VINA RESULT:      -8.8      0.000      0.000
REMARK  1 active torsions:
REMARK  status: ('A' for Active; 'I' for Inactive)
REMARK    1  A    between atoms: N1_3  and  C3_4 
ROOT
HETATM    1  C3  UNL     1      25.972   4.093  49.884  1.00  0.00     0.070 A 
HETATM    2  C4  UNL     1      24.779   3.376  49.598  1.00  0.00     0.010 A 
HETATM    3  C5  UNL     1      23.504   2.689  49.455  1.00  0.00     0.009 A 
HETATM    4  C6  UNL     1      23.040   2.630  48.186  1.00  0.00     0.015 A 
HETATM    5  C7  UNL     1      21.863   2.026  47.804  1.00  0.00     0.001 A 
HETATM    6  C8  UNL     1      21.117   1.443  48.806  1.00  0.00     0.003 A 
HETATM    7  C9  UNL     1      21.602   1.510  50.105  1.00  0.00     0.038 A 
HETATM    8  C10 UNL     1      22.799   2.125  50.498  1.00  0.00     0.087 A 
HETATM    9  O1  UNL     1      22.903   1.968  51.858  1.00  0.00    -0.309 OA
HETATM   10  C11 UNL     1      23.681   1.120  52.582  1.00  0.00     0.085 A 
HETATM   11  C12 UNL     1      22.889   0.301  53.385  1.00  0.00     0.061 A 
HETATM   12  C13 UNL     1      23.435  -0.665  54.236  1.00  0.00     0.036 A 
HETATM   13 CL1  UNL     1      22.482  -1.712  55.259  1.00  0.00    -0.084 Cl
HETATM   14  C14 UNL     1      24.793  -0.817  54.285  1.00  0.00     0.024 A 
HETATM   15  C15 UNL     1      25.592  -0.034  53.514  1.00  0.00     0.013 A 
HETATM   16  C16 UNL     1      25.067   0.905  52.687  1.00  0.00    -0.007 A 
HETATM   17  C17 UNL     1      25.553   1.913  51.708  1.00  0.00     0.156 C 
HETATM   18  N2  UNL     1      24.996   3.209  51.984  1.00  0.00    -0.404 N 
HETATM   19  C18 UNL     1      24.929   4.070  50.855  1.00  0.00     0.166 A 
HETATM   20  H14 UNL     1      25.241   3.619  52.872  1.00  0.00     0.154 HD
ENDROOT
BRANCH   1  21
HETATM   21  N1  UNL     1      27.225   4.407  49.294  1.00  0.00    -0.267 NA
HETATM   22  C2  UNL     1      27.463   5.454  48.583  1.00  0.00     0.085 C 
HETATM   23  C1  UNL     1      28.897   5.432  48.139  1.00  0.00     0.057 C 
ENDBRANCH   1  21
TORSDOF 1
ENDMDL
MODEL 2
REMARK VINA RESULT:      -8.6      2.514      4.208
REMARK  1 active torsions:
REMARK  status: ('A' for Active; 'I' for Inactive)
REMARK    1  A    between atoms: N1_3  and  C3_4 
ROOT
HETATM    1  C3  UNL     1      27.653   1.419  53.308  1.00  0.00     0.070 A 
HETATM    2  C4  UNL     1      26.902   2.050  52.281  1.00  0.00     0.010 A 
HETATM    3  C5  UNL     1      26.030   2.751  51.348  1.00  0.00     0.009 A 
HETATM    4  C6  UNL     1      26.661   3.246  50.258  1.00  0.00     0.015 A 
HETATM    5  C7  UNL     1      26.047   3.936  49.238  1.00  0.00     0.001 A 
HETATM    6  C8  UNL     1      24.686   4.125  49.355  1.00  0.00     0.003 A 
HETATM    7  C9  UNL     1      24.049   3.613  50.478  1.00  0.00     0.038 A 
HETATM    8  C10 UNL     1      24.672   2.911  51.518  1.00  0.00     0.087 A 
HETATM    9  O1  UNL     1      23.692   2.586  52.424  1.00  0.00    -0.309 OA
HETATM   10  C11 UNL     1      23.077   1.397  52.656  1.00  0.00     0.085 A 
HETATM   11  C12 UNL     1      21.701   1.517  52.469  1.00  0.00     0.061 A 
HETATM   12  C13 UNL     1      20.825   0.441  52.644  1.00  0.00     0.036 A 
HETATM   13 CL1  UNL     1      19.096   0.546  52.420  1.00  0.00    -0.084 Cl
HETATM   14  C14 UNL     1      21.332  -0.775  53.011  1.00  0.00     0.024 A 
HETATM   15  C15 UNL     1      22.668  -0.925  53.202  1.00  0.00     0.013 A 
HETATM   16  C16 UNL     1      23.522   0.117  53.032  1.00  0.00    -0.007 A 
HETATM   17  C17 UNL     1      24.984   0.373  53.116  1.00  0.00     0.156 C 
HETATM   18  N2  UNL     1      25.260   1.511  53.948  1.00  0.00    -0.404 N 
HETATM   19  C18 UNL     1      26.490   2.164  53.660  1.00  0.00     0.166 A 
HETATM   20  H14 UNL     1      24.988   1.433  54.916  1.00  0.00     0.154 HD
ENDROOT
BRANCH   1  21
HETATM   21  N1  UNL     1      28.812   0.616  53.477  1.00  0.00    -0.267 NA
HETATM   22  C2  UNL     1      28.810  -0.668  53.579  1.00  0.00     0.085 C 
HETATM   23  C1  UNL     1      30.221  -1.151  53.745  1.00  0.00     0.057 C 
ENDBRANCH   1  21
TORSDOF 1
ENDMDL
MODEL 3
REMARK VINA RESULT:      -8.3      2.788      4.630
REMARK  1 active torsions:
REMARK  status: ('A' for Active; 'I' for Inactive)
REMARK    1  A    between atoms: N1_3  and  C3_4 
ROOT
HETATM    1  C3  UNL     1      26.902   0.907  52.862  1.00  0.00     0.070 A 
HETATM    2  C4  UNL     1      26.452   1.867  51.915  1.00  0.00     0.010 A 
HETATM    3  C5  UNL     1      25.901   2.916  51.069  1.00  0.00     0.009 A 
HETATM    4  C6  UNL     1      26.731   3.335  50.087  1.00  0.00     0.015 A 
HETATM    5  C7  UNL     1      26.429   4.308  49.161  1.00  0.00     0.001 A 
HETATM    6  C8  UNL     1      25.181   4.885  49.260  1.00  0.00     0.003 A 
HETATM    7  C9  UNL     1      24.338   4.448  50.273  1.00  0.00     0.038 A 
HETATM    8  C10 UNL     1      24.643   3.459  51.217  1.00  0.00     0.087 A 
HETATM    9  O1  UNL     1      23.545   3.330  52.033  1.00  0.00    -0.309 OA
HETATM   10  C11 UNL     1      22.589   2.365  52.064  1.00  0.00     0.085 A 
HETATM   11  C12 UNL     1      21.329   2.922  51.853  1.00  0.00     0.061 A 
HETATM   12  C13 UNL     1      20.163   2.151  51.837  1.00  0.00     0.036 A 
HETATM   13 CL1  UNL     1      18.565   2.805  51.575  1.00  0.00    -0.084 Cl
HETATM   14  C14 UNL     1      20.256   0.801  52.036  1.00  0.00     0.024 A 
HETATM   15  C15 UNL     1      21.470   0.228  52.245  1.00  0.00     0.013 A 
HETATM   16  C16 UNL     1      22.604   0.973  52.261  1.00  0.00    -0.007 A 
HETATM   17  C17 UNL     1      24.065   0.758  52.429  1.00  0.00     0.156 C 
HETATM   18  N2  UNL     1      24.603   1.638  53.430  1.00  0.00    -0.404 N 
HETATM   19  C18 UNL     1      25.990   1.917  53.282  1.00  0.00     0.166 A 
HETATM   20  H14 UNL     1      24.247   1.519  54.366  1.00  0.00     0.154 HD
ENDROOT
BRANCH   1  21
HETATM   21  N1  UNL     1      27.754  -0.226  52.946  1.00  0.00    -0.267 NA
HETATM   22  C2  UNL     1      28.882  -0.254  53.567  1.00  0.00     0.085 C 
HETATM   23  C1  UNL     1      29.485  -1.622  53.432  1.00  0.00     0.057 C 
ENDBRANCH   1  21
TORSDOF 1
ENDMDL
MODEL 4
REMARK VINA RESULT:      -8.2      3.357      5.330
REMARK  1 active torsions:
REMARK  status: ('A' for Active; 'I' for Inactive)
REMARK    1  A    between atoms: N1_3  and  C3_4 
ROOT
HETATM    1  C3  UNL     1      26.519   0.803  53.240  1.00  0.00     0.070 A 
HETATM    2  C4  UNL     1      25.215   0.341  53.565  1.00  0.00     0.010 A 
HETATM    3  C5  UNL     1      23.845  -0.122  53.735  1.00  0.00     0.009 A 
HETATM    4  C6  UNL     1      23.675  -1.003  54.748  1.00  0.00     0.015 A 
HETATM    5  C7  UNL     1      22.472  -1.571  55.105  1.00  0.00     0.001 A 
HETATM    6  C8  UNL     1      21.372  -1.198  54.362  1.00  0.00     0.003 A 
HETATM    7  C9  UNL     1      21.559  -0.294  53.325  1.00  0.00     0.038 A 
HETATM    8  C10 UNL     1      22.781   0.284  52.959  1.00  0.00     0.087 A 
HETATM    9  O1  UNL     1      22.529   1.114  51.893  1.00  0.00    -0.309 OA
HETATM   10  C11 UNL     1      22.440   2.469  51.844  1.00  0.00     0.085 A 
HETATM   11  C12 UNL     1      21.187   2.856  51.372  1.00  0.00     0.061 A 
HETATM   12  C13 UNL     1      20.827   4.199  51.220  1.00  0.00     0.036 A 
HETATM   13 CL1  UNL     1      19.269   4.730  50.635  1.00  0.00    -0.084 Cl
HETATM   14  C14 UNL     1      21.733   5.171  51.544  1.00  0.00     0.024 A 
HETATM   15  C15 UNL     1      22.963   4.826  52.005  1.00  0.00     0.013 A 
HETATM   16  C16 UNL     1      23.316   3.523  52.155  1.00  0.00    -0.007 A 
HETATM   17  C17 UNL     1      24.493   2.744  52.621  1.00  0.00     0.156 C 
HETATM   18  N2  UNL     1      24.868   1.751  51.652  1.00  0.00    -0.404 N 
HETATM   19  C18 UNL     1      25.564   0.636  52.196  1.00  0.00     0.166 A 
HETATM   20  H14 UNL     1      25.166   2.095  50.753  1.00  0.00     0.154 HD
ENDROOT
BRANCH   1  21
HETATM   21  N1  UNL     1      27.754   1.115  53.867  1.00  0.00    -0.267 NA
HETATM   22  C2  UNL     1      28.440   2.184  53.653  1.00  0.00     0.085 C 
HETATM   23  C1  UNL     1      29.679   2.152  54.499  1.00  0.00     0.057 C 
ENDBRANCH   1  21
TORSDOF 1
ENDMDL
MODEL 5
REMARK VINA RESULT:      -8.1      2.205      4.284
REMARK  1 active torsions:
REMARK  status: ('A' for Active; 'I' for Inactive)
REMARK    1  A    between atoms: N1_3  and  C3_4 
ROOT
HETATM    1  C3  UNL     1      26.464   3.490  50.301  1.00  0.00     0.070 A 
HETATM    2  C4  UNL     1      26.891   2.770  51.449  1.00  0.00     0.010 A 
HETATM    3  C5  UNL     1      27.263   1.897  52.554  1.00  0.00     0.009 A 
HETATM    4  C6  UNL     1      28.400   2.257  53.192  1.00  0.00     0.015 A 
HETATM    5  C7  UNL     1      28.946   1.593  54.267  1.00  0.00     0.001 A 
HETATM    6  C8  UNL     1      28.264   0.479  54.711  1.00  0.00     0.003 A 
HETATM    7  C9  UNL     1      27.099   0.118  54.048  1.00  0.00     0.038 A 
HETATM    8  C10 UNL     1      26.542   0.792  52.953  1.00  0.00     0.087 A 
HETATM    9  O1  UNL     1      25.401   0.113  52.603  1.00  0.00    -0.309 OA
HETATM   10  C11 UNL     1      24.097   0.425  52.825  1.00  0.00     0.085 A 
HETATM   11  C12 UNL     1      23.474  -0.584  53.557  1.00  0.00     0.061 A 
HETATM   12  C13 UNL     1      22.126  -0.519  53.923  1.00  0.00     0.036 A 
HETATM   13 CL1  UNL     1      21.305  -1.759  54.840  1.00  0.00    -0.084 Cl
HETATM   14  C14 UNL     1      21.388   0.571  53.553  1.00  0.00     0.024 A 
HETATM   15  C15 UNL     1      21.966   1.571  52.838  1.00  0.00     0.013 A 
HETATM   16  C16 UNL     1      23.274   1.512  52.481  1.00  0.00    -0.007 A 
HETATM   17  C17 UNL     1      24.259   2.353  51.751  1.00  0.00     0.156 C 
HETATM   18  N2  UNL     1      24.925   1.595  50.728  1.00  0.00    -0.404 N 
HETATM   19  C18 UNL     1      26.210   2.090  50.373  1.00  0.00     0.166 A 
HETATM   20  H14 UNL     1      24.342   1.235  49.988  1.00  0.00     0.154 HD
ENDROOT
BRANCH   1  21
HETATM   21  N1  UNL     1      26.474   4.808  49.774  1.00  0.00    -0.267 NA
HETATM   22  C2  UNL     1      27.159   5.188  48.752  1.00  0.00     0.085 C 
HETATM   23  C1  UNL     1      26.906   6.647  48.503  1.00  0.00     0.057 C 
ENDBRANCH   1  21
TORSDOF 1
ENDMDL
MODEL 6
REMARK VINA RESULT:      -7.9      3.070      5.009
REMARK  1 active torsions:
REMARK  status: ('A' for Active; 'I' for Inactive)
REMARK    1  A    between atoms: N1_3  and  C3_4 
ROOT
HETATM    1  C3  UNL     1      22.507   5.842  49.326  1.00  0.00     0.070 A 
HETATM    2  C4  UNL     1      23.916   5.829  49.140  1.00  0.00     0.010 A 
HETATM    3  C5  UNL     1      25.344   5.654  48.914  1.00  0.00     0.009 A 
HETATM    4  C6  UNL     1      25.968   6.744  48.413  1.00  0.00     0.015 A 
HETATM    5  C7  UNL     1      27.312   6.821  48.126  1.00  0.00     0.001 A 
HETATM    6  C8  UNL     1      28.060   5.689  48.377  1.00  0.00     0.003 A 
HETATM    7  C9  UNL     1      27.409   4.576  48.890  1.00  0.00     0.038 A 
HETATM    8  C10 UNL     1      26.040   4.495  49.182  1.00  0.00     0.087 A 
HETATM    9  O1  UNL     1      25.808   3.231  49.667  1.00  0.00    -0.309 OA
HETATM   10  C11 UNL     1      25.599   2.809  50.942  1.00  0.00     0.085 A 
HETATM   11  C12 UNL     1      26.563   1.871  51.307  1.00  0.00     0.061 A 
HETATM   12  C13 UNL     1      26.581   1.271  52.570  1.00  0.00     0.036 A 
HETATM   13 CL1  UNL     1      27.768   0.092  53.072  1.00  0.00    -0.084 Cl
HETATM   14  C14 UNL     1      25.621   1.613  53.483  1.00  0.00     0.024 A 
HETATM   15  C15 UNL     1      24.668   2.524  53.157  1.00  0.00     0.013 A 
HETATM   16  C16 UNL     1      24.647   3.109  51.932  1.00  0.00    -0.007 A 
HETATM   17  C17 UNL     1      23.834   4.118  51.203  1.00  0.00     0.156 C 
HETATM   18  N2  UNL     1      23.416   3.614  49.924  1.00  0.00    -0.404 N 
HETATM   19  C18 UNL     1      23.145   4.622  48.957  1.00  0.00     0.166 A 
HETATM   20  H14 UNL     1      22.814   2.805  49.937  1.00  0.00     0.154 HD
ENDROOT
BRANCH   1  21
HETATM   21  N1  UNL     1      21.460   6.737  49.671  1.00  0.00    -0.267 NA
HETATM   22  C2  UNL     1      21.496   8.013  49.502  1.00  0.00     0.085 C 
HETATM   23  C1  UNL     1      20.207   8.610  49.986  1.00  0.00     0.057 C 
ENDBRANCH   1  21
TORSDOF 1
ENDMDL
MODEL 7
REMARK VINA RESULT:      -7.6      2.815      4.543
REMARK  1 active torsions:
REMARK  status: ('A' for Active; 'I' for Inactive)
REMARK    1  A    between atoms: N1_3  and  C3_4 
ROOT
HETATM    1  C3  UNL     1      21.460   2.829  50.494  1.00  0.00     0.070 A 
HETATM    2  C4  UNL     1      21.399   1.771  51.442  1.00  0.00     0.010 A 
HETATM    3  C5  UNL     1      21.418   0.788  52.516  1.00  0.00     0.009 A 
HETATM    4  C6  UNL     1      20.349  -0.041  52.534  1.00  0.00     0.015 A 
HETATM    5  C7  UNL     1      20.151  -1.052  53.447  1.00  0.00     0.001 A 
HETATM    6  C8  UNL     1      21.128  -1.214  54.407  1.00  0.00     0.003 A 
HETATM    7  C9  UNL     1      22.220  -0.357  54.379  1.00  0.00     0.038 A 
HETATM    8  C10 UNL     1      22.424   0.673  53.452  1.00  0.00     0.087 A 
HETATM    9  O1  UNL     1      23.616   1.274  53.776  1.00  0.00    -0.309 OA
HETATM   10  C11 UNL     1      24.835   1.172  53.184  1.00  0.00     0.085 A 
HETATM   11  C12 UNL     1      25.779   0.703  54.095  1.00  0.00     0.061 A 
HETATM   12  C13 UNL     1      27.120   0.507  53.749  1.00  0.00     0.036 A 
HETATM   13 CL1  UNL     1      28.337  -0.079  54.856  1.00  0.00    -0.084 Cl
HETATM   14  C14 UNL     1      27.524   0.782  52.472  1.00  0.00     0.024 A 
HETATM   15  C15 UNL     1      26.627   1.241  51.560  1.00  0.00     0.013 A 
HETATM   16  C16 UNL     1      25.325   1.433  51.892  1.00  0.00    -0.007 A 
HETATM   17  C17 UNL     1      24.071   1.881  51.233  1.00  0.00     0.156 C 
HETATM   18  N2  UNL     1      23.434   2.923  51.991  1.00  0.00    -0.404 N 
HETATM   19  C18 UNL     1      22.030   3.023  51.786  1.00  0.00     0.166 A 
HETATM   20  H14 UNL     1      23.953   3.780  52.096  1.00  0.00     0.154 HD
ENDROOT
BRANCH   1  21
HETATM   21  N1  UNL     1      21.068   3.124  49.162  1.00  0.00    -0.267 NA
HETATM   22  C2  UNL     1      21.837   3.039  48.132  1.00  0.00     0.085 C 
HETATM   23  C1  UNL     1      21.064   3.431  46.907  1.00  0.00     0.057 C 
ENDBRANCH   1  21
TORSDOF 1
ENDMDL
MODEL 8
REMARK VINA RESULT:      -7.6      3.399      5.869
REMARK  1 active torsions:
REMARK  status: ('A' for Active; 'I' for Inactive)
REMARK    1  A    between atoms: N1_3  and  C3_4 
ROOT
HETATM    1  C3  UNL     1      19.798   0.588  51.629  1.00  0.00     0.070 A 
HETATM    2  C4  UNL     1      20.657   1.707  51.799  1.00  0.00     0.010 A 
HETATM    3  C5  UNL     1      21.653   2.765  51.894  1.00  0.00     0.009 A 
HETATM    4  C6  UNL     1      21.142   4.017  51.870  1.00  0.00     0.015 A 
HETATM    5  C7  UNL     1      21.884   5.173  51.953  1.00  0.00     0.001 A 
HETATM    6  C8  UNL     1      23.250   5.020  52.071  1.00  0.00     0.003 A 
HETATM    7  C9  UNL     1      23.763   3.730  52.094  1.00  0.00     0.038 A 
HETATM    8  C10 UNL     1      23.010   2.552  52.008  1.00  0.00     0.087 A 
HETATM    9  O1  UNL     1      23.896   1.504  52.068  1.00  0.00    -0.309 OA
HETATM   10  C11 UNL     1      24.182   0.660  53.093  1.00  0.00     0.085 A 
HETATM   11  C12 UNL     1      25.534   0.735  53.423  1.00  0.00     0.061 A 
HETATM   12  C13 UNL     1      26.098  -0.034  54.446  1.00  0.00     0.036 A 
HETATM   13 CL1  UNL     1      27.785   0.028  54.894  1.00  0.00    -0.084 Cl
HETATM   14  C14 UNL     1      25.300  -0.892  55.151  1.00  0.00     0.024 A 
HETATM   15  C15 UNL     1      23.978  -0.988  54.853  1.00  0.00     0.013 A 
HETATM   16  C16 UNL     1      23.426  -0.244  53.862  1.00  0.00    -0.007 A 
HETATM   17  C17 UNL     1      22.088  -0.037  53.249  1.00  0.00     0.156 C 
HETATM   18  N2  UNL     1      22.149  -0.175  51.820  1.00  0.00    -0.404 N 
HETATM   19  C18 UNL     1      21.127   0.524  51.119  1.00  0.00     0.166 A 
HETATM   20  H14 UNL     1      22.421  -1.081  51.470  1.00  0.00     0.154 HD
ENDROOT
BRANCH   1  21
HETATM   21  N1  UNL     1      18.474   0.173  51.929  1.00  0.00    -0.267 NA
HETATM   22  C2  UNL     1      18.167  -0.884  52.599  1.00  0.00     0.085 C 
HETATM   23  C1  UNL     1      16.673  -0.982  52.707  1.00  0.00     0.057 C 
ENDBRANCH   1  21
TORSDOF 1
ENDMDL
MODEL 9
REMARK VINA RESULT:      -7.6      2.830      3.507
REMARK  1 active torsions:
REMARK  status: ('A' for Active; 'I' for Inactive)
REMARK    1  A    between atoms: N1_3  and  C3_4 
ROOT
HETATM    1  C3  UNL     1      22.432   5.625  51.578  1.00  0.00     0.070 A 
HETATM    2  C4  UNL     1      21.848   4.330  51.525  1.00  0.00     0.010 A 
HETATM    3  C5  UNL     1      21.322   2.976  51.617  1.00  0.00     0.009 A 
HETATM    4  C6  UNL     1      20.116   2.803  51.029  1.00  0.00     0.015 A 
HETATM    5  C7  UNL     1      19.426   1.613  50.981  1.00  0.00     0.001 A 
HETATM    6  C8  UNL     1      20.028   0.528  51.581  1.00  0.00     0.003 A 
HETATM    7  C9  UNL     1      21.265   0.717  52.182  1.00  0.00     0.038 A 
HETATM    8  C10 UNL     1      21.970   1.927  52.234  1.00  0.00     0.087 A 
HETATM    9  O1  UNL     1      23.138   1.682  52.913  1.00  0.00    -0.309 OA
HETATM   10  C11 UNL     1      24.406   1.536  52.445  1.00  0.00     0.085 A 
HETATM   11  C12 UNL     1      24.914   0.287  52.798  1.00  0.00     0.061 A 
HETATM   12  C13 UNL     1      26.203  -0.123  52.444  1.00  0.00     0.036 A 
HETATM   13 CL1  UNL     1      26.880  -1.678  52.863  1.00  0.00    -0.084 Cl
HETATM   14  C14 UNL     1      26.998   0.727  51.725  1.00  0.00     0.024 A 
HETATM   15  C15 UNL     1      26.532   1.951  51.367  1.00  0.00     0.013 A 
HETATM   16  C16 UNL     1      25.281   2.354  51.708  1.00  0.00    -0.007 A 
HETATM   17  C17 UNL     1      24.412   3.544  51.514  1.00  0.00     0.156 C 
HETATM   18  N2  UNL     1      23.876   3.999  52.768  1.00  0.00    -0.404 N 
HETATM   19  C18 UNL     1      22.655   4.720  52.656  1.00  0.00     0.166 A 
HETATM   20  H14 UNL     1      24.547   4.317  53.450  1.00  0.00     0.154 HD
ENDROOT
BRANCH   1  21
HETATM   21  N1  UNL     1      22.509   6.820  50.816  1.00  0.00    -0.267 NA
HETATM   22  C2  UNL     1      23.502   7.153  50.066  1.00  0.00     0.085 C 
HETATM   23  C1  UNL     1      23.213   8.479  49.426  1.00  0.00     0.057 C 
ENDBRANCH   1  21
TORSDOF 1
ENDMDL
