MODEL 1
REMARK VINA RESULT:      -7.1      0.000      0.000
REMARK  5 active torsions:
REMARK  status: ('A' for Active; 'I' for Inactive)
REMARK    1  A    between atoms: C2_2  and  C3_3 
REMARK    2  A    between atoms: C3_3  and  C6_6 
REMARK    3  A    between atoms: C7_7  and  O1_8 
REMARK    4  A    between atoms: C13_14  and  C14_15 
REMARK    5  A    between atoms: C14_15  and  C16_18 
REMARK       I    between atoms: C16_18  and  N2_19 
ROOT
HETATM    1  C14 UNL     1      24.289  -0.061  54.109  1.00  0.00     0.190 C 
HETATM    2  C15 UNL     1      24.750  -0.836  55.242  1.00  0.00     0.074 C 
HETATM    3  N1  UNL     1      25.134  -1.446  56.154  1.00  0.00    -0.196 NA
ENDROOT
BRANCH   1   4
HETATM    4  C13 UNL     1      25.245   0.048  52.972  1.00  0.00     0.066 C 
HETATM    5  C6  UNL     1      25.838   1.352  52.700  1.00  0.00    -0.034 C 
HETATM    6  C7  UNL     1      27.081   1.588  53.178  1.00  0.00     0.047 C 
HETATM    7  C8  UNL     1      28.052   0.788  53.966  1.00  0.00     0.072 C 
HETATM    8  C9  UNL     1      28.548  -0.302  53.012  1.00  0.00     0.010 C 
HETATM    9  C10 UNL     1      29.857  -0.866  53.448  1.00  0.00     0.014 C 
HETATM   10  C11 UNL     1      27.494  -1.354  53.042  1.00  0.00    -0.025 C 
HETATM   11  C12 UNL     1      26.192  -1.095  53.022  1.00  0.00    -0.019 C 
BRANCH   5  12
HETATM   12  C3  UNL     1      25.072   2.344  51.926  1.00  0.00    -0.021 C 
HETATM   13  C4  UNL     1      24.477   3.363  52.864  1.00  0.00     0.019 C 
HETATM   14  C5  UNL     1      25.938   3.066  50.874  1.00  0.00     0.019 C 
BRANCH  12  15
HETATM   15  C2  UNL     1      23.953   1.725  51.124  1.00  0.00     0.009 C 
HETATM   16  C1  UNL     1      22.645   2.319  51.598  1.00  0.00     0.006 C 
ENDBRANCH  12  15
ENDBRANCH   5  12
BRANCH   6  17
HETATM   17  O1  UNL     1      27.733   2.820  52.962  1.00  0.00    -0.365 OA
HETATM   18  H12 UNL     1      27.348   3.450  52.283  1.00  0.00     0.217 HD
ENDBRANCH   6  17
ENDBRANCH   1   4
BRANCH   1  19
HETATM   19  C16 UNL     1      23.122  -0.876  53.560  1.00  0.00     0.213 C 
HETATM   20  N2  UNL     1      22.344  -1.369  54.665  1.00  0.00    -0.271 NA
HETATM   21  H23 UNL     1      21.732  -1.199  55.510  1.00  0.00     0.127 HD
HETATM   22  H24 UNL     1      21.729  -1.175  55.512  1.00  0.00     0.127 HD
HETATM   23  O2  UNL     1      22.178  -1.539  53.007  1.00  0.00    -0.279 OA
ENDBRANCH   1  19
TORSDOF 5
ENDMDL
MODEL 2
REMARK VINA RESULT:      -7.0      2.479      4.562
REMARK  5 active torsions:
REMARK  status: ('A' for Active; 'I' for Inactive)
REMARK    1  A    between atoms: C2_2  and  C3_3 
REMARK    2  A    between atoms: C3_3  and  C6_6 
REMARK    3  A    between atoms: C7_7  and  O1_8 
REMARK    4  A    between atoms: C13_14  and  C14_15 
REMARK    5  A    between atoms: C14_15  and  C16_18 
REMARK       I    between atoms: C16_18  and  N2_19 
ROOT
HETATM    1  C14 UNL     1      25.474   0.480  53.630  1.00  0.00     0.190 C 
HETATM    2  C15 UNL     1      26.476   1.461  53.991  1.00  0.00     0.074 C 
HETATM    3  N1  UNL     1      27.267   2.263  54.282  1.00  0.00    -0.196 NA
ENDROOT
BRANCH   1   4
HETATM    4  C13 UNL     1      24.756   0.734  52.350  1.00  0.00     0.066 C 
HETATM    5  C6  UNL     1      23.390   1.236  52.420  1.00  0.00    -0.034 C 
HETATM    6  C7  UNL     1      23.201   2.566  52.265  1.00  0.00     0.047 C 
HETATM    7  C8  UNL     1      24.110   3.716  52.026  1.00  0.00     0.072 C 
HETATM    8  C9  UNL     1      24.608   3.547  50.589  1.00  0.00     0.010 C 
HETATM    9  C10 UNL     1      25.108   4.832  50.022  1.00  0.00     0.014 C 
HETATM   10  C11 UNL     1      25.715   2.553  50.676  1.00  0.00    -0.025 C 
HETATM   11  C12 UNL     1      25.663   1.454  51.420  1.00  0.00    -0.019 C 
BRANCH   5  12
HETATM   12  C3  UNL     1      22.286   0.288  52.651  1.00  0.00    -0.021 C 
HETATM   13  C4  UNL     1      21.382   0.266  51.445  1.00  0.00     0.019 C 
HETATM   14  C5  UNL     1      22.788  -1.142  52.936  1.00  0.00     0.019 C 
BRANCH  12  15
HETATM   15  C2  UNL     1      21.455   0.638  53.862  1.00  0.00     0.009 C 
HETATM   16  C1  UNL     1      21.541  -0.509  54.843  1.00  0.00     0.006 C 
ENDBRANCH  12  15
ENDBRANCH   5  12
BRANCH   6  17
HETATM   17  O1  UNL     1      21.914   3.140  52.316  1.00  0.00    -0.365 OA
HETATM   18  H12 UNL     1      21.464   3.223  53.209  1.00  0.00     0.217 HD
ENDBRANCH   6  17
ENDBRANCH   1   4
BRANCH   1  19
HETATM   19  C16 UNL     1      26.281  -0.790  53.380  1.00  0.00     0.213 C 
HETATM   20  N2  UNL     1      27.515  -0.705  54.115  1.00  0.00    -0.271 NA
HETATM   21  H23 UNL     1      28.039  -0.640  55.030  1.00  0.00     0.127 HD
HETATM   22  H24 UNL     1      28.023  -0.640  55.049  1.00  0.00     0.127 HD
HETATM   23  O2  UNL     1      26.882  -1.886  53.111  1.00  0.00    -0.279 OA
ENDBRANCH   1  19
TORSDOF 5
ENDMDL
MODEL 3
REMARK VINA RESULT:      -7.0      2.969      5.867
REMARK  5 active torsions:
REMARK  status: ('A' for Active; 'I' for Inactive)
REMARK    1  A    between atoms: C2_2  and  C3_3 
REMARK    2  A    between atoms: C3_3  and  C6_6 
REMARK    3  A    between atoms: C7_7  and  O1_8 
REMARK    4  A    between atoms: C13_14  and  C14_15 
REMARK    5  A    between atoms: C14_15  and  C16_18 
REMARK       I    between atoms: C16_18  and  N2_19 
ROOT
HETATM    1  C14 UNL     1      24.606   3.366  51.820  1.00  0.00     0.190 C 
HETATM    2  C15 UNL     1      23.457   4.178  52.163  1.00  0.00     0.074 C 
HETATM    3  N1  UNL     1      22.531   4.818  52.454  1.00  0.00    -0.196 NA
ENDROOT
BRANCH   1   4
HETATM    4  C13 UNL     1      24.310   1.951  51.459  1.00  0.00     0.066 C 
HETATM    5  C6  UNL     1      24.389   0.946  52.512  1.00  0.00    -0.034 C 
HETATM    6  C7  UNL     1      23.234   0.563  53.102  1.00  0.00     0.047 C 
HETATM    7  C8  UNL     1      21.810   0.944  52.926  1.00  0.00     0.072 C 
HETATM    8  C9  UNL     1      21.398   0.358  51.573  1.00  0.00     0.010 C 
HETATM    9  C10 UNL     1      19.919   0.205  51.464  1.00  0.00     0.014 C 
HETATM   10  C11 UNL     1      21.895   1.331  50.560  1.00  0.00    -0.025 C 
HETATM   11  C12 UNL     1      23.088   1.911  50.617  1.00  0.00    -0.019 C 
BRANCH   5  12
HETATM   12  C3  UNL     1      25.704   0.395  52.884  1.00  0.00    -0.021 C 
HETATM   13  C4  UNL     1      26.694   0.669  51.780  1.00  0.00     0.019 C 
HETATM   14  C5  UNL     1      26.238   0.987  54.204  1.00  0.00     0.019 C 
BRANCH  12  15
HETATM   15  C2  UNL     1      25.668  -1.093  53.132  1.00  0.00     0.009 C 
HETATM   16  C1  UNL     1      26.969  -1.688  52.642  1.00  0.00     0.006 C 
ENDBRANCH  12  15
ENDBRANCH   5  12
BRANCH   6  17
HETATM   17  O1  UNL     1      23.215  -0.405  54.128  1.00  0.00    -0.365 OA
HETATM   18  H12 UNL     1      24.081  -0.836  54.392  1.00  0.00     0.217 HD
ENDBRANCH   6  17
ENDBRANCH   1   4
BRANCH   1  19
HETATM   19  C16 UNL     1      25.126   3.997  50.531  1.00  0.00     0.213 C 
HETATM   20  N2  UNL     1      25.083   5.428  50.668  1.00  0.00    -0.271 NA
HETATM   21  H23 UNL     1      25.396   6.318  51.144  1.00  0.00     0.127 HD
HETATM   22  H24 UNL     1      25.412   6.312  51.161  1.00  0.00     0.127 HD
HETATM   23  O2  UNL     1      25.575   4.431  49.416  1.00  0.00    -0.279 OA
ENDBRANCH   1  19
TORSDOF 5
ENDMDL
MODEL 4
REMARK VINA RESULT:      -6.7      2.597      5.249
REMARK  5 active torsions:
REMARK  status: ('A' for Active; 'I' for Inactive)
REMARK    1  A    between atoms: C2_2  and  C3_3 
REMARK    2  A    between atoms: C3_3  and  C6_6 
REMARK    3  A    between atoms: C7_7  and  O1_8 
REMARK    4  A    between atoms: C13_14  and  C14_15 
REMARK    5  A    between atoms: C14_15  and  C16_18 
REMARK       I    between atoms: C16_18  and  N2_19 
ROOT
HETATM    1  C14 UNL     1      24.276   2.568  52.511  1.00  0.00     0.190 C 
HETATM    2  C15 UNL     1      22.996   3.246  52.472  1.00  0.00     0.074 C 
HETATM    3  N1  UNL     1      21.963   3.779  52.455  1.00  0.00    -0.196 NA
ENDROOT
BRANCH   1   4
HETATM    4  C13 UNL     1      24.234   1.099  52.266  1.00  0.00     0.066 C 
HETATM    5  C6  UNL     1      25.010   0.237  53.150  1.00  0.00    -0.034 C 
HETATM    6  C7  UNL     1      24.357  -0.371  54.166  1.00  0.00     0.047 C 
HETATM    7  C8  UNL     1      22.947  -0.371  54.632  1.00  0.00     0.072 C 
HETATM    8  C9  UNL     1      22.170  -1.153  53.570  1.00  0.00     0.010 C 
HETATM    9  C10 UNL     1      20.879  -1.677  54.102  1.00  0.00     0.014 C 
HETATM   10  C11 UNL     1      21.919  -0.175  52.474  1.00  0.00    -0.025 C 
HETATM   11  C12 UNL     1      22.828   0.686  52.031  1.00  0.00    -0.019 C 
BRANCH   5  12
HETATM   12  C3  UNL     1      26.452   0.064  52.902  1.00  0.00    -0.021 C 
HETATM   13  C4  UNL     1      26.795  -1.404  52.940  1.00  0.00     0.019 C 
HETATM   14  C5  UNL     1      26.891   0.654  51.547  1.00  0.00     0.019 C 
BRANCH  12  15
HETATM   15  C2  UNL     1      27.312   0.780  53.915  1.00  0.00     0.009 C 
HETATM   16  C1  UNL     1      28.070   1.877  53.203  1.00  0.00     0.006 C 
ENDBRANCH  12  15
ENDBRANCH   5  12
BRANCH   6  17
HETATM   17  O1  UNL     1      25.026  -1.223  55.068  1.00  0.00    -0.365 OA
HETATM   18  H12 UNL     1      24.831  -2.206  55.028  1.00  0.00     0.217 HD
ENDBRANCH   6  17
ENDBRANCH   1   4
BRANCH   1  19
HETATM   19  C16 UNL     1      25.029   3.142  51.314  1.00  0.00     0.213 C 
HETATM   20  N2  UNL     1      24.772   4.555  51.242  1.00  0.00    -0.271 NA
HETATM   21  H23 UNL     1      24.837   5.526  51.656  1.00  0.00     0.127 HD
HETATM   22  H24 UNL     1      24.849   5.524  51.677  1.00  0.00     0.127 HD
HETATM   23  O2  UNL     1      25.694   3.529  50.293  1.00  0.00    -0.279 OA
ENDBRANCH   1  19
TORSDOF 5
ENDMDL
MODEL 5
REMARK VINA RESULT:      -6.7      1.673      4.458
REMARK  5 active torsions:
REMARK  status: ('A' for Active; 'I' for Inactive)
REMARK    1  A    between atoms: C2_2  and  C3_3 
REMARK    2  A    between atoms: C3_3  and  C6_6 
REMARK    3  A    between atoms: C7_7  and  O1_8 
REMARK    4  A    between atoms: C13_14  and  C14_15 
REMARK    5  A    between atoms: C14_15  and  C16_18 
REMARK       I    between atoms: C16_18  and  N2_19 
ROOT
HETATM    1  C14 UNL     1      23.156  -0.337  52.883  1.00  0.00     0.190 C 
HETATM    2  C15 UNL     1      21.925  -0.047  52.177  1.00  0.00     0.074 C 
HETATM    3  N1  UNL     1      20.948   0.194  51.595  1.00  0.00    -0.196 NA
ENDROOT
BRANCH   1   4
HETATM    4  C13 UNL     1      23.997   0.844  53.224  1.00  0.00     0.066 C 
HETATM    5  C6  UNL     1      25.330   0.926  52.639  1.00  0.00    -0.034 C 
HETATM    6  C7  UNL     1      25.488   1.699  51.541  1.00  0.00     0.047 C 
HETATM    7  C8  UNL     1      24.570   2.540  50.732  1.00  0.00     0.072 C 
HETATM    8  C9  UNL     1      24.235   3.742  51.618  1.00  0.00     0.010 C 
HETATM    9  C10 UNL     1      23.753   4.903  50.816  1.00  0.00     0.014 C 
HETATM   10  C11 UNL     1      23.160   3.263  52.533  1.00  0.00    -0.025 C 
HETATM   11  C12 UNL     1      23.171   2.074  53.124  1.00  0.00    -0.019 C 
BRANCH   5  12
HETATM   12  C3  UNL     1      26.436   0.176  53.261  1.00  0.00    -0.021 C 
HETATM   13  C4  UNL     1      26.125  -0.063  54.717  1.00  0.00     0.019 C 
HETATM   14  C5  UNL     1      26.692  -1.177  52.567  1.00  0.00     0.019 C 
BRANCH  12  15
HETATM   15  C2  UNL     1      27.759   0.897  53.169  1.00  0.00     0.009 C 
HETATM   16  C1  UNL     1      28.671   0.354  54.246  1.00  0.00     0.006 C 
ENDBRANCH  12  15
ENDBRANCH   5  12
BRANCH   6  17
HETATM   17  O1  UNL     1      26.742   1.839  50.911  1.00  0.00    -0.365 OA
HETATM   18  H12 UNL     1      27.553   1.483  51.381  1.00  0.00     0.217 HD
ENDBRANCH   6  17
ENDBRANCH   1   4
BRANCH   1  19
HETATM   19  C16 UNL     1      22.685  -0.882  54.228  1.00  0.00     0.213 C 
HETATM   20  N2  UNL     1      21.443  -1.581  54.032  1.00  0.00    -0.271 NA
HETATM   21  H23 UNL     1      20.888  -2.370  53.601  1.00  0.00     0.127 HD
HETATM   22  H24 UNL     1      20.903  -2.384  53.587  1.00  0.00     0.127 HD
HETATM   23  O2  UNL     1      22.372  -1.298  55.396  1.00  0.00    -0.279 OA
ENDBRANCH   1  19
TORSDOF 5
ENDMDL
MODEL 6
REMARK VINA RESULT:      -6.6      1.623      2.491
REMARK  5 active torsions:
REMARK  status: ('A' for Active; 'I' for Inactive)
REMARK    1  A    between atoms: C2_2  and  C3_3 
REMARK    2  A    between atoms: C3_3  and  C6_6 
REMARK    3  A    between atoms: C7_7  and  O1_8 
REMARK    4  A    between atoms: C13_14  and  C14_15 
REMARK    5  A    between atoms: C14_15  and  C16_18 
REMARK       I    between atoms: C16_18  and  N2_19 
ROOT
HETATM    1  C14 UNL     1      22.277   0.208  53.903  1.00  0.00     0.190 C 
HETATM    2  C15 UNL     1      22.445  -0.882  54.842  1.00  0.00     0.074 C 
HETATM    3  N1  UNL     1      22.598  -1.750  55.601  1.00  0.00    -0.196 NA
ENDROOT
BRANCH   1   4
HETATM    4  C13 UNL     1      23.273   0.265  52.797  1.00  0.00     0.066 C 
HETATM    5  C6  UNL     1      23.704   1.577  52.332  1.00  0.00    -0.034 C 
HETATM    6  C7  UNL     1      24.877   2.056  52.805  1.00  0.00     0.047 C 
HETATM    7  C8  UNL     1      25.899   1.535  53.747  1.00  0.00     0.072 C 
HETATM    8  C9  UNL     1      26.586   0.385  53.004  1.00  0.00     0.010 C 
HETATM    9  C10 UNL     1      27.931   0.084  53.573  1.00  0.00     0.014 C 
HETATM   10  C11 UNL     1      25.678  -0.784  53.174  1.00  0.00    -0.025 C 
HETATM   11  C12 UNL     1      24.356  -0.714  53.068  1.00  0.00    -0.019 C 
BRANCH   5  12
HETATM   12  C3  UNL     1      22.859   2.317  51.378  1.00  0.00    -0.021 C 
HETATM   13  C4  UNL     1      22.111   1.340  50.507  1.00  0.00     0.019 C 
HETATM   14  C5  UNL     1      21.849   3.245  52.083  1.00  0.00     0.019 C 
BRANCH  12  15
HETATM   15  C2  UNL     1      23.652   3.241  50.485  1.00  0.00     0.009 C 
HETATM   16  C1  UNL     1      22.746   4.369  50.047  1.00  0.00     0.006 C 
ENDBRANCH  12  15
ENDBRANCH   5  12
BRANCH   6  17
HETATM   17  O1  UNL     1      25.374   3.315  52.408  1.00  0.00    -0.365 OA
HETATM   18  H12 UNL     1      24.924   3.786  51.645  1.00  0.00     0.217 HD
ENDBRANCH   6  17
ENDBRANCH   1   4
BRANCH   1  19
HETATM   19  C16 UNL     1      20.949  -0.102  53.219  1.00  0.00     0.213 C 
HETATM   20  N2  UNL     1      20.077  -0.736  54.171  1.00  0.00    -0.271 NA
HETATM   21  H23 UNL     1      19.524  -0.713  55.071  1.00  0.00     0.127 HD
HETATM   22  H24 UNL     1      19.526  -0.691  55.081  1.00  0.00     0.127 HD
HETATM   23  O2  UNL     1      19.875  -0.321  52.561  1.00  0.00    -0.279 OA
ENDBRANCH   1  19
TORSDOF 5
ENDMDL
MODEL 7
REMARK VINA RESULT:      -6.5      2.052      4.493
REMARK  5 active torsions:
REMARK  status: ('A' for Active; 'I' for Inactive)
REMARK    1  A    between atoms: C2_2  and  C3_3 
REMARK    2  A    between atoms: C3_3  and  C6_6 
REMARK    3  A    between atoms: C7_7  and  O1_8 
REMARK    4  A    between atoms: C13_14  and  C14_15 
REMARK    5  A    between atoms: C14_15  and  C16_18 
REMARK       I    between atoms: C16_18  and  N2_19 
ROOT
HETATM    1  C14 UNL     1      25.989   0.316  52.189  1.00  0.00     0.190 C 
HETATM    2  C15 UNL     1      26.587  -0.944  52.581  1.00  0.00     0.074 C 
HETATM    3  N1  UNL     1      27.050  -1.964  52.894  1.00  0.00    -0.196 NA
ENDROOT
BRANCH   1   4
HETATM    4  C13 UNL     1      24.888   0.806  53.065  1.00  0.00     0.066 C 
HETATM    5  C6  UNL     1      23.704   1.367  52.425  1.00  0.00    -0.034 C 
HETATM    6  C7  UNL     1      22.626   0.562  52.286  1.00  0.00     0.047 C 
HETATM    7  C8  UNL     1      22.337  -0.847  52.651  1.00  0.00     0.072 C 
HETATM    8  C9  UNL     1      22.239  -0.859  54.179  1.00  0.00     0.010 C 
HETATM    9  C10 UNL     1      21.477  -2.041  54.675  1.00  0.00     0.014 C 
HETATM   10  C11 UNL     1      23.649  -0.911  54.658  1.00  0.00    -0.025 C 
HETATM   11  C12 UNL     1      24.634  -0.194  54.132  1.00  0.00    -0.019 C 
BRANCH   5  12
HETATM   12  C3  UNL     1      23.729   2.766  51.964  1.00  0.00    -0.021 C 
HETATM   13  C4  UNL     1      24.500   3.606  52.951  1.00  0.00     0.019 C 
HETATM   14  C5  UNL     1      24.362   2.914  50.566  1.00  0.00     0.019 C 
BRANCH  12  15
HETATM   15  C2  UNL     1      22.349   3.358  51.811  1.00  0.00     0.009 C 
HETATM   16  C1  UNL     1      22.368   4.759  52.379  1.00  0.00     0.006 C 
ENDBRANCH  12  15
ENDBRANCH   5  12
BRANCH   6  17
HETATM   17  O1  UNL     1      21.437   1.020  51.682  1.00  0.00    -0.365 OA
HETATM   18  H12 UNL     1      20.852   1.650  52.198  1.00  0.00     0.217 HD
ENDBRANCH   6  17
ENDBRANCH   1   4
BRANCH   1  19
HETATM   19  C16 UNL     1      27.116   1.328  52.375  1.00  0.00     0.213 C 
HETATM   20  N2  UNL     1      28.043   0.813  53.347  1.00  0.00    -0.271 NA
HETATM   21  H23 UNL     1      28.744   0.085  53.656  1.00  0.00     0.127 HD
HETATM   22  H24 UNL     1      28.746   0.069  53.639  1.00  0.00     0.127 HD
HETATM   23  O2  UNL     1      28.014   2.234  52.461  1.00  0.00    -0.279 OA
ENDBRANCH   1  19
TORSDOF 5
ENDMDL
MODEL 8
REMARK VINA RESULT:      -6.3      2.274      5.032
REMARK  5 active torsions:
REMARK  status: ('A' for Active; 'I' for Inactive)
REMARK    1  A    between atoms: C2_2  and  C3_3 
REMARK    2  A    between atoms: C3_3  and  C6_6 
REMARK    3  A    between atoms: C7_7  and  O1_8 
REMARK    4  A    between atoms: C13_14  and  C14_15 
REMARK    5  A    between atoms: C14_15  and  C16_18 
REMARK       I    between atoms: C16_18  and  N2_19 
ROOT
HETATM    1  C14 UNL     1      22.649   0.961  51.548  1.00  0.00     0.190 C 
HETATM    2  C15 UNL     1      22.235   1.371  50.222  1.00  0.00     0.074 C 
HETATM    3  N1  UNL     1      21.920   1.703  49.154  1.00  0.00    -0.196 NA
ENDROOT
BRANCH   1   4
HETATM    4  C13 UNL     1      23.348   2.001  52.355  1.00  0.00     0.066 C 
HETATM    5  C6  UNL     1      24.779   2.179  52.148  1.00  0.00    -0.034 C 
HETATM    6  C7  UNL     1      25.175   3.187  51.338  1.00  0.00     0.047 C 
HETATM    7  C8  UNL     1      24.457   4.225  50.556  1.00  0.00     0.072 C 
HETATM    8  C9  UNL     1      23.881   5.190  51.595  1.00  0.00     0.010 C 
HETATM    9  C10 UNL     1      23.574   6.523  51.002  1.00  0.00     0.014 C 
HETATM   10  C11 UNL     1      22.632   4.538  52.080  1.00  0.00    -0.025 C 
HETATM   11  C12 UNL     1      22.534   3.243  52.355  1.00  0.00    -0.019 C 
BRANCH   5  12
HETATM   12  C3  UNL     1      25.723   1.270  52.821  1.00  0.00    -0.021 C 
HETATM   13  C4  UNL     1      26.674   2.072  53.672  1.00  0.00     0.019 C 
HETATM   14  C5  UNL     1      25.007   0.227  53.703  1.00  0.00     0.019 C 
BRANCH  12  15
HETATM   15  C2  UNL     1      26.533   0.442  51.852  1.00  0.00     0.009 C 
HETATM   16  C1  UNL     1      26.754  -0.923  52.463  1.00  0.00     0.006 C 
ENDBRANCH  12  15
ENDBRANCH   5  12
BRANCH   6  17
HETATM   17  O1  UNL     1      26.540   3.436  51.082  1.00  0.00    -0.365 OA
HETATM   18  H12 UNL     1      27.084   2.710  50.653  1.00  0.00     0.217 HD
ENDBRANCH   6  17
ENDBRANCH   1   4
BRANCH   1  19
HETATM   19  C16 UNL     1      21.334   0.716  52.282  1.00  0.00     0.213 C 
HETATM   20  N2  UNL     1      21.459  -0.485  53.065  1.00  0.00    -0.271 NA
HETATM   21  H23 UNL     1      21.913  -1.031  53.847  1.00  0.00     0.127 HD
HETATM   22  H24 UNL     1      21.930  -1.017  53.858  1.00  0.00     0.127 HD
HETATM   23  O2  UNL     1      20.197   0.595  52.853  1.00  0.00    -0.279 OA
ENDBRANCH   1  19
TORSDOF 5
ENDMDL
MODEL 9
REMARK VINA RESULT:      -6.3      3.282      5.031
REMARK  5 active torsions:
REMARK  status: ('A' for Active; 'I' for Inactive)
REMARK    1  A    between atoms: C2_2  and  C3_3 
REMARK    2  A    between atoms: C3_3  and  C6_6 
REMARK    3  A    between atoms: C7_7  and  O1_8 
REMARK    4  A    between atoms: C13_14  and  C14_15 
REMARK    5  A    between atoms: C14_15  and  C16_18 
REMARK       I    between atoms: C16_18  and  N2_19 
ROOT
HETATM    1  C14 UNL     1      23.517   3.123  51.136  1.00  0.00     0.190 C 
HETATM    2  C15 UNL     1      24.825   3.056  50.516  1.00  0.00     0.074 C 
HETATM    3  N1  UNL     1      25.874   2.982  50.020  1.00  0.00    -0.196 NA
ENDROOT
BRANCH   1   4
HETATM    4  C13 UNL     1      23.436   2.599  52.528  1.00  0.00     0.066 C 
HETATM    5  C6  UNL     1      22.845   1.282  52.729  1.00  0.00    -0.034 C 
HETATM    6  C7  UNL     1      23.686   0.231  52.865  1.00  0.00     0.047 C 
HETATM    7  C8  UNL     1      25.163   0.084  52.856  1.00  0.00     0.072 C 
HETATM    8  C9  UNL     1      25.642   0.727  54.160  1.00  0.00     0.010 C 
HETATM    9  C10 UNL     1      26.995   0.240  54.553  1.00  0.00     0.014 C 
HETATM   10  C11 UNL     1      25.679   2.191  53.881  1.00  0.00    -0.025 C 
HETATM   11  C12 UNL     1      24.732   2.838  53.212  1.00  0.00    -0.019 C 
BRANCH   5  12
HETATM   12  C3  UNL     1      21.379   1.151  52.779  1.00  0.00    -0.021 C 
HETATM   13  C4  UNL     1      20.981   0.427  54.040  1.00  0.00     0.019 C 
HETATM   14  C5  UNL     1      20.664   2.517  52.730  1.00  0.00     0.019 C 
BRANCH  12  15
HETATM   15  C2  UNL     1      20.817   0.396  51.598  1.00  0.00     0.009 C 
HETATM   16  C1  UNL     1      19.389   0.013  51.917  1.00  0.00     0.006 C 
ENDBRANCH  12  15
ENDBRANCH   5  12
BRANCH   6  17
HETATM   17  O1  UNL     1      23.203  -1.079  53.065  1.00  0.00    -0.365 OA
HETATM   18  H12 UNL     1      22.843  -1.580  52.274  1.00  0.00     0.217 HD
ENDBRANCH   6  17
ENDBRANCH   1   4
BRANCH   1  19
HETATM   19  C16 UNL     1      23.253   4.620  51.266  1.00  0.00     0.213 C 
HETATM   20  N2  UNL     1      24.000   5.311  50.250  1.00  0.00    -0.271 NA
HETATM   21  H23 UNL     1      24.206   5.510  49.232  1.00  0.00     0.127 HD
HETATM   22  H24 UNL     1      24.191   5.497  49.218  1.00  0.00     0.127 HD
HETATM   23  O2  UNL     1      22.970   5.853  51.453  1.00  0.00    -0.279 OA
ENDBRANCH   1  19
TORSDOF 5
ENDMDL
