MODEL 1
REMARK VINA RESULT:      -8.0      0.000      0.000
REMARK  3 active torsions:
REMARK  status: ('A' for Active; 'I' for Inactive)
REMARK       I    between atoms: C1_2  and  N1_3 
REMARK       I    between atoms: C1_2  and  N3_10 
REMARK    1  A    between atoms: N1_3  and  C2_4 
REMARK    2  A    between atoms: N3_10  and  C7_11 
REMARK    3  A    between atoms: N4_21  and  O2_22 
ROOT
HETATM    1  C7  UNL     1      24.015   2.361  53.080  1.00  0.00     0.045 A 
HETATM    2  C8  UNL     1      22.899   1.629  52.804  1.00  0.00     0.030 A 
HETATM    3  C9  UNL     1      22.835   0.260  52.783  1.00  0.00     0.005 A 
HETATM    4  C10 UNL     1      23.969  -0.475  53.059  1.00  0.00     0.032 A 
HETATM    5  C11 UNL     1      25.117   0.234  53.342  1.00  0.00     0.066 A 
HETATM    6  C12 UNL     1      25.137   1.612  53.352  1.00  0.00     0.004 A 
HETATM    7  C13 UNL     1      26.539   2.035  53.697  1.00  0.00     0.049 C 
HETATM    8  C14 UNL     1      27.499   2.065  52.551  1.00  0.00     0.013 C 
HETATM    9  C15 UNL     1      28.425   1.191  53.384  1.00  0.00     0.029 C 
HETATM   10  C16 UNL     1      27.216   0.816  54.235  1.00  0.00     0.123 C 
HETATM   11  N4  UNL     1      26.413  -0.245  53.658  1.00  0.00    -0.255 N 
ENDROOT
BRANCH   1  12
HETATM   12  N3  UNL     1      24.115   3.773  53.109  1.00  0.00    -0.308 N 
HETATM   13  C1  UNL     1      24.090   4.690  52.057  1.00  0.00     0.326 C 
HETATM   14  O1  UNL     1      23.965   4.280  50.897  1.00  0.00    -0.247 OA
HETATM   15  N1  UNL     1      24.198   6.088  52.192  1.00  0.00    -0.293 N 
HETATM   16  H1  UNL     1      24.307   6.477  53.176  1.00  0.00     0.172 HD
HETATM   17  H6  UNL     1      24.225   4.258  54.037  1.00  0.00     0.170 HD
BRANCH  15  18
HETATM   18  C2  UNL     1      24.164   6.962  51.071  1.00  0.00     0.131 A 
HETATM   19  C3  UNL     1      22.960   7.508  50.684  1.00  0.00     0.050 A 
HETATM   20  C4  UNL     1      22.963   8.350  49.595  1.00  0.00     0.005 A 
HETATM   21  C5  UNL     1      24.163   8.613  48.934  1.00  0.00     0.019 A 
HETATM   22  C6  UNL     1      25.341   8.049  49.351  1.00  0.00     0.119 A 
HETATM   23  N2  UNL     1      25.311   7.220  50.432  1.00  0.00    -0.243 NA
ENDBRANCH  15  18
ENDBRANCH   1  12
BRANCH  11  24
HETATM   24  O2  UNL     1      26.935  -1.474  53.495  1.00  0.00    -0.287 OA
HETATM   25  H16 UNL     1      27.695  -1.510  52.873  1.00  0.00     0.244 HD
ENDBRANCH  11  24
TORSDOF 3
ENDMDL
MODEL 2
REMARK VINA RESULT:      -7.8      1.781      2.147
REMARK  3 active torsions:
REMARK  status: ('A' for Active; 'I' for Inactive)
REMARK       I    between atoms: C1_2  and  N1_3 
REMARK       I    between atoms: C1_2  and  N3_10 
REMARK    1  A    between atoms: N1_3  and  C2_4 
REMARK    2  A    between atoms: N3_10  and  C7_11 
REMARK    3  A    between atoms: N4_21  and  O2_22 
ROOT
HETATM    1  C7  UNL     1      22.748   0.705  52.305  1.00  0.00     0.045 A 
HETATM    2  C8  UNL     1      21.520   0.179  52.570  1.00  0.00     0.030 A 
HETATM    3  C9  UNL     1      21.237  -0.704  53.579  1.00  0.00     0.005 A 
HETATM    4  C10 UNL     1      22.249  -1.119  54.420  1.00  0.00     0.032 A 
HETATM    5  C11 UNL     1      23.506  -0.605  54.180  1.00  0.00     0.066 A 
HETATM    6  C12 UNL     1      23.747   0.281  53.152  1.00  0.00     0.004 A 
HETATM    7  C13 UNL     1      25.211   0.623  53.193  1.00  0.00     0.049 C 
HETATM    8  C14 UNL     1      26.116  -0.354  52.513  1.00  0.00     0.013 C 
HETATM    9  C15 UNL     1      26.924  -0.408  53.802  1.00  0.00     0.029 C 
HETATM   10  C16 UNL     1      25.706   0.160  54.524  1.00  0.00     0.123 C 
HETATM   11  N4  UNL     1      24.721  -0.847  54.869  1.00  0.00    -0.255 N 
ENDROOT
BRANCH   1  12
HETATM   12  N3  UNL     1      23.074   1.618  51.272  1.00  0.00    -0.308 N 
HETATM   13  C1  UNL     1      23.215   3.005  51.321  1.00  0.00     0.326 C 
HETATM   14  O1  UNL     1      23.045   3.596  52.394  1.00  0.00    -0.247 OA
HETATM   15  N1  UNL     1      23.544   3.830  50.227  1.00  0.00    -0.293 N 
HETATM   16  H1  UNL     1      23.698   3.356  49.287  1.00  0.00     0.172 HD
HETATM   17  H6  UNL     1      23.246   1.249  50.302  1.00  0.00     0.170 HD
BRANCH  15  18
HETATM   18  C2  UNL     1      23.671   5.240  50.353  1.00  0.00     0.131 A 
HETATM   19  C3  UNL     1      22.533   6.016  50.369  1.00  0.00     0.050 A 
HETATM   20  C4  UNL     1      22.692   7.378  50.494  1.00  0.00     0.005 A 
HETATM   21  C5  UNL     1      23.977   7.913  50.597  1.00  0.00     0.019 A 
HETATM   22  C6  UNL     1      25.084   7.105  50.577  1.00  0.00     0.119 A 
HETATM   23  N2  UNL     1      24.900   5.761  50.453  1.00  0.00    -0.243 NA
ENDBRANCH  15  18
ENDBRANCH   1  12
BRANCH  11  24
HETATM   24  O2  UNL     1      25.033  -1.827  55.736  1.00  0.00    -0.287 OA
HETATM   25  H16 UNL     1      25.879  -1.687  56.216  1.00  0.00     0.244 HD
ENDBRANCH  11  24
TORSDOF 3
ENDMDL
MODEL 3
REMARK VINA RESULT:      -7.8      2.579      4.053
REMARK  3 active torsions:
REMARK  status: ('A' for Active; 'I' for Inactive)
REMARK       I    between atoms: C1_2  and  N1_3 
REMARK       I    between atoms: C1_2  and  N3_10 
REMARK    1  A    between atoms: N1_3  and  C2_4 
REMARK    2  A    between atoms: N3_10  and  C7_11 
REMARK    3  A    between atoms: N4_21  and  O2_22 
ROOT
HETATM    1  C7  UNL     1      25.120   0.843  52.641  1.00  0.00     0.045 A 
HETATM    2  C8  UNL     1      26.318   0.707  53.274  1.00  0.00     0.030 A 
HETATM    3  C9  UNL     1      26.547  -0.074  54.378  1.00  0.00     0.005 A 
HETATM    4  C10 UNL     1      25.507  -0.799  54.921  1.00  0.00     0.032 A 
HETATM    5  C11 UNL     1      24.279  -0.685  54.304  1.00  0.00     0.066 A 
HETATM    6  C12 UNL     1      24.093   0.114  53.196  1.00  0.00     0.004 A 
HETATM    7  C13 UNL     1      22.647  -0.006  52.799  1.00  0.00     0.049 C 
HETATM    8  C14 UNL     1      21.702   0.878  53.549  1.00  0.00     0.013 C 
HETATM    9  C15 UNL     1      20.879  -0.366  53.854  1.00  0.00     0.029 C 
HETATM   10  C16 UNL     1      22.117  -1.197  53.528  1.00  0.00     0.123 C 
HETATM   11  N4  UNL     1      23.047  -1.302  54.635  1.00  0.00    -0.255 N 
ENDROOT
BRANCH   1  12
HETATM   12  N3  UNL     1      24.850   1.641  51.502  1.00  0.00    -0.308 N 
HETATM   13  C1  UNL     1      25.553   2.735  50.995  1.00  0.00     0.326 C 
HETATM   14  O1  UNL     1      26.574   3.123  51.574  1.00  0.00    -0.247 OA
HETATM   15  N1  UNL     1      25.199   3.468  49.845  1.00  0.00    -0.293 N 
HETATM   16  H1  UNL     1      24.325   3.162  49.321  1.00  0.00     0.172 HD
HETATM   17  H6  UNL     1      24.007   1.421  50.913  1.00  0.00     0.170 HD
BRANCH  15  18
HETATM   18  C2  UNL     1      25.966   4.574  49.387  1.00  0.00     0.131 A 
HETATM   19  C3  UNL     1      27.220   4.349  48.865  1.00  0.00     0.050 A 
HETATM   20  C4  UNL     1      27.936   5.442  48.429  1.00  0.00     0.005 A 
HETATM   21  C5  UNL     1      27.374   6.715  48.533  1.00  0.00     0.019 A 
HETATM   22  C6  UNL     1      26.121   6.897  49.060  1.00  0.00     0.119 A 
HETATM   23  N2  UNL     1      25.434   5.799  49.483  1.00  0.00    -0.243 NA
ENDBRANCH  15  18
ENDBRANCH   1  12
BRANCH  11  24
HETATM   24  O2  UNL     1      22.679  -1.924  55.769  1.00  0.00    -0.287 OA
HETATM   25  H16 UNL     1      23.027  -1.508  56.589  1.00  0.00     0.244 HD
ENDBRANCH  11  24
TORSDOF 3
ENDMDL
MODEL 4
REMARK VINA RESULT:      -7.8      2.130      3.698
REMARK  3 active torsions:
REMARK  status: ('A' for Active; 'I' for Inactive)
REMARK       I    between atoms: C1_2  and  N1_3 
REMARK       I    between atoms: C1_2  and  N3_10 
REMARK    1  A    between atoms: N1_3  and  C2_4 
REMARK    2  A    between atoms: N3_10  and  C7_11 
REMARK    3  A    between atoms: N4_21  and  O2_22 
ROOT
HETATM    1  C7  UNL     1      24.968   1.088  52.755  1.00  0.00     0.045 A 
HETATM    2  C8  UNL     1      26.179   1.043  53.377  1.00  0.00     0.030 A 
HETATM    3  C9  UNL     1      26.488   0.251  54.453  1.00  0.00     0.005 A 
HETATM    4  C10 UNL     1      25.524  -0.585  54.977  1.00  0.00     0.032 A 
HETATM    5  C11 UNL     1      24.285  -0.564  54.370  1.00  0.00     0.066 A 
HETATM    6  C12 UNL     1      24.017   0.250  53.291  1.00  0.00     0.004 A 
HETATM    7  C13 UNL     1      22.586   0.010  52.897  1.00  0.00     0.049 C 
HETATM    8  C14 UNL     1      21.569   0.778  53.681  1.00  0.00     0.013 C 
HETATM    9  C15 UNL     1      20.867  -0.546  53.949  1.00  0.00     0.029 C 
HETATM   10  C16 UNL     1      22.173  -1.248  53.589  1.00  0.00     0.123 C 
HETATM   11  N4  UNL     1      23.118  -1.303  54.687  1.00  0.00    -0.255 N 
ENDROOT
BRANCH   1  12
HETATM   12  N3  UNL     1      24.617   1.895  51.645  1.00  0.00    -0.308 N 
HETATM   13  C1  UNL     1      24.043   3.166  51.614  1.00  0.00     0.326 C 
HETATM   14  O1  UNL     1      23.771   3.736  52.677  1.00  0.00    -0.247 OA
HETATM   15  N1  UNL     1      23.729   3.890  50.447  1.00  0.00    -0.293 N 
HETATM   16  H1  UNL     1      23.949   3.430  49.513  1.00  0.00     0.172 HD
HETATM   17  H6  UNL     1      24.795   1.531  50.674  1.00  0.00     0.170 HD
BRANCH  15  18
HETATM   18  C2  UNL     1      23.143   5.185  50.494  1.00  0.00     0.131 A 
HETATM   19  C3  UNL     1      23.963   6.288  50.581  1.00  0.00     0.050 A 
HETATM   20  C4  UNL     1      23.363   7.527  50.623  1.00  0.00     0.005 A 
HETATM   21  C5  UNL     1      21.971   7.617  50.579  1.00  0.00     0.019 A 
HETATM   22  C6  UNL     1      21.190   6.493  50.493  1.00  0.00     0.119 A 
HETATM   23  N2  UNL     1      21.808   5.280  50.451  1.00  0.00    -0.243 NA
ENDBRANCH  15  18
ENDBRANCH   1  12
BRANCH  11  24
HETATM   24  O2  UNL     1      22.818  -1.993  55.802  1.00  0.00    -0.287 OA
HETATM   25  H16 UNL     1      23.585  -2.158  56.394  1.00  0.00     0.244 HD
ENDBRANCH  11  24
TORSDOF 3
ENDMDL
MODEL 5
REMARK VINA RESULT:      -7.3      2.931      6.674
REMARK  3 active torsions:
REMARK  status: ('A' for Active; 'I' for Inactive)
REMARK       I    between atoms: C1_2  and  N1_3 
REMARK       I    between atoms: C1_2  and  N3_10 
REMARK    1  A    between atoms: N1_3  and  C2_4 
REMARK    2  A    between atoms: N3_10  and  C7_11 
REMARK    3  A    between atoms: N4_21  and  O2_22 
ROOT
HETATM    1  C7  UNL     1      22.192   1.867  51.998  1.00  0.00     0.045 A 
HETATM    2  C8  UNL     1      21.215   1.073  52.518  1.00  0.00     0.030 A 
HETATM    3  C9  UNL     1      20.141   0.580  51.822  1.00  0.00     0.005 A 
HETATM    4  C10 UNL     1      20.002   0.888  50.485  1.00  0.00     0.032 A 
HETATM    5  C11 UNL     1      20.975   1.690  49.926  1.00  0.00     0.066 A 
HETATM    6  C12 UNL     1      22.038   2.165  50.663  1.00  0.00     0.004 A 
HETATM    7  C13 UNL     1      22.886   2.994  49.738  1.00  0.00     0.049 C 
HETATM    8  C14 UNL     1      22.434   4.407  49.549  1.00  0.00     0.013 C 
HETATM    9  C15 UNL     1      22.478   4.155  48.049  1.00  0.00     0.029 C 
HETATM   10  C16 UNL     1      22.433   2.661  48.354  1.00  0.00     0.123 C 
HETATM   11  N4  UNL     1      21.092   2.164  48.595  1.00  0.00    -0.255 N 
ENDROOT
BRANCH   1  12
HETATM   12  N3  UNL     1      23.312   2.392  52.688  1.00  0.00    -0.308 N 
HETATM   13  C1  UNL     1      24.552   1.808  52.948  1.00  0.00     0.326 C 
HETATM   14  O1  UNL     1      24.780   0.660  52.546  1.00  0.00    -0.247 OA
HETATM   15  N1  UNL     1      25.610   2.419  53.650  1.00  0.00    -0.293 N 
HETATM   16  H1  UNL     1      25.450   3.407  54.011  1.00  0.00     0.172 HD
HETATM   17  H6  UNL     1      23.256   3.365  53.085  1.00  0.00     0.170 HD
BRANCH  15  18
HETATM   18  C2  UNL     1      26.849   1.760  53.877  1.00  0.00     0.131 A 
HETATM   19  C3  UNL     1      27.951   2.135  53.142  1.00  0.00     0.050 A 
HETATM   20  C4  UNL     1      29.136   1.477  53.388  1.00  0.00     0.005 A 
HETATM   21  C5  UNL     1      29.174   0.471  54.354  1.00  0.00     0.019 A 
HETATM   22  C6  UNL     1      28.053   0.126  55.064  1.00  0.00     0.119 A 
HETATM   23  N2  UNL     1      26.894   0.794  54.802  1.00  0.00    -0.243 NA
ENDBRANCH  15  18
ENDBRANCH   1  12
BRANCH  11  24
HETATM   24  O2  UNL     1      20.173   2.198  47.614  1.00  0.00    -0.287 OA
HETATM   25  H16 UNL     1      20.075   1.353  47.123  1.00  0.00     0.244 HD
ENDBRANCH  11  24
TORSDOF 3
ENDMDL
MODEL 6
REMARK VINA RESULT:      -7.2      1.885      2.753
REMARK  3 active torsions:
REMARK  status: ('A' for Active; 'I' for Inactive)
REMARK       I    between atoms: C1_2  and  N1_3 
REMARK       I    between atoms: C1_2  and  N3_10 
REMARK    1  A    between atoms: N1_3  and  C2_4 
REMARK    2  A    between atoms: N3_10  and  C7_11 
REMARK    3  A    between atoms: N4_21  and  O2_22 
ROOT
HETATM    1  C7  UNL     1      23.283   3.975  52.154  1.00  0.00     0.045 A 
HETATM    2  C8  UNL     1      21.925   4.001  52.051  1.00  0.00     0.030 A 
HETATM    3  C9  UNL     1      21.093   2.934  52.273  1.00  0.00     0.005 A 
HETATM    4  C10 UNL     1      21.633   1.718  52.633  1.00  0.00     0.032 A 
HETATM    5  C11 UNL     1      23.007   1.656  52.746  1.00  0.00     0.066 A 
HETATM    6  C12 UNL     1      23.806   2.754  52.512  1.00  0.00     0.004 A 
HETATM    7  C13 UNL     1      25.230   2.321  52.727  1.00  0.00     0.049 C 
HETATM    8  C14 UNL     1      25.878   1.647  51.559  1.00  0.00     0.013 C 
HETATM    9  C15 UNL     1      26.244   0.508  52.498  1.00  0.00     0.029 C 
HETATM   10  C16 UNL     1      25.160   1.013  53.446  1.00  0.00     0.123 C 
HETATM   11  N4  UNL     1      23.830   0.555  53.093  1.00  0.00    -0.255 N 
ENDROOT
BRANCH   1  12
HETATM   12  N3  UNL     1      24.169   5.057  51.931  1.00  0.00    -0.308 N 
HETATM   13  C1  UNL     1      24.663   5.570  50.731  1.00  0.00     0.326 C 
HETATM   14  O1  UNL     1      24.320   5.053  49.661  1.00  0.00    -0.247 OA
HETATM   15  N1  UNL     1      25.549   6.660  50.614  1.00  0.00    -0.293 N 
HETATM   16  H1  UNL     1      25.867   7.129  51.514  1.00  0.00     0.172 HD
HETATM   17  H6  UNL     1      24.542   5.590  52.758  1.00  0.00     0.170 HD
BRANCH  15  18
HETATM   18  C2  UNL     1      26.012   7.128  49.353  1.00  0.00     0.131 A 
HETATM   19  C3  UNL     1      27.152   6.578  48.812  1.00  0.00     0.050 A 
HETATM   20  C4  UNL     1      27.571   7.053  47.589  1.00  0.00     0.005 A 
HETATM   21  C5  UNL     1      26.838   8.058  46.957  1.00  0.00     0.019 A 
HETATM   22  C6  UNL     1      25.707   8.580  47.530  1.00  0.00     0.119 A 
HETATM   23  N2  UNL     1      25.314   8.091  48.740  1.00  0.00    -0.243 NA
ENDBRANCH  15  18
ENDBRANCH   1  12
BRANCH  11  24
HETATM   24  O2  UNL     1      23.536  -0.756  53.130  1.00  0.00    -0.287 OA
HETATM   25  H16 UNL     1      22.746  -0.978  53.672  1.00  0.00     0.244 HD
ENDBRANCH  11  24
TORSDOF 3
ENDMDL
MODEL 7
REMARK VINA RESULT:      -7.2      2.714      7.936
REMARK  3 active torsions:
REMARK  status: ('A' for Active; 'I' for Inactive)
REMARK       I    between atoms: C1_2  and  N1_3 
REMARK       I    between atoms: C1_2  and  N3_10 
REMARK    1  A    between atoms: N1_3  and  C2_4 
REMARK    2  A    between atoms: N3_10  and  C7_11 
REMARK    3  A    between atoms: N4_21  and  O2_22 
ROOT
HETATM    1  C7  UNL     1      26.449   4.805  49.317  1.00  0.00     0.045 A 
HETATM    2  C8  UNL     1      27.638   4.774  48.653  1.00  0.00     0.030 A 
HETATM    3  C9  UNL     1      28.321   5.874  48.199  1.00  0.00     0.005 A 
HETATM    4  C10 UNL     1      27.798   7.131  48.414  1.00  0.00     0.032 A 
HETATM    5  C11 UNL     1      26.594   7.199  49.084  1.00  0.00     0.066 A 
HETATM    6  C12 UNL     1      25.941   6.067  49.522  1.00  0.00     0.004 A 
HETATM    7  C13 UNL     1      24.677   6.517  50.202  1.00  0.00     0.049 C 
HETATM    8  C14 UNL     1      23.522   6.789  49.292  1.00  0.00     0.013 C 
HETATM    9  C15 UNL     1      23.401   8.154  49.953  1.00  0.00     0.029 C 
HETATM   10  C16 UNL     1      24.837   7.984  50.440  1.00  0.00     0.123 C 
HETATM   11  N4  UNL     1      25.829   8.337  49.442  1.00  0.00    -0.255 N 
ENDROOT
BRANCH   1  12
HETATM   12  N3  UNL     1      25.719   3.690  49.797  1.00  0.00    -0.308 N 
HETATM   13  C1  UNL     1      26.062   2.755  50.774  1.00  0.00     0.326 C 
HETATM   14  O1  UNL     1      27.151   2.850  51.351  1.00  0.00    -0.247 OA
HETATM   15  N1  UNL     1      25.258   1.672  51.183  1.00  0.00    -0.293 N 
HETATM   16  H1  UNL     1      24.313   1.559  50.708  1.00  0.00     0.172 HD
HETATM   17  H6  UNL     1      24.769   3.490  49.391  1.00  0.00     0.170 HD
BRANCH  15  18
HETATM   18  C2  UNL     1      25.675   0.757  52.189  1.00  0.00     0.131 A 
HETATM   19  C3  UNL     1      26.642  -0.175  51.886  1.00  0.00     0.050 A 
HETATM   20  C4  UNL     1      27.024  -1.045  52.883  1.00  0.00     0.005 A 
HETATM   21  C5  UNL     1      26.426  -0.952  54.140  1.00  0.00     0.019 A 
HETATM   22  C6  UNL     1      25.466  -0.008  54.402  1.00  0.00     0.119 A 
HETATM   23  N2  UNL     1      25.107   0.841  53.398  1.00  0.00    -0.243 NA
ENDBRANCH  15  18
ENDBRANCH   1  12
BRANCH  11  24
HETATM   24  O2  UNL     1      25.915   9.602  48.994  1.00  0.00    -0.287 OA
HETATM   25  H16 UNL     1      25.732   9.704  48.034  1.00  0.00     0.244 HD
ENDBRANCH  11  24
TORSDOF 3
ENDMDL
MODEL 8
REMARK VINA RESULT:      -7.1      3.619      6.399
REMARK  3 active torsions:
REMARK  status: ('A' for Active; 'I' for Inactive)
REMARK       I    between atoms: C1_2  and  N1_3 
REMARK       I    between atoms: C1_2  and  N3_10 
REMARK    1  A    between atoms: N1_3  and  C2_4 
REMARK    2  A    between atoms: N3_10  and  C7_11 
REMARK    3  A    between atoms: N4_21  and  O2_22 
ROOT
HETATM    1  C7  UNL     1      24.072   1.735  52.327  1.00  0.00     0.045 A 
HETATM    2  C8  UNL     1      24.922   0.753  52.737  1.00  0.00     0.030 A 
HETATM    3  C9  UNL     1      26.247   0.659  52.395  1.00  0.00     0.005 A 
HETATM    4  C10 UNL     1      26.804   1.616  51.574  1.00  0.00     0.032 A 
HETATM    5  C11 UNL     1      25.970   2.626  51.140  1.00  0.00     0.066 A 
HETATM    6  C12 UNL     1      24.643   2.682  51.507  1.00  0.00     0.004 A 
HETATM    7  C13 UNL     1      24.052   3.902  50.856  1.00  0.00     0.049 C 
HETATM    8  C14 UNL     1      23.614   3.722  49.437  1.00  0.00     0.013 C 
HETATM    9  C15 UNL     1      24.456   4.941  49.088  1.00  0.00     0.029 C 
HETATM   10  C16 UNL     1      25.211   4.726  50.396  1.00  0.00     0.123 C 
HETATM   11  N4  UNL     1      26.259   3.729  50.299  1.00  0.00    -0.255 N 
ENDROOT
BRANCH   1  12
HETATM   12  N3  UNL     1      22.701   1.861  52.660  1.00  0.00    -0.308 N 
HETATM   13  C1  UNL     1      21.579   1.321  52.030  1.00  0.00     0.326 C 
HETATM   14  O1  UNL     1      21.726   0.618  51.024  1.00  0.00    -0.247 OA
HETATM   15  N1  UNL     1      20.244   1.507  52.443  1.00  0.00    -0.293 N 
HETATM   16  H1  UNL     1      20.079   2.107  53.305  1.00  0.00     0.172 HD
HETATM   17  H6  UNL     1      22.430   2.435  53.499  1.00  0.00     0.170 HD
BRANCH  15  18
HETATM   18  C2  UNL     1      19.149   0.924  51.749  1.00  0.00     0.131 A 
HETATM   19  C3  UNL     1      18.563  -0.213  52.259  1.00  0.00     0.050 A 
HETATM   20  C4  UNL     1      17.503  -0.752  51.562  1.00  0.00     0.005 A 
HETATM   21  C5  UNL     1      17.072  -0.137  50.386  1.00  0.00     0.019 A 
HETATM   22  C6  UNL     1      17.683   0.995  49.912  1.00  0.00     0.119 A 
HETATM   23  N2  UNL     1      18.729   1.508  50.620  1.00  0.00    -0.243 NA
ENDBRANCH  15  18
ENDBRANCH   1  12
BRANCH  11  24
HETATM   24  O2  UNL     1      27.313   3.936  49.489  1.00  0.00    -0.287 OA
HETATM   25  H16 UNL     1      28.180   3.962  49.953  1.00  0.00     0.244 HD
ENDBRANCH  11  24
TORSDOF 3
ENDMDL
MODEL 9
REMARK VINA RESULT:      -7.1      3.254      3.576
REMARK  3 active torsions:
REMARK  status: ('A' for Active; 'I' for Inactive)
REMARK       I    between atoms: C1_2  and  N1_3 
REMARK       I    between atoms: C1_2  and  N3_10 
REMARK    1  A    between atoms: N1_3  and  C2_4 
REMARK    2  A    between atoms: N3_10  and  C7_11 
REMARK    3  A    between atoms: N4_21  and  O2_22 
ROOT
HETATM    1  C7  UNL     1      22.848   1.306  52.815  1.00  0.00     0.045 A 
HETATM    2  C8  UNL     1      22.100   0.260  53.264  1.00  0.00     0.030 A 
HETATM    3  C9  UNL     1      22.581  -0.814  53.968  1.00  0.00     0.005 A 
HETATM    4  C10 UNL     1      23.926  -0.879  54.269  1.00  0.00     0.032 A 
HETATM    5  C11 UNL     1      24.713   0.165  53.829  1.00  0.00     0.066 A 
HETATM    6  C12 UNL     1      24.187   1.226  53.123  1.00  0.00     0.004 A 
HETATM    7  C13 UNL     1      25.323   2.161  52.813  1.00  0.00     0.049 C 
HETATM    8  C14 UNL     1      26.133   1.807  51.606  1.00  0.00     0.013 C 
HETATM    9  C15 UNL     1      27.371   1.896  52.488  1.00  0.00     0.029 C 
HETATM   10  C16 UNL     1      26.453   1.744  53.697  1.00  0.00     0.123 C 
HETATM   11  N4  UNL     1      26.107   0.366  53.986  1.00  0.00    -0.255 N 
ENDROOT
BRANCH   1  12
HETATM   12  N3  UNL     1      22.383   2.427  52.086  1.00  0.00    -0.308 N 
HETATM   13  C1  UNL     1      22.106   2.551  50.724  1.00  0.00     0.326 C 
HETATM   14  O1  UNL     1      22.268   1.577  49.980  1.00  0.00    -0.247 OA
HETATM   15  N1  UNL     1      21.643   3.722  50.090  1.00  0.00    -0.293 N 
HETATM   16  H1  UNL     1      21.492   4.580  50.700  1.00  0.00     0.172 HD
HETATM   17  H6  UNL     1      22.201   3.329  52.598  1.00  0.00     0.170 HD
BRANCH  15  18
HETATM   18  C2  UNL     1      21.382   3.773  48.693  1.00  0.00     0.131 A 
HETATM   19  C3  UNL     1      22.355   4.255  47.848  1.00  0.00     0.050 A 
HETATM   20  C4  UNL     1      22.070   4.290  46.501  1.00  0.00     0.005 A 
HETATM   21  C5  UNL     1      20.827   3.844  46.051  1.00  0.00     0.019 A 
HETATM   22  C6  UNL     1      19.884   3.371  46.926  1.00  0.00     0.119 A 
HETATM   23  N2  UNL     1      20.191   3.346  48.254  1.00  0.00    -0.243 NA
ENDBRANCH  15  18
ENDBRANCH   1  12
BRANCH  11  24
HETATM   24  O2  UNL     1      27.063  -0.508  54.347  1.00  0.00    -0.287 OA
HETATM   25  H16 UNL     1      27.384  -0.398  55.269  1.00  0.00     0.244 HD
ENDBRANCH  11  24
TORSDOF 3
ENDMDL
