MODEL 1
REMARK VINA RESULT:      -8.4      0.000      0.000
REMARK  2 active torsions:
REMARK  status: ('A' for Active; 'I' for Inactive)
REMARK    1  A    between atoms: C7_8  and  O1_9 
REMARK    2  A    between atoms: O1_9  and  C8_10 
ROOT
HETATM    1  C8  UNL     1      23.208   6.232  49.425  1.00  0.00     0.199 C 
HETATM    2  C9  UNL     1      22.835   6.007  50.845  1.00  0.00    -0.028 C 
HETATM    3  C10 UNL     1      21.595   6.547  51.085  1.00  0.00     0.003 C 
HETATM    4  C11 UNL     1      20.431   6.178  50.162  1.00  0.00     0.154 C 
HETATM    5  N1  UNL     1      21.038   5.179  49.310  1.00  0.00    -0.341 N 
HETATM    6  C12 UNL     1      21.036   3.787  49.038  1.00  0.00     0.137 A 
HETATM    7  N2  UNL     1      21.278   3.388  47.795  1.00  0.00    -0.224 NA
HETATM    8  C13 UNL     1      21.522   2.115  47.459  1.00  0.00     0.235 A 
HETATM    9  N3  UNL     1      21.513   1.227  48.511  1.00  0.00    -0.241 NA
HETATM   10  C14 UNL     1      21.257   1.735  49.731  1.00  0.00     0.067 A 
HETATM   11  C15 UNL     1      20.987   3.000  50.158  1.00  0.00     0.013 A 
HETATM   12  C16 UNL     1      20.604   3.278  51.545  1.00  0.00     0.055 C 
HETATM   13  C17 UNL     1      21.641   0.666  50.694  1.00  0.00     0.032 C 
HETATM   14  C18 UNL     1      22.473   1.200  51.622  1.00  0.00     0.002 C 
HETATM   15  C19 UNL     1      23.379   1.903  52.585  1.00  0.00     0.000 C 
HETATM   16  C20 UNL     1      24.005   3.016  53.061  1.00  0.00     0.000 C 
HETATM   17  C21 UNL     1      24.046   4.421  52.718  1.00  0.00     0.001 C 
HETATM   18  C22 UNL     1      23.588   5.348  51.916  1.00  0.00     0.009 C 
HETATM   19  C23 UNL     1      22.019   5.979  48.557  1.00  0.00     0.217 C 
HETATM   20 CL1  UNL     1      22.608   5.064  47.148  1.00  0.00    -0.099 Cl
ENDROOT
BRANCH   1  21
HETATM   21  O1  UNL     1      24.351   5.543  49.043  1.00  0.00    -0.337 OA
BRANCH  21  22
HETATM   22  C7  UNL     1      25.470   6.188  48.567  1.00  0.00     0.078 A 
HETATM   23  C2  UNL     1      26.563   5.342  48.790  1.00  0.00     0.010 A 
HETATM   24  C1  UNL     1      26.561   3.976  49.427  1.00  0.00     0.054 C 
HETATM   25  C3  UNL     1      27.863   5.684  48.427  1.00  0.00     0.125 A 
HETATM   26  F1  UNL     1      28.979   4.945  48.595  1.00  0.00    -0.205 F 
HETATM   27  C4  UNL     1      28.099   6.911  47.818  1.00  0.00     0.043 A 
HETATM   28  C5  UNL     1      27.025   7.741  47.599  1.00  0.00     0.006 A 
HETATM   29  C6  UNL     1      25.738   7.400  47.959  1.00  0.00     0.037 A 
ENDBRANCH  21  22
ENDBRANCH   1  21
TORSDOF 2
ENDMDL
MODEL 2
REMARK VINA RESULT:      -8.1      3.149      5.634
REMARK  2 active torsions:
REMARK  status: ('A' for Active; 'I' for Inactive)
REMARK    1  A    between atoms: C7_8  and  O1_9 
REMARK    2  A    between atoms: O1_9  and  C8_10 
ROOT
HETATM    1  C8  UNL     1      21.489   2.494  52.100  1.00  0.00     0.199 C 
HETATM    2  C9  UNL     1      20.756   2.021  50.898  1.00  0.00    -0.028 C 
HETATM    3  C10 UNL     1      19.415   2.276  51.048  1.00  0.00     0.003 C 
HETATM    4  C11 UNL     1      18.963   3.688  51.428  1.00  0.00     0.154 C 
HETATM    5  N1  UNL     1      20.212   4.416  51.388  1.00  0.00    -0.341 N 
HETATM    6  C12 UNL     1      20.919   5.387  50.636  1.00  0.00     0.137 A 
HETATM    7  N2  UNL     1      21.752   6.198  51.278  1.00  0.00    -0.224 NA
HETATM    8  C13 UNL     1      22.632   6.997  50.662  1.00  0.00     0.235 A 
HETATM    9  N3  UNL     1      22.623   6.917  49.288  1.00  0.00    -0.241 NA
HETATM   10  C14 UNL     1      21.740   6.063  48.736  1.00  0.00     0.067 A 
HETATM   11  C15 UNL     1      20.808   5.232  49.279  1.00  0.00     0.013 A 
HETATM   12  C16 UNL     1      19.859   4.490  48.445  1.00  0.00     0.055 C 
HETATM   13  C17 UNL     1      22.165   5.915  47.316  1.00  0.00     0.032 C 
HETATM   14  C18 UNL     1      22.271   4.593  47.033  1.00  0.00     0.002 C 
HETATM   15  C19 UNL     1      22.350   3.110  46.843  1.00  0.00     0.000 C 
HETATM   16  C20 UNL     1      22.202   1.827  47.278  1.00  0.00     0.000 C 
HETATM   17  C21 UNL     1      21.748   1.179  48.489  1.00  0.00     0.001 C 
HETATM   18  C22 UNL     1      21.264   1.360  49.692  1.00  0.00     0.009 C 
HETATM   19  C23 UNL     1      20.946   3.821  52.519  1.00  0.00     0.217 C 
HETATM   20 CL1  UNL     1      22.350   4.830  52.941  1.00  0.00    -0.099 Cl
ENDROOT
BRANCH   1  21
HETATM   21  O1  UNL     1      22.869   2.464  51.947  1.00  0.00    -0.337 OA
BRANCH  21  22
HETATM   22  C7  UNL     1      23.635   1.420  52.416  1.00  0.00     0.078 A 
HETATM   23  C2  UNL     1      24.915   1.567  51.870  1.00  0.00     0.010 A 
HETATM   24  C1  UNL     1      25.407   2.648  50.941  1.00  0.00     0.054 C 
HETATM   25  C3  UNL     1      25.952   0.677  52.136  1.00  0.00     0.125 A 
HETATM   26  F1  UNL     1      27.214   0.729  51.665  1.00  0.00    -0.205 F 
HETATM   27  C4  UNL     1      25.720  -0.405  52.977  1.00  0.00     0.043 A 
HETATM   28  C5  UNL     1      24.461  -0.549  53.513  1.00  0.00     0.006 A 
HETATM   29  C6  UNL     1      23.437   0.334  53.247  1.00  0.00     0.037 A 
ENDBRANCH  21  22
ENDBRANCH   1  21
TORSDOF 2
ENDMDL
MODEL 3
REMARK VINA RESULT:      -8.0      3.189      5.070
REMARK  2 active torsions:
REMARK  status: ('A' for Active; 'I' for Inactive)
REMARK    1  A    between atoms: C7_8  and  O1_9 
REMARK    2  A    between atoms: O1_9  and  C8_10 
ROOT
HETATM    1  C8  UNL     1      25.531   2.667  52.005  1.00  0.00     0.199 C 
HETATM    2  C9  UNL     1      24.424   2.478  52.978  1.00  0.00    -0.028 C 
HETATM    3  C10 UNL     1      23.997   3.702  53.431  1.00  0.00     0.003 C 
HETATM    4  C11 UNL     1      23.636   4.789  52.416  1.00  0.00     0.154 C 
HETATM    5  N1  UNL     1      23.755   4.071  51.165  1.00  0.00    -0.341 N 
HETATM    6  C12 UNL     1      22.983   3.530  50.107  1.00  0.00     0.137 A 
HETATM    7  N2  UNL     1      23.514   3.501  48.890  1.00  0.00    -0.224 NA
HETATM    8  C13 UNL     1      22.984   2.822  47.864  1.00  0.00     0.235 A 
HETATM    9  N3  UNL     1      21.830   2.134  48.162  1.00  0.00    -0.241 NA
HETATM   10  C14 UNL     1      21.375   2.229  49.425  1.00  0.00     0.067 A 
HETATM   11  C15 UNL     1      21.837   2.901  50.516  1.00  0.00     0.013 A 
HETATM   12  C16 UNL     1      21.074   2.954  51.766  1.00  0.00     0.055 C 
HETATM   13  C17 UNL     1      20.356   1.152  49.562  1.00  0.00     0.032 C 
HETATM   14  C18 UNL     1      20.648   0.420  50.665  1.00  0.00     0.002 C 
HETATM   15  C19 UNL     1      21.072  -0.310  51.902  1.00  0.00     0.000 C 
HETATM   16  C20 UNL     1      21.880  -0.481  52.986  1.00  0.00     0.000 C 
HETATM   17  C21 UNL     1      23.011   0.209  53.567  1.00  0.00     0.001 C 
HETATM   18  C22 UNL     1      23.811   1.240  53.468  1.00  0.00     0.009 C 
HETATM   19  C23 UNL     1      25.204   3.811  51.102  1.00  0.00     0.217 C 
HETATM   20 CL1  UNL     1      25.667   3.305  49.459  1.00  0.00    -0.099 Cl
ENDROOT
BRANCH   1  21
HETATM   21  O1  UNL     1      25.884   1.499  51.344  1.00  0.00    -0.337 OA
BRANCH  21  22
HETATM   22  C7  UNL     1      26.531   0.464  51.980  1.00  0.00     0.078 A 
HETATM   23  C2  UNL     1      27.639   1.009  52.640  1.00  0.00     0.010 A 
HETATM   24  C1  UNL     1      28.078   2.451  52.674  1.00  0.00     0.054 C 
HETATM   25  C3  UNL     1      28.521   0.237  53.389  1.00  0.00     0.125 A 
HETATM   26  F1  UNL     1      29.611   0.662  54.060  1.00  0.00    -0.205 F 
HETATM   27  C4  UNL     1      28.306  -1.132  53.495  1.00  0.00     0.043 A 
HETATM   28  C5  UNL     1      27.218  -1.668  52.847  1.00  0.00     0.006 A 
HETATM   29  C6  UNL     1      26.345  -0.900  52.105  1.00  0.00     0.037 A 
ENDBRANCH  21  22
ENDBRANCH   1  21
TORSDOF 2
ENDMDL
MODEL 4
REMARK VINA RESULT:      -7.9      2.291      5.685
REMARK  2 active torsions:
REMARK  status: ('A' for Active; 'I' for Inactive)
REMARK    1  A    between atoms: C7_8  and  O1_9 
REMARK    2  A    between atoms: O1_9  and  C8_10 
ROOT
HETATM    1  C8  UNL     1      21.688   2.722  50.008  1.00  0.00     0.199 C 
HETATM    2  C9  UNL     1      22.767   2.802  48.989  1.00  0.00    -0.028 C 
HETATM    3  C10 UNL     1      22.212   2.802  47.733  1.00  0.00     0.003 C 
HETATM    4  C11 UNL     1      21.098   3.800  47.410  1.00  0.00     0.154 C 
HETATM    5  N1  UNL     1      21.058   4.594  48.619  1.00  0.00    -0.341 N 
HETATM    6  C12 UNL     1      21.375   5.879  49.127  1.00  0.00     0.137 A 
HETATM    7  N2  UNL     1      20.624   6.372  50.105  1.00  0.00    -0.224 NA
HETATM    8  C13 UNL     1      20.951   7.461  50.814  1.00  0.00     0.235 A 
HETATM    9  N3  UNL     1      22.145   8.046  50.458  1.00  0.00    -0.241 NA
HETATM   10  C14 UNL     1      22.828   7.466  49.453  1.00  0.00     0.067 A 
HETATM   11  C15 UNL     1      22.568   6.378  48.676  1.00  0.00     0.013 A 
HETATM   12  C16 UNL     1      23.419   6.024  47.538  1.00  0.00     0.055 C 
HETATM   13  C17 UNL     1      24.192   8.063  49.505  1.00  0.00     0.032 C 
HETATM   14  C18 UNL     1      25.102   7.057  49.518  1.00  0.00     0.002 C 
HETATM   15  C19 UNL     1      26.007   5.864  49.527  1.00  0.00     0.000 C 
HETATM   16  C20 UNL     1      26.236   4.522  49.475  1.00  0.00     0.000 C 
HETATM   17  C21 UNL     1      25.431   3.328  49.332  1.00  0.00     0.001 C 
HETATM   18  C22 UNL     1      24.220   2.858  49.169  1.00  0.00     0.009 C 
HETATM   19  C23 UNL     1      20.563   3.617  49.606  1.00  0.00     0.217 C 
HETATM   20 CL1  UNL     1      20.029   4.453  51.084  1.00  0.00    -0.099 Cl
ENDROOT
BRANCH   1  21
HETATM   21  O1  UNL     1      22.143   2.922  51.304  1.00  0.00    -0.337 OA
BRANCH  21  22
HETATM   22  C7  UNL     1      22.855   1.962  51.987  1.00  0.00     0.078 A 
HETATM   23  C2  UNL     1      23.872   2.620  52.690  1.00  0.00     0.010 A 
HETATM   24  C1  UNL     1      24.167   4.098  52.721  1.00  0.00     0.054 C 
HETATM   25  C3  UNL     1      24.787   1.946  53.492  1.00  0.00     0.125 A 
HETATM   26  F1  UNL     1      25.797   2.483  54.207  1.00  0.00    -0.205 F 
HETATM   27  C4  UNL     1      24.699   0.564  53.611  1.00  0.00     0.043 A 
HETATM   28  C5  UNL     1      23.700  -0.082  52.920  1.00  0.00     0.006 A 
HETATM   29  C6  UNL     1      22.795   0.589  52.126  1.00  0.00     0.037 A 
ENDBRANCH  21  22
ENDBRANCH   1  21
TORSDOF 2
ENDMDL
MODEL 5
REMARK VINA RESULT:      -7.7      6.720     11.101
REMARK  2 active torsions:
REMARK  status: ('A' for Active; 'I' for Inactive)
REMARK    1  A    between atoms: C7_8  and  O1_9 
REMARK    2  A    between atoms: O1_9  and  C8_10 
ROOT
HETATM    1  C8  UNL     1      31.756   6.220  47.826  1.00  0.00     0.199 C 
HETATM    2  C9  UNL     1      32.179   7.320  48.730  1.00  0.00    -0.028 C 
HETATM    3  C10 UNL     1      33.430   7.051  49.228  1.00  0.00     0.003 C 
HETATM    4  C11 UNL     1      34.558   6.694  48.257  1.00  0.00     0.154 C 
HETATM    5  N1  UNL     1      33.914   6.892  46.977  1.00  0.00    -0.341 N 
HETATM    6  C12 UNL     1      33.898   7.755  45.852  1.00  0.00     0.137 A 
HETATM    7  N2  UNL     1      33.609   7.236  44.664  1.00  0.00    -0.224 NA
HETATM    8  C13 UNL     1      33.346   7.973  43.577  1.00  0.00     0.235 A 
HETATM    9  N3  UNL     1      33.388   9.334  43.777  1.00  0.00    -0.241 NA
HETATM   10  C14 UNL     1      33.690   9.755  45.019  1.00  0.00     0.067 A 
HETATM   11  C15 UNL     1      33.983   9.085  46.168  1.00  0.00     0.013 A 
HETATM   12  C16 UNL     1      34.418   9.786  47.379  1.00  0.00     0.055 C 
HETATM   13  C17 UNL     1      33.335  11.202  45.045  1.00  0.00     0.032 C 
HETATM   14  C18 UNL     1      32.540  11.431  46.120  1.00  0.00     0.002 C 
HETATM   15  C19 UNL     1      31.673  11.559  47.334  1.00  0.00     0.000 C 
HETATM   16  C20 UNL     1      31.071  11.052  48.447  1.00  0.00     0.000 C 
HETATM   17  C21 UNL     1      31.026   9.772  49.121  1.00  0.00     0.001 C 
HETATM   18  C22 UNL     1      31.461   8.538  49.119  1.00  0.00     0.009 C 
HETATM   19  C23 UNL     1      32.912   5.812  46.972  1.00  0.00     0.217 C 
HETATM   20 CL1  UNL     1      32.267   5.578  45.329  1.00  0.00    -0.099 Cl
ENDROOT
BRANCH   1  21
HETATM   21  O1  UNL     1      30.596   6.506  47.120  1.00  0.00    -0.337 OA
BRANCH  21  22
HETATM   22  C7  UNL     1      29.344   6.263  47.638  1.00  0.00     0.078 A 
HETATM   23  C2  UNL     1      28.521   7.329  47.253  1.00  0.00     0.010 A 
HETATM   24  C1  UNL     1      28.894   8.534  46.427  1.00  0.00     0.054 C 
HETATM   25  C3  UNL     1      27.178   7.407  47.609  1.00  0.00     0.125 A 
HETATM   26  F1  UNL     1      26.304   8.383  47.291  1.00  0.00    -0.205 F 
HETATM   27  C4  UNL     1      26.618   6.393  48.378  1.00  0.00     0.043 A 
HETATM   28  C5  UNL     1      27.427   5.346  48.756  1.00  0.00     0.006 A 
HETATM   29  C6  UNL     1      28.757   5.272  48.401  1.00  0.00     0.037 A 
ENDBRANCH  21  22
ENDBRANCH   1  21
TORSDOF 2
ENDMDL
MODEL 6
REMARK VINA RESULT:      -7.6      2.892      4.761
REMARK  2 active torsions:
REMARK  status: ('A' for Active; 'I' for Inactive)
REMARK    1  A    between atoms: C7_8  and  O1_9 
REMARK    2  A    between atoms: O1_9  and  C8_10 
ROOT
HETATM    1  C8  UNL     1      23.712   3.535  51.508  1.00  0.00     0.199 C 
HETATM    2  C9  UNL     1      22.420   3.766  52.204  1.00  0.00    -0.028 C 
HETATM    3  C10 UNL     1      22.243   5.113  52.407  1.00  0.00     0.003 C 
HETATM    4  C11 UNL     1      22.390   6.071  51.223  1.00  0.00     0.154 C 
HETATM    5  N1  UNL     1      22.570   5.149  50.122  1.00  0.00    -0.341 N 
HETATM    6  C12 UNL     1      21.916   4.631  48.976  1.00  0.00     0.137 A 
HETATM    7  N2  UNL     1      22.658   4.283  47.931  1.00  0.00    -0.224 NA
HETATM    8  C13 UNL     1      22.190   3.583  46.889  1.00  0.00     0.235 A 
HETATM    9  N3  UNL     1      20.861   3.235  46.977  1.00  0.00    -0.241 NA
HETATM   10  C14 UNL     1      20.200   3.638  48.078  1.00  0.00     0.067 A 
HETATM   11  C15 UNL     1      20.588   4.356  49.167  1.00  0.00     0.013 A 
HETATM   12  C16 UNL     1      19.627   4.788  50.186  1.00  0.00     0.055 C 
HETATM   13  C17 UNL     1      18.930   2.859  48.085  1.00  0.00     0.032 C 
HETATM   14  C18 UNL     1      18.792   2.271  49.299  1.00  0.00     0.002 C 
HETATM   15  C19 UNL     1      18.751   1.678  50.673  1.00  0.00     0.000 C 
HETATM   16  C20 UNL     1      19.249   1.508  51.930  1.00  0.00     0.000 C 
HETATM   17  C21 UNL     1      20.379   2.008  52.685  1.00  0.00     0.001 C 
HETATM   18  C22 UNL     1      21.421   2.799  52.667  1.00  0.00     0.009 C 
HETATM   19  C23 UNL     1      23.883   4.559  50.434  1.00  0.00     0.217 C 
HETATM   20 CL1  UNL     1      24.523   3.697  49.014  1.00  0.00    -0.099 Cl
ENDROOT
BRANCH   1  21
HETATM   21  O1  UNL     1      23.877   2.225  51.081  1.00  0.00    -0.337 OA
BRANCH  21  22
HETATM   22  C7  UNL     1      24.297   1.225  51.930  1.00  0.00     0.078 A 
HETATM   23  C2  UNL     1      25.696   1.206  51.888  1.00  0.00     0.010 A 
HETATM   24  C1  UNL     1      26.611   2.093  51.083  1.00  0.00     0.054 C 
HETATM   25  C3  UNL     1      26.457   0.309  52.633  1.00  0.00     0.125 A 
HETATM   26  F1  UNL     1      27.801   0.209  52.666  1.00  0.00    -0.205 F 
HETATM   27  C4  UNL     1      25.814  -0.609  53.455  1.00  0.00     0.043 A 
HETATM   28  C5  UNL     1      24.439  -0.590  53.495  1.00  0.00     0.006 A 
HETATM   29  C6  UNL     1      23.689   0.300  52.756  1.00  0.00     0.037 A 
ENDBRANCH  21  22
ENDBRANCH   1  21
TORSDOF 2
ENDMDL
MODEL 7
REMARK VINA RESULT:      -7.5      3.878      7.316
REMARK  2 active torsions:
REMARK  status: ('A' for Active; 'I' for Inactive)
REMARK    1  A    between atoms: C7_8  and  O1_9 
REMARK    2  A    between atoms: O1_9  and  C8_10 
ROOT
HETATM    1  C8  UNL     1      19.843   2.087  48.970  1.00  0.00     0.199 C 
HETATM    2  C9  UNL     1      21.124   1.391  49.249  1.00  0.00    -0.028 C 
HETATM    3  C10 UNL     1      21.890   1.362  48.109  1.00  0.00     0.003 C 
HETATM    4  C11 UNL     1      22.146   2.665  47.350  1.00  0.00     0.154 C 
HETATM    5  N1  UNL     1      21.538   3.640  48.230  1.00  0.00    -0.341 N 
HETATM    6  C12 UNL     1      21.854   4.689  49.129  1.00  0.00     0.137 A 
HETATM    7  N2  UNL     1      21.001   5.700  49.244  1.00  0.00    -0.224 NA
HETATM    8  C13 UNL     1      21.074   6.627  50.208  1.00  0.00     0.235 A 
HETATM    9  N3  UNL     1      22.111   6.456  51.096  1.00  0.00    -0.241 NA
HETATM   10  C14 UNL     1      22.918   5.399  50.891  1.00  0.00     0.067 A 
HETATM   11  C15 UNL     1      22.927   4.425  49.939  1.00  0.00     0.013 A 
HETATM   12  C16 UNL     1      24.012   3.444  49.852  1.00  0.00     0.055 C 
HETATM   13  C17 UNL     1      23.708   5.253  52.145  1.00  0.00     0.032 C 
HETATM   14  C18 UNL     1      23.610   3.969  52.569  1.00  0.00     0.002 C 
HETATM   15  C19 UNL     1      23.427   2.528  52.934  1.00  0.00     0.000 C 
HETATM   16  C20 UNL     1      22.947   1.274  52.698  1.00  0.00     0.000 C 
HETATM   17  C21 UNL     1      22.184   0.625  51.654  1.00  0.00     0.001 C 
HETATM   18  C22 UNL     1      21.603   0.776  50.492  1.00  0.00     0.009 C 
HETATM   19  C23 UNL     1      20.110   3.291  48.127  1.00  0.00     0.217 C 
HETATM   20 CL1  UNL     1      19.106   4.604  48.790  1.00  0.00    -0.099 Cl
ENDROOT
BRANCH   1  21
HETATM   21  O1  UNL     1      19.097   2.343  50.112  1.00  0.00    -0.337 OA
BRANCH  21  22
HETATM   22  C7  UNL     1      18.127   1.477  50.563  1.00  0.00     0.078 A 
HETATM   23  C2  UNL     1      17.203   2.233  51.296  1.00  0.00     0.010 A 
HETATM   24  C1  UNL     1      17.227   3.716  51.564  1.00  0.00     0.054 C 
HETATM   25  C3  UNL     1      16.084   1.669  51.900  1.00  0.00     0.125 A 
HETATM   26  F1  UNL     1      15.138   2.305  52.622  1.00  0.00    -0.205 F 
HETATM   27  C4  UNL     1      15.861   0.303  51.779  1.00  0.00     0.043 A 
HETATM   28  C5  UNL     1      16.768  -0.439  51.060  1.00  0.00     0.006 A 
HETATM   29  C6  UNL     1      17.877   0.122  50.462  1.00  0.00     0.037 A 
ENDBRANCH  21  22
ENDBRANCH   1  21
TORSDOF 2
ENDMDL
MODEL 8
REMARK VINA RESULT:      -7.4      2.381      4.491
REMARK  2 active torsions:
REMARK  status: ('A' for Active; 'I' for Inactive)
REMARK    1  A    between atoms: C7_8  and  O1_9 
REMARK    2  A    between atoms: O1_9  and  C8_10 
ROOT
HETATM    1  C8  UNL     1      23.641   3.027  49.300  1.00  0.00     0.199 C 
HETATM    2  C9  UNL     1      22.806   3.255  48.093  1.00  0.00    -0.028 C 
HETATM    3  C10 UNL     1      22.481   2.048  47.525  1.00  0.00     0.003 C 
HETATM    4  C11 UNL     1      21.865   0.954  48.401  1.00  0.00     0.154 C 
HETATM    5  N1  UNL     1      21.691   1.649  49.657  1.00  0.00    -0.341 N 
HETATM    6  C12 UNL     1      20.695   2.191  50.509  1.00  0.00     0.137 A 
HETATM    7  N2  UNL     1      20.916   2.189  51.818  1.00  0.00    -0.224 NA
HETATM    8  C13 UNL     1      20.166   2.863  52.699  1.00  0.00     0.235 A 
HETATM    9  N3  UNL     1      19.130   3.580  52.145  1.00  0.00    -0.241 NA
HETATM   10  C14 UNL     1      18.993   3.515  50.808  1.00  0.00     0.067 A 
HETATM   11  C15 UNL     1      19.693   2.851  49.847  1.00  0.00     0.013 A 
HETATM   12  C16 UNL     1      19.255   2.833  48.449  1.00  0.00     0.055 C 
HETATM   13  C17 UNL     1      18.056   4.616  50.451  1.00  0.00     0.032 C 
HETATM   14  C18 UNL     1      18.619   5.359  49.466  1.00  0.00     0.002 C 
HETATM   15  C19 UNL     1      19.342   6.099  48.383  1.00  0.00     0.000 C 
HETATM   16  C20 UNL     1      20.391   6.269  47.530  1.00  0.00     0.000 C 
HETATM   17  C21 UNL     1      21.617   5.564  47.226  1.00  0.00     0.001 C 
HETATM   18  C22 UNL     1      22.352   4.514  47.495  1.00  0.00     0.009 C 
HETATM   19  C23 UNL     1      23.085   1.877  50.074  1.00  0.00     0.217 C 
HETATM   20 CL1  UNL     1      23.146   2.347  51.790  1.00  0.00    -0.099 Cl
ENDROOT
BRANCH   1  21
HETATM   21  O1  UNL     1      23.844   4.177  50.051  1.00  0.00    -0.337 OA
BRANCH  21  22
HETATM   22  C7  UNL     1      24.829   5.088  49.744  1.00  0.00     0.078 A 
HETATM   23  C2  UNL     1      24.395   6.339  50.199  1.00  0.00     0.010 A 
HETATM   24  C1  UNL     1      23.101   6.671  50.897  1.00  0.00     0.054 C 
HETATM   25  C3  UNL     1      25.153   7.496  50.051  1.00  0.00     0.125 A 
HETATM   26  F1  UNL     1      24.828   8.742  50.451  1.00  0.00    -0.205 F 
HETATM   27  C4  UNL     1      26.394   7.422  49.429  1.00  0.00     0.043 A 
HETATM   28  C5  UNL     1      26.821   6.192  48.982  1.00  0.00     0.006 A 
HETATM   29  C6  UNL     1      26.067   5.047  49.131  1.00  0.00     0.037 A 
ENDBRANCH  21  22
ENDBRANCH   1  21
TORSDOF 2
ENDMDL
MODEL 9
REMARK VINA RESULT:      -7.3      4.715      8.927
REMARK  2 active torsions:
REMARK  status: ('A' for Active; 'I' for Inactive)
REMARK    1  A    between atoms: C7_8  and  O1_9 
REMARK    2  A    between atoms: O1_9  and  C8_10 
ROOT
HETATM    1  C8  UNL     1      26.906   8.101  46.772  1.00  0.00     0.199 C 
HETATM    2  C9  UNL     1      28.375   8.014  46.566  1.00  0.00    -0.028 C 
HETATM    3  C10 UNL     1      28.673   8.313  45.259  1.00  0.00     0.003 C 
HETATM    4  C11 UNL     1      28.123   9.602  44.645  1.00  0.00     0.154 C 
HETATM    5  N1  UNL     1      27.495  10.226  45.789  1.00  0.00    -0.341 N 
HETATM    6  C12 UNL     1      27.637  11.311  46.692  1.00  0.00     0.137 A 
HETATM    7  N2  UNL     1      26.537  11.864  47.189  1.00  0.00    -0.224 NA
HETATM    8  C13 UNL     1      26.539  12.734  48.207  1.00  0.00     0.235 A 
HETATM    9  N3  UNL     1      27.784  13.019  48.721  1.00  0.00    -0.241 NA
HETATM   10  C14 UNL     1      28.833  12.405  48.144  1.00  0.00     0.067 A 
HETATM   11  C15 UNL     1      28.924  11.527  47.107  1.00  0.00     0.013 A 
HETATM   12  C16 UNL     1      30.219  11.099  46.572  1.00  0.00     0.055 C 
HETATM   13  C17 UNL     1      29.975  12.608  49.079  1.00  0.00     0.032 C 
HETATM   14  C18 UNL     1      30.544  11.403  49.332  1.00  0.00     0.002 C 
HETATM   15  C19 UNL     1      31.084  10.021  49.533  1.00  0.00     0.000 C 
HETATM   16  C20 UNL     1      31.100   8.682  49.278  1.00  0.00     0.000 C 
HETATM   17  C21 UNL     1      30.369   7.771  48.425  1.00  0.00     0.001 C 
HETATM   18  C22 UNL     1      29.433   7.661  47.516  1.00  0.00     0.009 C 
HETATM   19  C23 UNL     1      26.379   9.305  46.062  1.00  0.00     0.217 C 
HETATM   20 CL1  UNL     1      25.207  10.067  47.165  1.00  0.00    -0.099 Cl
ENDROOT
BRANCH   1  21
HETATM   21  O1  UNL     1      26.535   8.016  48.107  1.00  0.00    -0.337 OA
BRANCH  21  22
HETATM   22  C7  UNL     1      26.276   6.811  48.720  1.00  0.00     0.078 A 
HETATM   23  C2  UNL     1      25.321   7.049  49.717  1.00  0.00     0.010 A 
HETATM   24  C1  UNL     1      24.672   8.360  50.082  1.00  0.00     0.054 C 
HETATM   25  C3  UNL     1      24.827   6.040  50.538  1.00  0.00     0.125 A 
HETATM   26  F1  UNL     1      23.911   6.163  51.521  1.00  0.00    -0.205 F 
HETATM   27  C4  UNL     1      25.291   4.741  50.374  1.00  0.00     0.043 A 
HETATM   28  C5  UNL     1      26.229   4.507  49.395  1.00  0.00     0.006 A 
HETATM   29  C6  UNL     1      26.716   5.509  48.583  1.00  0.00     0.037 A 
ENDBRANCH  21  22
ENDBRANCH   1  21
TORSDOF 2
ENDMDL
