MODEL 1
REMARK VINA RESULT:      -7.5      0.000      0.000
REMARK  8 active torsions:
REMARK  status: ('A' for Active; 'I' for Inactive)
REMARK    1  A    between atoms: O1_2  and  C2_3 
REMARK    2  A    between atoms: C7_10  and  C8_11 
REMARK    3  A    between atoms: C8_11  and  S1_12 
REMARK    4  A    between atoms: C8_11  and  C9_13 
REMARK    5  A    between atoms: C11_16  and  N2_17 
REMARK    6  A    between atoms: N2_17  and  C12_18 
REMARK    7  A    between atoms: N3_21  and  S2_22 
REMARK    8  A    between atoms: C18_29  and  N5_30 
ROOT
HETATM    1  C9  UNL     1      22.832   4.662  50.383  1.00  0.00     0.024 A 
HETATM    2  C10 UNL     1      22.803   4.471  51.746  1.00  0.00     0.148 A 
HETATM    3  N1  UNL     1      23.089   3.331  52.344  1.00  0.00    -0.075 NA
HETATM    4  C11 UNL     1      23.439   2.237  51.665  1.00  0.00     0.724 A 
HETATM    5  N4  UNL     1      23.484   2.367  50.323  1.00  0.00    -0.045 NA
HETATM    6  C18 UNL     1      23.192   3.531  49.714  1.00  0.00     0.149 A 
ENDROOT
BRANCH   1   7
HETATM    7  C8  UNL     1      22.520   5.914  49.699  1.00  0.00     0.121 C 
BRANCH   7   8
HETATM    8  C7  UNL     1      23.701   6.605  49.136  1.00  0.00     0.035 A 
HETATM    9  C2  UNL     1      24.002   6.849  47.811  1.00  0.00     0.079 A 
HETATM   10  C3  UNL     1      25.165   7.517  47.471  1.00  0.00     0.040 A 
HETATM   11  C4  UNL     1      26.049   7.959  48.441  1.00  0.00     0.048 A 
HETATM   12  C5  UNL     1      25.743   7.713  49.773  1.00  0.00     0.155 A 
HETATM   13  F1  UNL     1      26.676   8.188  50.630  1.00  0.00    -0.203 F 
HETATM   14  C6  UNL     1      24.574   7.040  50.113  1.00  0.00     0.165 A 
HETATM   15  F2  UNL     1      24.481   6.912  51.466  1.00  0.00    -0.202 F 
BRANCH   9  16
HETATM   16  O1  UNL     1      23.055   6.368  46.915  1.00  0.00    -0.355 OA
HETATM   17  C1  UNL     1      22.729   7.216  45.817  1.00  0.00     0.210 C 
ENDBRANCH   9  16
ENDBRANCH   7   8
BRANCH   7  18
HETATM   18  S1  UNL     1      21.706   7.036  50.870  1.00  0.00    -0.167 SA
HETATM   19  H7  UNL     1      20.862   7.876  50.121  1.00  0.00     0.102 HD
ENDBRANCH   7  18
ENDBRANCH   1   7
BRANCH   6  20
HETATM   20  N5  UNL     1      23.290   3.484  48.309  1.00  0.00    -0.383 N 
HETATM   21  H22 UNL     1      23.341   3.455  47.278  1.00  0.00     0.157 HD
HETATM   22  H23 UNL     1      24.091   3.244  47.668  1.00  0.00     0.157 HD
ENDBRANCH   6  20
BRANCH   4  23
HETATM   23  N2  UNL     1      23.745   1.022  52.306  1.00  0.00    -0.218 N 
HETATM   24  H9  UNL     1      23.282   0.146  51.961  1.00  0.00     0.178 HD
BRANCH  23  25
HETATM   25  C12 UNL     1      24.666   0.908  53.421  1.00  0.00     0.101 C 
HETATM   26  C13 UNL     1      25.646   2.048  53.508  1.00  0.00     0.041 C 
HETATM   27  C14 UNL     1      26.876   1.850  52.692  1.00  0.00     0.109 C 
HETATM   28  N3  UNL     1      27.484   0.567  52.757  1.00  0.00    -0.211 NA
HETATM   29  C16 UNL     1      26.560  -0.509  52.584  1.00  0.00     0.109 C 
HETATM   30  C17 UNL     1      25.328  -0.442  53.428  1.00  0.00     0.041 C 
BRANCH  28  31
HETATM   31  S2  UNL     1      28.554   0.313  54.055  1.00  0.00     0.207 S 
HETATM   32  C15 UNL     1      29.937  -0.699  53.556  1.00  0.00     0.180 C 
HETATM   33  O2  UNL     1      29.097   1.577  54.659  1.00  0.00    -0.212 OA
HETATM   34  O3  UNL     1      27.787  -0.405  55.140  1.00  0.00    -0.212 OA
ENDBRANCH  28  31
ENDBRANCH  23  25
ENDBRANCH   4  23
TORSDOF 8
ENDMDL
MODEL 2
REMARK VINA RESULT:      -7.4      2.126      2.771
REMARK  8 active torsions:
REMARK  status: ('A' for Active; 'I' for Inactive)
REMARK    1  A    between atoms: O1_2  and  C2_3 
REMARK    2  A    between atoms: C7_10  and  C8_11 
REMARK    3  A    between atoms: C8_11  and  S1_12 
REMARK    4  A    between atoms: C8_11  and  C9_13 
REMARK    5  A    between atoms: C11_16  and  N2_17 
REMARK    6  A    between atoms: N2_17  and  C12_18 
REMARK    7  A    between atoms: N3_21  and  S2_22 
REMARK    8  A    between atoms: C18_29  and  N5_30 
ROOT
HETATM    1  C9  UNL     1      24.202   5.922  50.558  1.00  0.00     0.024 A 
HETATM    2  C10 UNL     1      25.161   5.021  50.153  1.00  0.00     0.148 A 
HETATM    3  N1  UNL     1      25.175   3.747  50.491  1.00  0.00    -0.075 NA
HETATM    4  C11 UNL     1      24.240   3.207  51.275  1.00  0.00     0.724 A 
HETATM    5  N4  UNL     1      23.274   4.045  51.702  1.00  0.00    -0.045 NA
HETATM    6  C18 UNL     1      23.260   5.345  51.355  1.00  0.00     0.149 A 
ENDROOT
BRANCH   1   7
HETATM    7  C8  UNL     1      24.166   7.337  50.196  1.00  0.00     0.121 C 
BRANCH   7   8
HETATM    8  C7  UNL     1      23.428   7.621  48.946  1.00  0.00     0.035 A 
HETATM    9  C2  UNL     1      22.126   8.060  48.798  1.00  0.00     0.079 A 
HETATM   10  C3  UNL     1      21.601   8.273  47.535  1.00  0.00     0.040 A 
HETATM   11  C4  UNL     1      22.360   8.058  46.396  1.00  0.00     0.048 A 
HETATM   12  C5  UNL     1      23.668   7.618  46.548  1.00  0.00     0.155 A 
HETATM   13  F1  UNL     1      24.310   7.443  45.371  1.00  0.00    -0.203 F 
HETATM   14  C6  UNL     1      24.193   7.403  47.818  1.00  0.00     0.165 A 
HETATM   15  F2  UNL     1      25.484   6.976  47.727  1.00  0.00    -0.202 F 
BRANCH   9  16
HETATM   16  O1  UNL     1      21.450   8.245  49.996  1.00  0.00    -0.355 OA
HETATM   17  C1  UNL     1      20.079   8.622  49.902  1.00  0.00     0.210 C 
ENDBRANCH   9  16
ENDBRANCH   7   8
BRANCH   7  18
HETATM   18  S1  UNL     1      25.867   7.938  50.003  1.00  0.00    -0.167 SA
HETATM   19  H7  UNL     1      25.834   9.335  50.166  1.00  0.00     0.102 HD
ENDBRANCH   7  18
ENDBRANCH   1   7
BRANCH   6  20
HETATM   20  N5  UNL     1      22.179   6.071  51.893  1.00  0.00    -0.383 N 
HETATM   21  H22 UNL     1      21.400   6.616  52.297  1.00  0.00     0.157 HD
HETATM   22  H23 UNL     1      21.136   5.942  51.811  1.00  0.00     0.157 HD
ENDBRANCH   6  20
BRANCH   4  23
HETATM   23  N2  UNL     1      24.257   1.845  51.632  1.00  0.00    -0.218 N 
HETATM   24  H9  UNL     1      23.826   1.152  50.973  1.00  0.00     0.178 HD
BRANCH  23  25
HETATM   25  C12 UNL     1      24.838   1.341  52.862  1.00  0.00     0.101 C 
HETATM   26  C13 UNL     1      25.804   2.300  53.506  1.00  0.00     0.041 C 
HETATM   27  C14 UNL     1      27.200   2.183  52.998  1.00  0.00     0.109 C 
HETATM   28  N3  UNL     1      27.714   0.866  52.849  1.00  0.00    -0.211 NA
HETATM   29  C16 UNL     1      26.828  -0.016  52.158  1.00  0.00     0.109 C 
HETATM   30  C17 UNL     1      25.418  -0.030  52.654  1.00  0.00     0.041 C 
BRANCH  28  31
HETATM   31  S2  UNL     1      28.384   0.163  54.246  1.00  0.00     0.207 S 
HETATM   32  C15 UNL     1      29.669  -1.001  53.824  1.00  0.00     0.180 C 
HETATM   33  O2  UNL     1      28.956   1.155  55.218  1.00  0.00    -0.212 OA
HETATM   34  O3  UNL     1      27.273  -0.570  54.961  1.00  0.00    -0.212 OA
ENDBRANCH  28  31
ENDBRANCH  23  25
ENDBRANCH   4  23
TORSDOF 8
ENDMDL
MODEL 3
REMARK VINA RESULT:      -7.4      4.149      8.165
REMARK  8 active torsions:
REMARK  status: ('A' for Active; 'I' for Inactive)
REMARK    1  A    between atoms: O1_2  and  C2_3 
REMARK    2  A    between atoms: C7_10  and  C8_11 
REMARK    3  A    between atoms: C8_11  and  S1_12 
REMARK    4  A    between atoms: C8_11  and  C9_13 
REMARK    5  A    between atoms: C11_16  and  N2_17 
REMARK    6  A    between atoms: N2_17  and  C12_18 
REMARK    7  A    between atoms: N3_21  and  S2_22 
REMARK    8  A    between atoms: C18_29  and  N5_30 
ROOT
HETATM    1  C9  UNL     1      23.210   3.538  50.580  1.00  0.00     0.024 A 
HETATM    2  C10 UNL     1      24.139   3.451  49.568  1.00  0.00     0.148 A 
HETATM    3  N1  UNL     1      25.127   4.306  49.390  1.00  0.00    -0.075 NA
HETATM    4  C11 UNL     1      25.316   5.355  50.193  1.00  0.00     0.724 A 
HETATM    5  N4  UNL     1      24.433   5.489  51.204  1.00  0.00    -0.045 NA
HETATM    6  C18 UNL     1      23.426   4.616  51.385  1.00  0.00     0.149 A 
ENDROOT
BRANCH   1   7
HETATM    7  C8  UNL     1      22.108   2.604  50.797  1.00  0.00     0.121 C 
BRANCH   7   8
HETATM    8  C7  UNL     1      22.332   1.654  51.910  1.00  0.00     0.035 A 
HETATM    9  C2  UNL     1      23.491   0.982  52.245  1.00  0.00     0.079 A 
HETATM   10  C3  UNL     1      23.511   0.125  53.331  1.00  0.00     0.040 A 
HETATM   11  C4  UNL     1      22.380  -0.079  54.106  1.00  0.00     0.048 A 
HETATM   12  C5  UNL     1      21.217   0.598  53.767  1.00  0.00     0.155 A 
HETATM   13  F1  UNL     1      20.181   0.321  54.590  1.00  0.00    -0.203 F 
HETATM   14  C6  UNL     1      21.199   1.459  52.674  1.00  0.00     0.165 A 
HETATM   15  F2  UNL     1      19.961   2.009  52.529  1.00  0.00    -0.202 F 
BRANCH   9  16
HETATM   16  O1  UNL     1      24.567   1.253  51.410  1.00  0.00    -0.355 OA
HETATM   17  C1  UNL     1      25.863   1.188  51.999  1.00  0.00     0.210 C 
ENDBRANCH   9  16
ENDBRANCH   7   8
BRANCH   7  18
HETATM   18  S1  UNL     1      21.839   1.649  49.278  1.00  0.00    -0.167 SA
HETATM   19  H7  UNL     1      22.711   0.545  49.321  1.00  0.00     0.102 HD
ENDBRANCH   7  18
ENDBRANCH   1   7
BRANCH   6  20
HETATM   20  N5  UNL     1      22.601   4.912  52.488  1.00  0.00    -0.383 N 
HETATM   21  H22 UNL     1      21.987   5.110  53.295  1.00  0.00     0.157 HD
HETATM   22  H23 UNL     1      22.528   5.766  53.101  1.00  0.00     0.157 HD
ENDBRANCH   6  20
BRANCH   4  23
HETATM   23  N2  UNL     1      26.374   6.264  50.000  1.00  0.00    -0.218 N 
HETATM   24  H9  UNL     1      27.256   6.125  50.551  1.00  0.00     0.178 HD
BRANCH  23  25
HETATM   25  C12 UNL     1      26.317   7.386  49.083  1.00  0.00     0.101 C 
HETATM   26  C13 UNL     1      27.471   7.429  48.117  1.00  0.00     0.041 C 
HETATM   27  C14 UNL     1      28.671   8.138  48.642  1.00  0.00     0.109 C 
HETATM   28  N3  UNL     1      28.441   9.369  49.313  1.00  0.00    -0.211 NA
HETATM   29  C16 UNL     1      27.403   9.298  50.292  1.00  0.00     0.109 C 
HETATM   30  C17 UNL     1      26.124   8.676  49.831  1.00  0.00     0.041 C 
BRANCH  28  31
HETATM   31  S2  UNL     1      28.316  10.748  48.323  1.00  0.00     0.207 S 
HETATM   32  C15 UNL     1      29.899  11.177  47.620  1.00  0.00     0.180 C 
HETATM   33  O2  UNL     1      27.331  10.607  47.197  1.00  0.00    -0.212 OA
HETATM   34  O3  UNL     1      27.838  11.887  49.191  1.00  0.00    -0.212 OA
ENDBRANCH  28  31
ENDBRANCH  23  25
ENDBRANCH   4  23
TORSDOF 8
ENDMDL
MODEL 4
REMARK VINA RESULT:      -7.4      5.194      6.283
REMARK  8 active torsions:
REMARK  status: ('A' for Active; 'I' for Inactive)
REMARK    1  A    between atoms: O1_2  and  C2_3 
REMARK    2  A    between atoms: C7_10  and  C8_11 
REMARK    3  A    between atoms: C8_11  and  S1_12 
REMARK    4  A    between atoms: C8_11  and  C9_13 
REMARK    5  A    between atoms: C11_16  and  N2_17 
REMARK    6  A    between atoms: N2_17  and  C12_18 
REMARK    7  A    between atoms: N3_21  and  S2_22 
REMARK    8  A    between atoms: C18_29  and  N5_30 
ROOT
HETATM    1  C9  UNL     1      20.096   0.497  51.205  1.00  0.00     0.024 A 
HETATM    2  C10 UNL     1      20.750   0.375  52.411  1.00  0.00     0.148 A 
HETATM    3  N1  UNL     1      22.023   0.658  52.599  1.00  0.00    -0.075 NA
HETATM    4  C11 UNL     1      22.809   1.098  51.614  1.00  0.00     0.724 A 
HETATM    5  N4  UNL     1      22.221   1.236  50.409  1.00  0.00    -0.045 NA
HETATM    6  C18 UNL     1      20.921   0.947  50.218  1.00  0.00     0.149 A 
ENDROOT
BRANCH   1   7
HETATM    7  C8  UNL     1      18.688   0.189  50.972  1.00  0.00     0.121 C 
BRANCH   7   8
HETATM    8  C7  UNL     1      17.856   1.370  50.651  1.00  0.00     0.035 A 
HETATM    9  C2  UNL     1      17.948   2.649  51.163  1.00  0.00     0.079 A 
HETATM   10  C3  UNL     1      17.074   3.635  50.740  1.00  0.00     0.040 A 
HETATM   11  C4  UNL     1      16.094   3.368  49.797  1.00  0.00     0.048 A 
HETATM   12  C5  UNL     1      16.004   2.081  49.284  1.00  0.00     0.155 A 
HETATM   13  F1  UNL     1      15.013   1.939  48.375  1.00  0.00    -0.203 F 
HETATM   14  C6  UNL     1      16.884   1.092  49.712  1.00  0.00     0.165 A 
HETATM   15  F2  UNL     1      16.612  -0.084  49.080  1.00  0.00    -0.202 F 
BRANCH   9  16
HETATM   16  O1  UNL     1      18.960   2.815  52.099  1.00  0.00    -0.355 OA
HETATM   17  C1  UNL     1      19.880   3.877  51.861  1.00  0.00     0.210 C 
ENDBRANCH   9  16
ENDBRANCH   7   8
BRANCH   7  18
HETATM   18  S1  UNL     1      18.006  -0.602  52.457  1.00  0.00    -0.167 SA
HETATM   19  H7  UNL     1      17.830  -1.966  52.156  1.00  0.00     0.102 HD
ENDBRANCH   7  18
ENDBRANCH   1   7
BRANCH   6  20
HETATM   20  N5  UNL     1      20.476   1.149  48.896  1.00  0.00    -0.383 N 
HETATM   21  H22 UNL     1      20.169   1.293  47.921  1.00  0.00     0.157 HD
HETATM   22  H23 UNL     1      19.533   1.410  48.505  1.00  0.00     0.157 HD
ENDBRANCH   6  20
BRANCH   4  23
HETATM   23  N2  UNL     1      24.168   1.401  51.820  1.00  0.00    -0.218 N 
HETATM   24  H9  UNL     1      24.691   1.887  51.050  1.00  0.00     0.178 HD
BRANCH  23  25
HETATM   25  C12 UNL     1      24.892   1.083  53.036  1.00  0.00     0.101 C 
HETATM   26  C13 UNL     1      25.840   2.169  53.470  1.00  0.00     0.041 C 
HETATM   27  C14 UNL     1      27.190   2.078  52.846  1.00  0.00     0.109 C 
HETATM   28  N3  UNL     1      27.782   0.787  52.796  1.00  0.00    -0.211 NA
HETATM   29  C16 UNL     1      26.903  -0.223  52.298  1.00  0.00     0.109 C 
HETATM   30  C17 UNL     1      25.548  -0.265  52.928  1.00  0.00     0.041 C 
BRANCH  28  31
HETATM   31  S2  UNL     1      28.623   0.297  54.192  1.00  0.00     0.207 S 
HETATM   32  C15 UNL     1      29.993  -0.768  53.773  1.00  0.00     0.180 C 
HETATM   33  O2  UNL     1      29.153   1.434  55.019  1.00  0.00    -0.212 OA
HETATM   34  O3  UNL     1      27.653  -0.469  55.060  1.00  0.00    -0.212 OA
ENDBRANCH  28  31
ENDBRANCH  23  25
ENDBRANCH   4  23
TORSDOF 8
ENDMDL
MODEL 5
REMARK VINA RESULT:      -7.2      7.216      9.815
REMARK  8 active torsions:
REMARK  status: ('A' for Active; 'I' for Inactive)
REMARK    1  A    between atoms: O1_2  and  C2_3 
REMARK    2  A    between atoms: C7_10  and  C8_11 
REMARK    3  A    between atoms: C8_11  and  S1_12 
REMARK    4  A    between atoms: C8_11  and  C9_13 
REMARK    5  A    between atoms: C11_16  and  N2_17 
REMARK    6  A    between atoms: N2_17  and  C12_18 
REMARK    7  A    between atoms: N3_21  and  S2_22 
REMARK    8  A    between atoms: C18_29  and  N5_30 
ROOT
HETATM    1  C9  UNL     1      32.493   7.461  47.553  1.00  0.00     0.024 A 
HETATM    2  C10 UNL     1      32.236   7.518  48.904  1.00  0.00     0.148 A 
HETATM    3  N1  UNL     1      31.031   7.633  49.428  1.00  0.00    -0.075 NA
HETATM    4  C11 UNL     1      29.931   7.706  48.677  1.00  0.00     0.724 A 
HETATM    5  N4  UNL     1      30.125   7.655  47.343  1.00  0.00    -0.045 NA
HETATM    6  C18 UNL     1      31.354   7.537  46.810  1.00  0.00     0.149 A 
ENDROOT
BRANCH   1   7
HETATM    7  C8  UNL     1      33.818   7.334  46.950  1.00  0.00     0.121 C 
BRANCH   7   8
HETATM    8  C7  UNL     1      34.166   5.955  46.543  1.00  0.00     0.035 A 
HETATM    9  C2  UNL     1      34.287   5.440  45.267  1.00  0.00     0.079 A 
HETATM   10  C3  UNL     1      34.624   4.112  45.080  1.00  0.00     0.040 A 
HETATM   11  C4  UNL     1      34.850   3.269  46.156  1.00  0.00     0.048 A 
HETATM   12  C5  UNL     1      34.729   3.789  47.438  1.00  0.00     0.155 A 
HETATM   13  F1  UNL     1      34.971   2.877  48.407  1.00  0.00    -0.203 F 
HETATM   14  C6  UNL     1      34.389   5.125  47.624  1.00  0.00     0.165 A 
HETATM   15  F2  UNL     1      34.326   5.413  48.954  1.00  0.00    -0.202 F 
BRANCH   9  16
HETATM   16  O1  UNL     1      34.041   6.362  44.258  1.00  0.00    -0.355 OA
HETATM   17  C1  UNL     1      34.350   5.949  42.929  1.00  0.00     0.210 C 
ENDBRANCH   9  16
ENDBRANCH   7   8
BRANCH   7  18
HETATM   18  S1  UNL     1      35.062   7.909  48.139  1.00  0.00    -0.167 SA
HETATM   19  H7  UNL     1      34.571   9.098  48.711  1.00  0.00     0.102 HD
ENDBRANCH   7  18
ENDBRANCH   1   7
BRANCH   6  20
HETATM   20  N5  UNL     1      31.368   7.501  45.401  1.00  0.00    -0.383 N 
HETATM   21  H22 UNL     1      31.362   7.487  44.368  1.00  0.00     0.157 HD
HETATM   22  H23 UNL     1      31.974   6.975  44.718  1.00  0.00     0.157 HD
ENDBRANCH   6  20
BRANCH   4  23
HETATM   23  N2  UNL     1      28.646   7.827  49.240  1.00  0.00    -0.218 N 
HETATM   24  H9  UNL     1      28.569   8.114  50.246  1.00  0.00     0.178 HD
BRANCH  23  25
HETATM   25  C12 UNL     1      27.418   7.579  48.509  1.00  0.00     0.101 C 
HETATM   26  C13 UNL     1      26.228   8.307  49.075  1.00  0.00     0.041 C 
HETATM   27  C14 UNL     1      25.529   7.568  50.164  1.00  0.00     0.109 C 
HETATM   28  N3  UNL     1      25.303   6.182  49.948  1.00  0.00    -0.211 NA
HETATM   29  C16 UNL     1      26.462   5.480  49.496  1.00  0.00     0.109 C 
HETATM   30  C17 UNL     1      27.185   6.103  48.346  1.00  0.00     0.041 C 
BRANCH  28  31
HETATM   31  S2  UNL     1      23.906   5.782  49.063  1.00  0.00     0.207 S 
HETATM   32  C15 UNL     1      22.429   6.224  49.964  1.00  0.00     0.180 C 
HETATM   33  O2  UNL     1      23.834   6.425  47.708  1.00  0.00    -0.212 OA
HETATM   34  O3  UNL     1      23.920   4.288  48.846  1.00  0.00    -0.212 OA
ENDBRANCH  28  31
ENDBRANCH  23  25
ENDBRANCH   4  23
TORSDOF 8
ENDMDL
MODEL 6
REMARK VINA RESULT:      -7.2      2.095      3.030
REMARK  8 active torsions:
REMARK  status: ('A' for Active; 'I' for Inactive)
REMARK    1  A    between atoms: O1_2  and  C2_3 
REMARK    2  A    between atoms: C7_10  and  C8_11 
REMARK    3  A    between atoms: C8_11  and  S1_12 
REMARK    4  A    between atoms: C8_11  and  C9_13 
REMARK    5  A    between atoms: C11_16  and  N2_17 
REMARK    6  A    between atoms: N2_17  and  C12_18 
REMARK    7  A    between atoms: N3_21  and  S2_22 
REMARK    8  A    between atoms: C18_29  and  N5_30 
ROOT
HETATM    1  C9  UNL     1      23.449   5.040  50.239  1.00  0.00     0.024 A 
HETATM    2  C10 UNL     1      24.092   3.994  49.617  1.00  0.00     0.148 A 
HETATM    3  N1  UNL     1      24.268   2.803  50.155  1.00  0.00    -0.075 NA
HETATM    4  C11 UNL     1      23.827   2.501  51.378  1.00  0.00     0.724 A 
HETATM    5  N4  UNL     1      23.188   3.491  52.034  1.00  0.00    -0.045 NA
HETATM    6  C18 UNL     1      23.009   4.705  51.484  1.00  0.00     0.149 A 
ENDROOT
BRANCH   1   7
HETATM    7  C8  UNL     1      23.243   6.367  49.664  1.00  0.00     0.121 C 
BRANCH   7   8
HETATM    8  C7  UNL     1      21.944   6.531  48.975  1.00  0.00     0.035 A 
HETATM    9  C2  UNL     1      21.491   5.899  47.834  1.00  0.00     0.079 A 
HETATM   10  C3  UNL     1      20.234   6.184  47.330  1.00  0.00     0.040 A 
HETATM   11  C4  UNL     1      19.402   7.101  47.952  1.00  0.00     0.048 A 
HETATM   12  C5  UNL     1      19.860   7.735  49.099  1.00  0.00     0.155 A 
HETATM   13  F1  UNL     1      18.966   8.607  49.618  1.00  0.00    -0.203 F 
HETATM   14  C6  UNL     1      21.125   7.448  49.603  1.00  0.00     0.165 A 
HETATM   15  F2  UNL     1      21.362   8.182  50.726  1.00  0.00    -0.202 F 
BRANCH   9  16
HETATM   16  O1  UNL     1      22.396   4.999  47.286  1.00  0.00    -0.355 OA
HETATM   17  C1  UNL     1      21.852   3.967  46.467  1.00  0.00     0.210 C 
ENDBRANCH   9  16
ENDBRANCH   7   8
BRANCH   7  18
HETATM   18  S1  UNL     1      24.569   6.702  48.470  1.00  0.00    -0.167 SA
HETATM   19  H7  UNL     1      25.045   7.999  48.733  1.00  0.00     0.102 HD
ENDBRANCH   7  18
ENDBRANCH   1   7
BRANCH   6  20
HETATM   20  N5  UNL     1      22.323   5.615  52.313  1.00  0.00    -0.383 N 
HETATM   21  H22 UNL     1      21.822   6.297  52.905  1.00  0.00     0.157 HD
HETATM   22  H23 UNL     1      21.934   5.522  53.288  1.00  0.00     0.157 HD
ENDBRANCH   6  20
BRANCH   4  23
HETATM   23  N2  UNL     1      24.014   1.227  51.948  1.00  0.00    -0.218 N 
HETATM   24  H9  UNL     1      23.564   0.402  51.481  1.00  0.00     0.178 HD
BRANCH  23  25
HETATM   25  C12 UNL     1      24.796   0.986  53.146  1.00  0.00     0.101 C 
HETATM   26  C13 UNL     1      25.759   2.098  53.467  1.00  0.00     0.041 C 
HETATM   27  C14 UNL     1      27.078   1.970  52.786  1.00  0.00     0.109 C 
HETATM   28  N3  UNL     1      27.672   0.680  52.788  1.00  0.00    -0.211 NA
HETATM   29  C16 UNL     1      26.776  -0.361  52.395  1.00  0.00     0.109 C 
HETATM   30  C17 UNL     1      25.452  -0.365  53.090  1.00  0.00     0.041 C 
BRANCH  28  31
HETATM   31  S2  UNL     1      28.581   0.278  54.170  1.00  0.00     0.207 S 
HETATM   32  C15 UNL     1      29.907  -0.845  53.760  1.00  0.00     0.180 C 
HETATM   33  O2  UNL     1      29.175   1.462  54.878  1.00  0.00    -0.212 OA
HETATM   34  O3  UNL     1      27.647  -0.399  55.144  1.00  0.00    -0.212 OA
ENDBRANCH  28  31
ENDBRANCH  23  25
ENDBRANCH   4  23
TORSDOF 8
ENDMDL
MODEL 7
REMARK VINA RESULT:      -7.1      5.452      7.335
REMARK  8 active torsions:
REMARK  status: ('A' for Active; 'I' for Inactive)
REMARK    1  A    between atoms: O1_2  and  C2_3 
REMARK    2  A    between atoms: C7_10  and  C8_11 
REMARK    3  A    between atoms: C8_11  and  S1_12 
REMARK    4  A    between atoms: C8_11  and  C9_13 
REMARK    5  A    between atoms: C11_16  and  N2_17 
REMARK    6  A    between atoms: N2_17  and  C12_18 
REMARK    7  A    between atoms: N3_21  and  S2_22 
REMARK    8  A    between atoms: C18_29  and  N5_30 
ROOT
HETATM    1  C9  UNL     1      25.433   4.958  49.681  1.00  0.00     0.024 A 
HETATM    2  C10 UNL     1      25.732   6.138  49.039  1.00  0.00     0.148 A 
HETATM    3  N1  UNL     1      26.890   6.401  48.465  1.00  0.00    -0.075 NA
HETATM    4  C11 UNL     1      27.897   5.526  48.458  1.00  0.00     0.724 A 
HETATM    5  N4  UNL     1      27.659   4.350  49.075  1.00  0.00    -0.045 NA
HETATM    6  C18 UNL     1      26.477   4.083  49.659  1.00  0.00     0.149 A 
ENDROOT
BRANCH   1   7
HETATM    7  C8  UNL     1      24.159   4.644  50.323  1.00  0.00     0.121 C 
BRANCH   7   8
HETATM    8  C7  UNL     1      23.361   3.621  49.612  1.00  0.00     0.035 A 
HETATM    9  C2  UNL     1      22.968   2.375  50.060  1.00  0.00     0.079 A 
HETATM   10  C3  UNL     1      22.216   1.546  49.246  1.00  0.00     0.040 A 
HETATM   11  C4  UNL     1      21.838   1.941  47.973  1.00  0.00     0.048 A 
HETATM   12  C5  UNL     1      22.233   3.194  47.526  1.00  0.00     0.155 A 
HETATM   13  F1  UNL     1      21.808   3.470  46.272  1.00  0.00    -0.203 F 
HETATM   14  C6  UNL     1      22.990   4.025  48.346  1.00  0.00     0.165 A 
HETATM   15  F2  UNL     1      23.262   5.197  47.705  1.00  0.00    -0.202 F 
BRANCH   9  16
HETATM   16  O1  UNL     1      23.396   2.073  51.346  1.00  0.00    -0.355 OA
HETATM   17  C1  UNL     1      22.379   1.825  52.314  1.00  0.00     0.210 C 
ENDBRANCH   9  16
ENDBRANCH   7   8
BRANCH   7  18
HETATM   18  S1  UNL     1      23.170   6.161  50.438  1.00  0.00    -0.167 SA
HETATM   19  H7  UNL     1      21.966   5.824  51.084  1.00  0.00     0.102 HD
ENDBRANCH   7  18
ENDBRANCH   1   7
BRANCH   6  20
HETATM   20  N5  UNL     1      26.407   2.808  50.255  1.00  0.00    -0.383 N 
HETATM   21  H22 UNL     1      26.341   1.868  50.678  1.00  0.00     0.157 HD
HETATM   22  H23 UNL     1      26.910   2.391  51.082  1.00  0.00     0.157 HD
ENDBRANCH   6  20
BRANCH   4  23
HETATM   23  N2  UNL     1      29.131   5.810  47.843  1.00  0.00    -0.218 N 
HETATM   24  H9  UNL     1      29.122   6.238  46.885  1.00  0.00     0.178 HD
BRANCH  23  25
HETATM   25  C12 UNL     1      30.418   5.546  48.457  1.00  0.00     0.101 C 
HETATM   26  C13 UNL     1      31.043   6.764  49.085  1.00  0.00     0.041 C 
HETATM   27  C14 UNL     1      31.852   7.584  48.140  1.00  0.00     0.109 C 
HETATM   28  N3  UNL     1      32.726   6.876  47.272  1.00  0.00    -0.211 NA
HETATM   29  C16 UNL     1      32.102   5.774  46.610  1.00  0.00     0.109 C 
HETATM   30  C17 UNL     1      31.334   4.844  47.493  1.00  0.00     0.041 C 
BRANCH  28  31
HETATM   31  S2  UNL     1      34.253   6.479  47.910  1.00  0.00     0.207 S 
HETATM   32  C15 UNL     1      35.302   7.920  48.002  1.00  0.00     0.180 C 
HETATM   33  O2  UNL     1      34.203   5.852  49.274  1.00  0.00    -0.212 OA
HETATM   34  O3  UNL     1      34.884   5.470  46.980  1.00  0.00    -0.212 OA
ENDBRANCH  28  31
ENDBRANCH  23  25
ENDBRANCH   4  23
TORSDOF 8
ENDMDL
MODEL 8
REMARK VINA RESULT:      -7.1      5.416      7.394
REMARK  8 active torsions:
REMARK  status: ('A' for Active; 'I' for Inactive)
REMARK    1  A    between atoms: O1_2  and  C2_3 
REMARK    2  A    between atoms: C7_10  and  C8_11 
REMARK    3  A    between atoms: C8_11  and  S1_12 
REMARK    4  A    between atoms: C8_11  and  C9_13 
REMARK    5  A    between atoms: C11_16  and  N2_17 
REMARK    6  A    between atoms: N2_17  and  C12_18 
REMARK    7  A    between atoms: N3_21  and  S2_22 
REMARK    8  A    between atoms: C18_29  and  N5_30 
ROOT
HETATM    1  C9  UNL     1      25.458   4.781  49.858  1.00  0.00     0.024 A 
HETATM    2  C10 UNL     1      25.663   6.053  49.374  1.00  0.00     0.148 A 
HETATM    3  N1  UNL     1      26.749   6.439  48.733  1.00  0.00    -0.075 NA
HETATM    4  C11 UNL     1      27.767   5.611  48.493  1.00  0.00     0.724 A 
HETATM    5  N4  UNL     1      27.619   4.349  48.946  1.00  0.00    -0.045 NA
HETATM    6  C18 UNL     1      26.511   3.957  49.599  1.00  0.00     0.149 A 
ENDROOT
BRANCH   1   7
HETATM    7  C8  UNL     1      24.265   4.331  50.570  1.00  0.00     0.121 C 
BRANCH   7   8
HETATM    8  C7  UNL     1      23.349   3.504  49.753  1.00  0.00     0.035 A 
HETATM    9  C2  UNL     1      22.847   3.768  48.495  1.00  0.00     0.079 A 
HETATM   10  C3  UNL     1      21.994   2.868  47.880  1.00  0.00     0.040 A 
HETATM   11  C4  UNL     1      21.626   1.687  48.504  1.00  0.00     0.048 A 
HETATM   12  C5  UNL     1      22.133   1.424  49.770  1.00  0.00     0.155 A 
HETATM   13  F1  UNL     1      21.706   0.246  50.279  1.00  0.00    -0.203 F 
HETATM   14  C6  UNL     1      22.990   2.331  50.385  1.00  0.00     0.165 A 
HETATM   15  F2  UNL     1      23.360   1.870  51.613  1.00  0.00    -0.202 F 
BRANCH   9  16
HETATM   16  O1  UNL     1      23.273   4.975  47.954  1.00  0.00    -0.355 OA
HETATM   17  C1  UNL     1      22.258   5.848  47.465  1.00  0.00     0.210 C 
ENDBRANCH   9  16
ENDBRANCH   7   8
BRANCH   7  18
HETATM   18  S1  UNL     1      23.349   5.782  51.160  1.00  0.00    -0.167 SA
HETATM   19  H7  UNL     1      21.991   5.420  51.218  1.00  0.00     0.102 HD
ENDBRANCH   7  18
ENDBRANCH   1   7
BRANCH   6  20
HETATM   20  N5  UNL     1      26.530   2.606  50.001  1.00  0.00    -0.383 N 
HETATM   21  H22 UNL     1      26.560   1.620  50.307  1.00  0.00     0.157 HD
HETATM   22  H23 UNL     1      25.933   1.783  49.724  1.00  0.00     0.157 HD
ENDBRANCH   6  20
BRANCH   4  23
HETATM   23  N2  UNL     1      28.924   6.027  47.806  1.00  0.00    -0.218 N 
HETATM   24  H9  UNL     1      28.877   6.117  46.762  1.00  0.00     0.178 HD
BRANCH  23  25
HETATM   25  C12 UNL     1      30.181   6.339  48.458  1.00  0.00     0.101 C 
HETATM   26  C13 UNL     1      30.554   7.796  48.373  1.00  0.00     0.041 C 
HETATM   27  C14 UNL     1      31.301   8.157  47.136  1.00  0.00     0.109 C 
HETATM   28  N3  UNL     1      32.344   7.275  46.742  1.00  0.00    -0.211 NA
HETATM   29  C16 UNL     1      31.956   5.900  46.740  1.00  0.00     0.109 C 
HETATM   30  C17 UNL     1      31.271   5.422  47.980  1.00  0.00     0.041 C 
BRANCH  28  31
HETATM   31  S2  UNL     1      33.856   7.530  47.481  1.00  0.00     0.207 S 
HETATM   32  C15 UNL     1      34.774   8.807  46.637  1.00  0.00     0.180 C 
HETATM   33  O2  UNL     1      33.773   7.901  48.934  1.00  0.00    -0.212 OA
HETATM   34  O3  UNL     1      34.625   6.234  47.396  1.00  0.00    -0.212 OA
ENDBRANCH  28  31
ENDBRANCH  23  25
ENDBRANCH   4  23
TORSDOF 8
ENDMDL
MODEL 9
REMARK VINA RESULT:      -7.0      4.615      8.175
REMARK  8 active torsions:
REMARK  status: ('A' for Active; 'I' for Inactive)
REMARK    1  A    between atoms: O1_2  and  C2_3 
REMARK    2  A    between atoms: C7_10  and  C8_11 
REMARK    3  A    between atoms: C8_11  and  S1_12 
REMARK    4  A    between atoms: C8_11  and  C9_13 
REMARK    5  A    between atoms: C11_16  and  N2_17 
REMARK    6  A    between atoms: N2_17  and  C12_18 
REMARK    7  A    between atoms: N3_21  and  S2_22 
REMARK    8  A    between atoms: C18_29  and  N5_30 
ROOT
HETATM    1  C9  UNL     1      22.943   4.169  50.302  1.00  0.00     0.024 A 
HETATM    2  C10 UNL     1      24.061   4.110  49.500  1.00  0.00     0.148 A 
HETATM    3  N1  UNL     1      25.051   4.981  49.538  1.00  0.00    -0.075 NA
HETATM    4  C11 UNL     1      25.055   6.019  50.376  1.00  0.00     0.724 A 
HETATM    5  N4  UNL     1      23.982   6.126  51.186  1.00  0.00    -0.045 NA
HETATM    6  C18 UNL     1      22.973   5.237  51.147  1.00  0.00     0.149 A 
ENDROOT
BRANCH   1   7
HETATM    7  C8  UNL     1      21.836   3.217  50.277  1.00  0.00     0.121 C 
BRANCH   7   8
HETATM    8  C7  UNL     1      21.763   2.345  51.470  1.00  0.00     0.035 A 
HETATM    9  C2  UNL     1      20.772   2.284  52.430  1.00  0.00     0.079 A 
HETATM   10  C3  UNL     1      20.876   1.396  53.486  1.00  0.00     0.040 A 
HETATM   11  C4  UNL     1      21.966   0.550  53.607  1.00  0.00     0.048 A 
HETATM   12  C5  UNL     1      22.961   0.612  52.640  1.00  0.00     0.155 A 
HETATM   13  F1  UNL     1      23.973  -0.257  52.861  1.00  0.00    -0.203 F 
HETATM   14  C6  UNL     1      22.854   1.507  51.580  1.00  0.00     0.165 A 
HETATM   15  F2  UNL     1      23.937   1.396  50.760  1.00  0.00    -0.202 F 
BRANCH   9  16
HETATM   16  O1  UNL     1      19.723   3.170  52.221  1.00  0.00    -0.355 OA
HETATM   17  C1  UNL     1      18.528   2.624  51.670  1.00  0.00     0.210 C 
ENDBRANCH   9  16
ENDBRANCH   7   8
BRANCH   7  18
HETATM   18  S1  UNL     1      21.999   2.163  48.809  1.00  0.00    -0.167 SA
HETATM   19  H7  UNL     1      23.218   2.498  48.191  1.00  0.00     0.102 HD
ENDBRANCH   7  18
ENDBRANCH   1   7
BRANCH   6  20
HETATM   20  N5  UNL     1      21.935   5.505  52.062  1.00  0.00    -0.383 N 
HETATM   21  H22 UNL     1      21.182   5.687  52.744  1.00  0.00     0.157 HD
HETATM   22  H23 UNL     1      21.146   6.203  52.043  1.00  0.00     0.157 HD
ENDBRANCH   6  20
BRANCH   4  23
HETATM   23  N2  UNL     1      26.114   6.946  50.415  1.00  0.00    -0.218 N 
HETATM   24  H9  UNL     1      27.069   6.598  50.676  1.00  0.00     0.178 HD
BRANCH  23  25
HETATM   25  C12 UNL     1      25.964   8.357  50.115  1.00  0.00     0.101 C 
HETATM   26  C13 UNL     1      25.411   8.621  48.739  1.00  0.00     0.041 C 
HETATM   27  C14 UNL     1      26.448   8.679  47.672  1.00  0.00     0.109 C 
HETATM   28  N3  UNL     1      27.625   9.418  47.967  1.00  0.00    -0.211 NA
HETATM   29  C16 UNL     1      28.195   9.098  49.238  1.00  0.00     0.109 C 
HETATM   30  C17 UNL     1      27.242   9.098  50.389  1.00  0.00     0.041 C 
BRANCH  28  31
HETATM   31  S2  UNL     1      27.543  11.095  47.689  1.00  0.00     0.207 S 
HETATM   32  C15 UNL     1      27.043  11.442  46.011  1.00  0.00     0.180 C 
HETATM   33  O2  UNL     1      26.609  11.825  48.612  1.00  0.00    -0.212 OA
HETATM   34  O3  UNL     1      28.924  11.660  47.917  1.00  0.00    -0.212 OA
ENDBRANCH  28  31
ENDBRANCH  23  25
ENDBRANCH   4  23
TORSDOF 8
ENDMDL
