MODEL 1
REMARK VINA RESULT:      -8.1      0.000      0.000
REMARK  6 active torsions:
REMARK  status: ('A' for Active; 'I' for Inactive)
REMARK    1  A    between atoms: C6_6  and  O1_7 
REMARK    2  A    between atoms: O1_7  and  C7_8 
REMARK    3  A    between atoms: C10_15  and  N2_16 
REMARK       I    between atoms: N2_16  and  C11_17 
REMARK    4  A    between atoms: C11_17  and  C12_19 
REMARK    5  A    between atoms: C13_20  and  C14_21 
REMARK    6  A    between atoms: C14_21  and  N3_22 
ROOT
HETATM    1  C1  UNL     1      22.290   0.975  53.093  1.00  0.00     0.044 C 
HETATM    2  C2  UNL     1      23.496   1.526  52.366  1.00  0.00    -0.068 A 
HETATM    3  C3  UNL     1      24.586   0.823  52.603  1.00  0.00    -0.005 A 
HETATM    4  C4  UNL     1      24.665  -0.287  53.408  1.00  0.00     0.017 A 
HETATM    5  C5  UNL     1      25.928  -0.872  53.513  1.00  0.00     0.038 A 
HETATM    6  C6  UNL     1      27.017  -0.342  52.833  1.00  0.00     0.080 A 
HETATM    7  C8  UNL     1      26.893   0.793  52.022  1.00  0.00     0.069 A 
HETATM    8  C9  UNL     1      25.630   1.387  51.910  1.00  0.00     0.066 A 
HETATM    9  N1  UNL     1      25.630   2.397  51.159  1.00  0.00    -0.263 NA
HETATM   10  C10 UNL     1      24.497   3.189  50.867  1.00  0.00     0.212 A 
HETATM   11  C17 UNL     1      23.254   2.718  51.538  1.00  0.00     0.083 A 
ENDROOT
BRANCH  10  12
HETATM   12  N2  UNL     1      24.732   4.615  51.164  1.00  0.00    -0.334 N 
HETATM   13  C11 UNL     1      25.206   5.426  50.103  1.00  0.00     0.242 C 
HETATM   14  O2  UNL     1      25.463   5.105  48.918  1.00  0.00    -0.269 OA
HETATM   15  H8  UNL     1      24.544   4.968  52.123  1.00  0.00     0.164 HD
BRANCH  13  16
HETATM   16  C12 UNL     1      25.458   6.841  50.328  1.00  0.00     0.072 C 
HETATM   17  C13 UNL     1      26.275   7.807  49.978  1.00  0.00     0.008 C 
BRANCH  17  18
HETATM   18  C14 UNL     1      26.696   9.220  50.069  1.00  0.00     0.299 C 
BRANCH  18  19
HETATM   19  N3  UNL     1      28.043   9.396  49.612  1.00  0.00     0.083 N 
HETATM   20  C15 UNL     1      28.406   8.287  48.769  1.00  0.00     0.309 C 
HETATM   21  C16 UNL     1      28.324  10.668  49.029  1.00  0.00     0.309 C 
ENDBRANCH  18  19
ENDBRANCH  17  18
ENDBRANCH  13  16
ENDBRANCH  10  12
BRANCH   6  22
HETATM   22  O1  UNL     1      28.196  -1.017  53.027  1.00  0.00    -0.255 OA
BRANCH  22  23
HETATM   23  C7  UNL     1      29.233  -0.511  53.835  1.00  0.00     0.530 C 
HETATM   24  F1  UNL     1      30.185  -1.519  53.998  1.00  0.00    -0.144 F 
HETATM   25  F2  UNL     1      29.833   0.596  53.244  1.00  0.00    -0.144 F 
HETATM   26  F3  UNL     1      28.741  -0.230  55.093  1.00  0.00    -0.144 F 
ENDBRANCH  22  23
ENDBRANCH   6  22
TORSDOF 6
ENDMDL
MODEL 2
REMARK VINA RESULT:      -7.5      2.019      2.462
REMARK  6 active torsions:
REMARK  status: ('A' for Active; 'I' for Inactive)
REMARK    1  A    between atoms: C6_6  and  O1_7 
REMARK    2  A    between atoms: O1_7  and  C7_8 
REMARK    3  A    between atoms: C10_15  and  N2_16 
REMARK       I    between atoms: N2_16  and  C11_17 
REMARK    4  A    between atoms: C11_17  and  C12_19 
REMARK    5  A    between atoms: C13_20  and  C14_21 
REMARK    6  A    between atoms: C14_21  and  N3_22 
ROOT
HETATM    1  C1  UNL     1      22.818   2.358  50.648  1.00  0.00     0.044 C 
HETATM    2  C2  UNL     1      24.287   2.695  50.527  1.00  0.00    -0.068 A 
HETATM    3  C3  UNL     1      24.982   2.273  51.565  1.00  0.00    -0.005 A 
HETATM    4  C4  UNL     1      24.476   1.602  52.652  1.00  0.00     0.017 A 
HETATM    5  C5  UNL     1      25.402   1.253  53.635  1.00  0.00     0.038 A 
HETATM    6  C6  UNL     1      26.745   1.576  53.496  1.00  0.00     0.080 A 
HETATM    7  C8  UNL     1      27.221   2.262  52.371  1.00  0.00     0.069 A 
HETATM    8  C9  UNL     1      26.300   2.617  51.378  1.00  0.00     0.066 A 
HETATM    9  N1  UNL     1      26.831   3.227  50.414  1.00  0.00    -0.263 NA
HETATM   10  C10 UNL     1      26.141   3.703  49.277  1.00  0.00     0.212 A 
HETATM   11  C17 UNL     1      24.680   3.412  49.305  1.00  0.00     0.083 A 
ENDROOT
BRANCH  10  12
HETATM   12  N2  UNL     1      26.373   5.142  49.054  1.00  0.00    -0.334 N 
HETATM   13  C11 UNL     1      27.651   5.523  48.574  1.00  0.00     0.242 C 
HETATM   14  O2  UNL     1      28.640   4.801  48.303  1.00  0.00    -0.269 OA
HETATM   15  H8  UNL     1      25.606   5.814  49.252  1.00  0.00     0.164 HD
BRANCH  13  16
HETATM   16  C12 UNL     1      27.946   6.926  48.332  1.00  0.00     0.072 C 
HETATM   17  C13 UNL     1      28.791   7.703  47.695  1.00  0.00     0.008 C 
BRANCH  17  18
HETATM   18  C14 UNL     1      29.256   9.057  47.328  1.00  0.00     0.299 C 
BRANCH  18  19
HETATM   19  N3  UNL     1      30.371   9.464  48.133  1.00  0.00     0.083 N 
HETATM   20  C15 UNL     1      31.567   9.440  47.332  1.00  0.00     0.309 C 
HETATM   21  C16 UNL     1      30.189  10.687  48.845  1.00  0.00     0.309 C 
ENDBRANCH  18  19
ENDBRANCH  17  18
ENDBRANCH  13  16
ENDBRANCH  10  12
BRANCH   6  22
HETATM   22  O1  UNL     1      27.543   1.173  54.538  1.00  0.00    -0.255 OA
BRANCH  22  23
HETATM   23  C7  UNL     1      28.610   0.269  54.367  1.00  0.00     0.530 C 
HETATM   24  F1  UNL     1      28.238  -0.660  53.396  1.00  0.00    -0.144 F 
HETATM   25  F2  UNL     1      29.762   0.930  53.953  1.00  0.00    -0.144 F 
HETATM   26  F3  UNL     1      28.804  -0.440  55.535  1.00  0.00    -0.144 F 
ENDBRANCH  22  23
ENDBRANCH   6  22
TORSDOF 6
ENDMDL
MODEL 3
REMARK VINA RESULT:      -7.4      4.233      7.998
REMARK  6 active torsions:
REMARK  status: ('A' for Active; 'I' for Inactive)
REMARK    1  A    between atoms: C6_6  and  O1_7 
REMARK    2  A    between atoms: O1_7  and  C7_8 
REMARK    3  A    between atoms: C10_15  and  N2_16 
REMARK       I    between atoms: N2_16  and  C11_17 
REMARK    4  A    between atoms: C11_17  and  C12_19 
REMARK    5  A    between atoms: C13_20  and  C14_21 
REMARK    6  A    between atoms: C14_21  and  N3_22 
ROOT
HETATM    1  C1  UNL     1      24.433   3.272  51.266  1.00  0.00     0.044 C 
HETATM    2  C2  UNL     1      24.216   2.046  52.123  1.00  0.00    -0.068 A 
HETATM    3  C3  UNL     1      25.316   1.332  52.260  1.00  0.00    -0.005 A 
HETATM    4  C4  UNL     1      26.539   1.627  51.708  1.00  0.00     0.017 A 
HETATM    5  C5  UNL     1      27.565   0.724  51.988  1.00  0.00     0.038 A 
HETATM    6  C6  UNL     1      27.335  -0.394  52.779  1.00  0.00     0.080 A 
HETATM    7  C8  UNL     1      26.072  -0.659  53.323  1.00  0.00     0.069 A 
HETATM    8  C9  UNL     1      25.035   0.241  53.048  1.00  0.00     0.066 A 
HETATM    9  N1  UNL     1      23.945  -0.090  53.583  1.00  0.00    -0.263 NA
HETATM   10  C10 UNL     1      22.736   0.632  53.473  1.00  0.00     0.212 A 
HETATM   11  C17 UNL     1      22.854   1.865  52.647  1.00  0.00     0.083 A 
ENDROOT
BRANCH  10  12
HETATM   12  N2  UNL     1      21.632  -0.214  52.979  1.00  0.00    -0.334 N 
HETATM   13  C11 UNL     1      20.460  -0.274  53.773  1.00  0.00     0.242 C 
HETATM   14  O2  UNL     1      20.212   0.298  54.860  1.00  0.00    -0.269 OA
HETATM   15  H8  UNL     1      21.752  -0.726  52.083  1.00  0.00     0.164 HD
BRANCH  13  16
HETATM   16  C12 UNL     1      19.335  -1.089  53.343  1.00  0.00     0.072 C 
HETATM   17  C13 UNL     1      18.042  -1.022  53.124  1.00  0.00     0.008 C 
BRANCH  17  18
HETATM   18  C14 UNL     1      16.780  -1.671  52.715  1.00  0.00     0.299 C 
BRANCH  18  19
HETATM   19  N3  UNL     1      15.934  -0.765  51.994  1.00  0.00     0.083 N 
HETATM   20  C15 UNL     1      15.197  -1.496  50.997  1.00  0.00     0.309 C 
HETATM   21  C16 UNL     1      15.113   0.073  52.807  1.00  0.00     0.309 C 
ENDBRANCH  18  19
ENDBRANCH  17  18
ENDBRANCH  13  16
ENDBRANCH  10  12
BRANCH   6  22
HETATM   22  O1  UNL     1      28.432  -1.195  52.972  1.00  0.00    -0.255 OA
BRANCH  22  23
HETATM   23  C7  UNL     1      29.487  -0.839  53.836  1.00  0.00     0.530 C 
HETATM   24  F1  UNL     1      30.311   0.062  53.161  1.00  0.00    -0.144 F 
HETATM   25  F2  UNL     1      29.003  -0.240  54.994  1.00  0.00    -0.144 F 
HETATM   26  F3  UNL     1      30.258  -1.951  54.103  1.00  0.00    -0.144 F 
ENDBRANCH  22  23
ENDBRANCH   6  22
TORSDOF 6
ENDMDL
MODEL 4
REMARK VINA RESULT:      -7.3      1.529      1.932
REMARK  6 active torsions:
REMARK  status: ('A' for Active; 'I' for Inactive)
REMARK    1  A    between atoms: C6_6  and  O1_7 
REMARK    2  A    between atoms: O1_7  and  C7_8 
REMARK    3  A    between atoms: C10_15  and  N2_16 
REMARK       I    between atoms: N2_16  and  C11_17 
REMARK    4  A    between atoms: C11_17  and  C12_19 
REMARK    5  A    between atoms: C13_20  and  C14_21 
REMARK    6  A    between atoms: C14_21  and  N3_22 
ROOT
HETATM    1  C1  UNL     1      22.272  -0.680  53.826  1.00  0.00     0.044 C 
HETATM    2  C2  UNL     1      23.289   0.156  53.082  1.00  0.00    -0.068 A 
HETATM    3  C3  UNL     1      24.511  -0.016  53.546  1.00  0.00    -0.005 A 
HETATM    4  C4  UNL     1      24.868  -0.847  54.581  1.00  0.00     0.017 A 
HETATM    5  C5  UNL     1      26.226  -0.869  54.901  1.00  0.00     0.038 A 
HETATM    6  C6  UNL     1      27.136  -0.089  54.200  1.00  0.00     0.080 A 
HETATM    7  C8  UNL     1      26.730   0.746  53.151  1.00  0.00     0.069 A 
HETATM    8  C9  UNL     1      25.370   0.775  52.821  1.00  0.00     0.066 A 
HETATM    9  N1  UNL     1      25.114   1.555  51.868  1.00  0.00    -0.263 NA
HETATM   10  C10 UNL     1      23.829   1.782  51.328  1.00  0.00     0.212 A 
HETATM   11  C17 UNL     1      22.757   0.993  51.997  1.00  0.00     0.083 A 
ENDROOT
BRANCH  10  12
HETATM   12  N2  UNL     1      23.481   3.215  51.317  1.00  0.00    -0.334 N 
HETATM   13  C11 UNL     1      24.073   4.016  50.309  1.00  0.00     0.242 C 
HETATM   14  O2  UNL     1      24.868   3.680  49.399  1.00  0.00    -0.269 OA
HETATM   15  H8  UNL     1      22.826   3.581  52.037  1.00  0.00     0.164 HD
BRANCH  13  16
HETATM   16  C12 UNL     1      23.772   5.437  50.241  1.00  0.00     0.072 C 
HETATM   17  C13 UNL     1      24.257   6.607  50.587  1.00  0.00     0.008 C 
BRANCH  17  18
HETATM   18  C14 UNL     1      24.139   8.079  50.623  1.00  0.00     0.299 C 
BRANCH  18  19
HETATM   19  N3  UNL     1      25.133   8.706  49.802  1.00  0.00     0.083 N 
HETATM   20  C15 UNL     1      26.418   8.120  50.082  1.00  0.00     0.309 C 
HETATM   21  C16 UNL     1      24.823   8.757  48.409  1.00  0.00     0.309 C 
ENDBRANCH  18  19
ENDBRANCH  17  18
ENDBRANCH  13  16
ENDBRANCH  10  12
BRANCH   6  22
HETATM   22  O1  UNL     1      28.437  -0.208  54.621  1.00  0.00    -0.255 OA
BRANCH  22  23
HETATM   23  C7  UNL     1      29.449  -0.750  53.805  1.00  0.00     0.530 C 
HETATM   24  F1  UNL     1      28.855  -1.650  52.921  1.00  0.00    -0.144 F 
HETATM   25  F2  UNL     1      30.095   0.247  53.082  1.00  0.00    -0.144 F 
HETATM   26  F3  UNL     1      30.323  -1.483  54.582  1.00  0.00    -0.144 F 
ENDBRANCH  22  23
ENDBRANCH   6  22
TORSDOF 6
ENDMDL
MODEL 5
REMARK VINA RESULT:      -7.2      2.390      3.700
REMARK  6 active torsions:
REMARK  status: ('A' for Active; 'I' for Inactive)
REMARK    1  A    between atoms: C6_6  and  O1_7 
REMARK    2  A    between atoms: O1_7  and  C7_8 
REMARK    3  A    between atoms: C10_15  and  N2_16 
REMARK       I    between atoms: N2_16  and  C11_17 
REMARK    4  A    between atoms: C11_17  and  C12_19 
REMARK    5  A    between atoms: C13_20  and  C14_21 
REMARK    6  A    between atoms: C14_21  and  N3_22 
ROOT
HETATM    1  C1  UNL     1      23.315   4.853  49.563  1.00  0.00     0.044 C 
HETATM    2  C2  UNL     1      24.785   4.503  49.624  1.00  0.00    -0.068 A 
HETATM    3  C3  UNL     1      25.045   3.600  50.548  1.00  0.00    -0.005 A 
HETATM    4  C4  UNL     1      24.122   3.015  51.382  1.00  0.00     0.017 A 
HETATM    5  C5  UNL     1      24.628   2.081  52.287  1.00  0.00     0.038 A 
HETATM    6  C6  UNL     1      25.983   1.781  52.319  1.00  0.00     0.080 A 
HETATM    7  C8  UNL     1      26.891   2.400  51.451  1.00  0.00     0.069 A 
HETATM    8  C9  UNL     1      26.395   3.339  50.539  1.00  0.00     0.066 A 
HETATM    9  N1  UNL     1      27.292   3.833  49.808  1.00  0.00    -0.263 NA
HETATM   10  C10 UNL     1      27.077   4.802  48.803  1.00  0.00     0.212 A 
HETATM   11  C17 UNL     1      25.650   5.208  48.666  1.00  0.00     0.083 A 
ENDROOT
BRANCH  10  12
HETATM   12  N2  UNL     1      27.932   5.989  48.990  1.00  0.00    -0.334 N 
HETATM   13  C11 UNL     1      29.255   5.917  48.489  1.00  0.00     0.242 C 
HETATM   14  O2  UNL     1      29.824   4.971  47.894  1.00  0.00    -0.269 OA
HETATM   15  H8  UNL     1      27.541   6.822  49.475  1.00  0.00     0.164 HD
BRANCH  13  16
HETATM   16  C12 UNL     1      30.151   7.053  48.641  1.00  0.00     0.072 C 
HETATM   17  C13 UNL     1      30.146   8.335  48.923  1.00  0.00     0.008 C 
BRANCH  17  18
HETATM   18  C14 UNL     1      30.877   9.603  49.122  1.00  0.00     0.299 C 
BRANCH  18  19
HETATM   19  N3  UNL     1      30.137  10.721  48.613  1.00  0.00     0.083 N 
HETATM   20  C15 UNL     1      30.760  11.942  49.052  1.00  0.00     0.309 C 
HETATM   21  C16 UNL     1      29.878  10.687  47.210  1.00  0.00     0.309 C 
ENDBRANCH  18  19
ENDBRANCH  17  18
ENDBRANCH  13  16
ENDBRANCH  10  12
BRANCH   6  22
HETATM   22  O1  UNL     1      26.341   0.846  53.257  1.00  0.00    -0.255 OA
BRANCH  22  23
HETATM   23  C7  UNL     1      26.661  -0.483  52.917  1.00  0.00     0.530 C 
HETATM   24  F1  UNL     1      26.653  -0.587  51.526  1.00  0.00    -0.144 F 
HETATM   25  F2  UNL     1      27.919  -0.832  53.397  1.00  0.00    -0.144 F 
HETATM   26  F3  UNL     1      25.672  -1.328  53.379  1.00  0.00    -0.144 F 
ENDBRANCH  22  23
ENDBRANCH   6  22
TORSDOF 6
ENDMDL
MODEL 6
REMARK VINA RESULT:      -7.2      4.700      6.807
REMARK  6 active torsions:
REMARK  status: ('A' for Active; 'I' for Inactive)
REMARK    1  A    between atoms: C6_6  and  O1_7 
REMARK    2  A    between atoms: O1_7  and  C7_8 
REMARK    3  A    between atoms: C10_15  and  N2_16 
REMARK       I    between atoms: N2_16  and  C11_17 
REMARK    4  A    between atoms: C11_17  and  C12_19 
REMARK    5  A    between atoms: C13_20  and  C14_21 
REMARK    6  A    between atoms: C14_21  and  N3_22 
ROOT
HETATM    1  C1  UNL     1      22.279  -1.807  53.835  1.00  0.00     0.044 C 
HETATM    2  C2  UNL     1      22.621  -0.459  53.240  1.00  0.00    -0.068 A 
HETATM    3  C3  UNL     1      23.807  -0.031  53.626  1.00  0.00    -0.005 A 
HETATM    4  C4  UNL     1      24.667  -0.696  54.466  1.00  0.00     0.017 A 
HETATM    5  C5  UNL     1      25.873  -0.048  54.736  1.00  0.00     0.038 A 
HETATM    6  C6  UNL     1      26.158   1.190  54.176  1.00  0.00     0.080 A 
HETATM    7  C8  UNL     1      25.254   1.834  53.324  1.00  0.00     0.069 A 
HETATM    8  C9  UNL     1      24.040   1.194  53.046  1.00  0.00     0.066 A 
HETATM    9  N1  UNL     1      23.303   1.857  52.271  1.00  0.00    -0.263 NA
HETATM   10  C10 UNL     1      22.025   1.452  51.824  1.00  0.00     0.212 A 
HETATM   11  C17 UNL     1      21.602   0.127  52.356  1.00  0.00     0.083 A 
ENDROOT
BRANCH  10  12
HETATM   12  N2  UNL     1      20.995   2.471  52.105  1.00  0.00    -0.334 N 
HETATM   13  C11 UNL     1      19.870   2.505  51.245  1.00  0.00     0.242 C 
HETATM   14  O2  UNL     1      19.610   1.780  50.255  1.00  0.00    -0.269 OA
HETATM   15  H8  UNL     1      21.130   3.115  52.909  1.00  0.00     0.164 HD
BRANCH  13  16
HETATM   16  C12 UNL     1      18.818   3.484  51.467  1.00  0.00     0.072 C 
HETATM   17  C13 UNL     1      17.510   3.609  51.451  1.00  0.00     0.008 C 
BRANCH  17  18
HETATM   18  C14 UNL     1      16.304   4.443  51.628  1.00  0.00     0.299 C 
BRANCH  18  19
HETATM   19  N3  UNL     1      15.184   3.660  52.062  1.00  0.00     0.083 N 
HETATM   20  C15 UNL     1      15.518   2.263  51.969  1.00  0.00     0.309 C 
HETATM   21  C16 UNL     1      14.639   4.031  53.328  1.00  0.00     0.309 C 
ENDBRANCH  18  19
ENDBRANCH  17  18
ENDBRANCH  13  16
ENDBRANCH  10  12
BRANCH   6  22
HETATM   22  O1  UNL     1      27.379   1.710  54.527  1.00  0.00    -0.255 OA
BRANCH  22  23
HETATM   23  C7  UNL     1      28.497   1.662  53.672  1.00  0.00     0.530 C 
HETATM   24  F1  UNL     1      29.567   1.125  54.389  1.00  0.00    -0.144 F 
HETATM   25  F2  UNL     1      28.242   0.864  52.562  1.00  0.00    -0.144 F 
HETATM   26  F3  UNL     1      28.864   2.945  53.321  1.00  0.00    -0.144 F 
ENDBRANCH  22  23
ENDBRANCH   6  22
TORSDOF 6
ENDMDL
MODEL 7
REMARK VINA RESULT:      -7.1      2.980      3.403
REMARK  6 active torsions:
REMARK  status: ('A' for Active; 'I' for Inactive)
REMARK    1  A    between atoms: C6_6  and  O1_7 
REMARK    2  A    between atoms: O1_7  and  C7_8 
REMARK    3  A    between atoms: C10_15  and  N2_16 
REMARK       I    between atoms: N2_16  and  C11_17 
REMARK    4  A    between atoms: C11_17  and  C12_19 
REMARK    5  A    between atoms: C13_20  and  C14_21 
REMARK    6  A    between atoms: C14_21  and  N3_22 
ROOT
HETATM    1  C1  UNL     1      21.298  -1.101  54.122  1.00  0.00     0.044 C 
HETATM    2  C2  UNL     1      22.244  -0.243  53.312  1.00  0.00    -0.068 A 
HETATM    3  C3  UNL     1      23.484  -0.311  53.756  1.00  0.00    -0.005 A 
HETATM    4  C4  UNL     1      23.914  -1.061  54.825  1.00  0.00     0.017 A 
HETATM    5  C5  UNL     1      25.276  -0.979  55.115  1.00  0.00     0.038 A 
HETATM    6  C6  UNL     1      26.120  -0.181  54.353  1.00  0.00     0.080 A 
HETATM    7  C8  UNL     1      25.641   0.569  53.272  1.00  0.00     0.069 A 
HETATM    8  C9  UNL     1      24.275   0.493  52.972  1.00  0.00     0.066 A 
HETATM    9  N1  UNL     1      23.951   1.203  51.984  1.00  0.00    -0.263 NA
HETATM   10  C10 UNL     1      22.643   1.318  51.463  1.00  0.00     0.212 A 
HETATM   11  C17 UNL     1      21.638   0.499  52.197  1.00  0.00     0.083 A 
ENDROOT
BRANCH  10  12
HETATM   12  N2  UNL     1      22.203   2.723  51.385  1.00  0.00    -0.334 N 
HETATM   13  C11 UNL     1      22.758   3.517  50.351  1.00  0.00     0.242 C 
HETATM   14  O2  UNL     1      23.589   3.197  49.469  1.00  0.00    -0.269 OA
HETATM   15  H8  UNL     1      21.513   3.075  52.079  1.00  0.00     0.164 HD
BRANCH  13  16
HETATM   16  C12 UNL     1      22.366   4.912  50.218  1.00  0.00     0.072 C 
HETATM   17  C13 UNL     1      22.707   6.117  50.613  1.00  0.00     0.008 C 
BRANCH  17  18
HETATM   18  C14 UNL     1      22.476   7.576  50.609  1.00  0.00     0.299 C 
BRANCH  18  19
HETATM   19  N3  UNL     1      21.748   7.988  49.444  1.00  0.00     0.083 N 
HETATM   20  C15 UNL     1      20.339   7.970  49.735  1.00  0.00     0.309 C 
HETATM   21  C16 UNL     1      22.192   9.210  48.854  1.00  0.00     0.309 C 
ENDBRANCH  18  19
ENDBRANCH  17  18
ENDBRANCH  13  16
ENDBRANCH  10  12
BRANCH   6  22
HETATM   22  O1  UNL     1      27.434  -0.194  54.750  1.00  0.00    -0.255 OA
BRANCH  22  23
HETATM   23  C7  UNL     1      28.492  -0.444  53.855  1.00  0.00     0.530 C 
HETATM   24  F1  UNL     1      28.125  -1.515  53.040  1.00  0.00    -0.144 F 
HETATM   25  F2  UNL     1      28.749   0.670  53.062  1.00  0.00    -0.144 F 
HETATM   26  F3  UNL     1      29.606  -0.852  54.561  1.00  0.00    -0.144 F 
ENDBRANCH  22  23
ENDBRANCH   6  22
TORSDOF 6
ENDMDL
MODEL 8
REMARK VINA RESULT:      -7.0      3.466      4.298
REMARK  6 active torsions:
REMARK  status: ('A' for Active; 'I' for Inactive)
REMARK    1  A    between atoms: C6_6  and  O1_7 
REMARK    2  A    between atoms: O1_7  and  C7_8 
REMARK    3  A    between atoms: C10_15  and  N2_16 
REMARK       I    between atoms: N2_16  and  C11_17 
REMARK    4  A    between atoms: C11_17  and  C12_19 
REMARK    5  A    between atoms: C13_20  and  C14_21 
REMARK    6  A    between atoms: C14_21  and  N3_22 
ROOT
HETATM    1  C1  UNL     1      21.178   2.370  48.276  1.00  0.00     0.044 C 
HETATM    2  C2  UNL     1      22.378   2.475  49.192  1.00  0.00    -0.068 A 
HETATM    3  C3  UNL     1      22.305   1.636  50.207  1.00  0.00    -0.005 A 
HETATM    4  C4  UNL     1      21.281   0.751  50.446  1.00  0.00     0.017 A 
HETATM    5  C5  UNL     1      21.418  -0.042  51.585  1.00  0.00     0.038 A 
HETATM    6  C6  UNL     1      22.530   0.077  52.407  1.00  0.00     0.080 A 
HETATM    7  C8  UNL     1      23.552   0.993  52.128  1.00  0.00     0.069 A 
HETATM    8  C9  UNL     1      23.425   1.794  50.987  1.00  0.00     0.066 A 
HETATM    9  N1  UNL     1      24.396   2.579  50.829  1.00  0.00    -0.263 NA
HETATM   10  C10 UNL     1      24.530   3.499  49.766  1.00  0.00     0.212 A 
HETATM   11  C17 UNL     1      23.393   3.465  48.805  1.00  0.00     0.083 A 
ENDROOT
BRANCH  10  12
HETATM   12  N2  UNL     1      24.751   4.874  50.252  1.00  0.00    -0.334 N 
HETATM   13  C11 UNL     1      25.716   5.654  49.568  1.00  0.00     0.242 C 
HETATM   14  O2  UNL     1      26.430   5.343  48.585  1.00  0.00    -0.269 OA
HETATM   15  H8  UNL     1      24.200   5.216  51.064  1.00  0.00     0.164 HD
BRANCH  13  16
HETATM   16  C12 UNL     1      25.982   7.019  49.996  1.00  0.00     0.072 C 
HETATM   17  C13 UNL     1      26.734   8.056  49.711  1.00  0.00     0.008 C 
BRANCH  17  18
HETATM   18  C14 UNL     1      27.150   9.447  49.986  1.00  0.00     0.299 C 
BRANCH  18  19
HETATM   19  N3  UNL     1      28.183   9.873  49.087  1.00  0.00     0.083 N 
HETATM   20  C15 UNL     1      28.103  11.300  48.916  1.00  0.00     0.309 C 
HETATM   21  C16 UNL     1      29.494   9.411  49.408  1.00  0.00     0.309 C 
ENDBRANCH  18  19
ENDBRANCH  17  18
ENDBRANCH  13  16
ENDBRANCH  10  12
BRANCH   6  22
HETATM   22  O1  UNL     1      22.534  -0.763  53.492  1.00  0.00    -0.255 OA
BRANCH  22  23
HETATM   23  C7  UNL     1      21.647  -0.605  54.575  1.00  0.00     0.530 C 
HETATM   24  F1  UNL     1      22.362  -0.816  55.754  1.00  0.00    -0.144 F 
HETATM   25  F2  UNL     1      21.102   0.674  54.591  1.00  0.00    -0.144 F 
HETATM   26  F3  UNL     1      20.678  -1.587  54.523  1.00  0.00    -0.144 F 
ENDBRANCH  22  23
ENDBRANCH   6  22
TORSDOF 6
ENDMDL
MODEL 9
REMARK VINA RESULT:      -7.0      5.320      9.610
REMARK  6 active torsions:
REMARK  status: ('A' for Active; 'I' for Inactive)
REMARK    1  A    between atoms: C6_6  and  O1_7 
REMARK    2  A    between atoms: O1_7  and  C7_8 
REMARK    3  A    between atoms: C10_15  and  N2_16 
REMARK       I    between atoms: N2_16  and  C11_17 
REMARK    4  A    between atoms: C11_17  and  C12_19 
REMARK    5  A    between atoms: C13_20  and  C14_21 
REMARK    6  A    between atoms: C14_21  and  N3_22 
ROOT
HETATM    1  C1  UNL     1      29.929   5.665  47.796  1.00  0.00     0.044 C 
HETATM    2  C2  UNL     1      28.562   6.003  48.348  1.00  0.00    -0.068 A 
HETATM    3  C3  UNL     1      28.399   7.301  48.513  1.00  0.00    -0.005 A 
HETATM    4  C4  UNL     1      29.330   8.271  48.230  1.00  0.00     0.017 A 
HETATM    5  C5  UNL     1      28.935   9.585  48.486  1.00  0.00     0.038 A 
HETATM    6  C6  UNL     1      27.673   9.864  48.993  1.00  0.00     0.080 A 
HETATM    7  C8  UNL     1      26.753   8.845  49.268  1.00  0.00     0.069 A 
HETATM    8  C9  UNL     1      27.138   7.523  49.016  1.00  0.00     0.066 A 
HETATM    9  N1  UNL     1      26.239   6.688  49.296  1.00  0.00    -0.263 NA
HETATM   10  C10 UNL     1      26.355   5.289  49.142  1.00  0.00     0.212 A 
HETATM   11  C17 UNL     1      27.673   4.859  48.597  1.00  0.00     0.083 A 
ENDROOT
BRANCH  10  12
HETATM   12  N2  UNL     1      26.060   4.571  50.396  1.00  0.00    -0.334 N 
HETATM   13  C11 UNL     1      25.133   3.501  50.324  1.00  0.00     0.242 C 
HETATM   14  O2  UNL     1      24.511   3.060  49.329  1.00  0.00    -0.269 OA
HETATM   15  H8  UNL     1      26.532   4.870  51.272  1.00  0.00     0.164 HD
BRANCH  13  16
HETATM   16  C12 UNL     1      24.798   2.751  51.524  1.00  0.00     0.072 C 
HETATM   17  C13 UNL     1      24.764   1.525  51.994  1.00  0.00     0.008 C 
BRANCH  17  18
HETATM   18  C14 UNL     1      24.480   0.587  53.099  1.00  0.00     0.299 C 
BRANCH  18  19
HETATM   19  N3  UNL     1      25.670  -0.085  53.535  1.00  0.00     0.083 N 
HETATM   20  C15 UNL     1      26.439  -0.480  52.385  1.00  0.00     0.309 C 
HETATM   21  C16 UNL     1      26.434   0.613  54.518  1.00  0.00     0.309 C 
ENDBRANCH  18  19
ENDBRANCH  17  18
ENDBRANCH  13  16
ENDBRANCH  10  12
BRANCH   6  22
HETATM   22  O1  UNL     1      27.419  11.197  49.196  1.00  0.00    -0.255 OA
BRANCH  22  23
HETATM   23  C7  UNL     1      26.749  11.993  48.247  1.00  0.00     0.530 C 
HETATM   24  F1  UNL     1      26.993  13.331  48.556  1.00  0.00    -0.144 F 
HETATM   25  F2  UNL     1      27.207  11.727  46.961  1.00  0.00    -0.144 F 
HETATM   26  F3  UNL     1      25.387  11.804  48.367  1.00  0.00    -0.144 F 
ENDBRANCH  22  23
ENDBRANCH   6  22
TORSDOF 6
ENDMDL
