MODEL 1
REMARK VINA RESULT:      -8.6      0.000      0.000
REMARK  5 active torsions:
REMARK  status: ('A' for Active; 'I' for Inactive)
REMARK    1  A    between atoms: O1_2  and  C2_3 
REMARK    2  A    between atoms: C2_3  and  O2_4 
REMARK    3  A    between atoms: O2_4  and  C3_5 
REMARK    4  A    between atoms: C3_5  and  C4_6 
REMARK    5  A    between atoms: C12_16  and  C14_19 
ROOT
HETATM    1  C4  UNL     1      24.917   0.583  53.905  1.00  0.00     0.116 C 
HETATM    2  C5  UNL     1      26.032  -0.234  54.467  1.00  0.00     0.228 C 
HETATM    3  O3  UNL     1      25.499  -0.990  55.361  1.00  0.00    -0.273 OA
HETATM    4  N1  UNL     1      27.430  -0.649  54.553  1.00  0.00    -0.337 N 
HETATM    5  C6  UNL     1      28.539   0.040  53.892  1.00  0.00     0.093 C 
HETATM    6  C7  UNL     1      28.596   1.215  53.182  1.00  0.00     0.048 C 
HETATM    7  C8  UNL     1      27.396   2.018  52.899  1.00  0.00     0.054 C 
HETATM    8  C9  UNL     1      26.246   2.311  53.546  1.00  0.00     0.017 C 
HETATM    9  C10 UNL     1      25.372   1.334  52.750  1.00  0.00     0.020 C 
HETATM   10  C11 UNL     1      25.950   0.276  51.949  1.00  0.00     0.023 C 
HETATM   11  C12 UNL     1      24.873   2.377  51.902  1.00  0.00     0.122 C 
HETATM   12  C13 UNL     1      24.264   3.408  52.889  1.00  0.00     0.081 C 
HETATM   13  N2  UNL     1      23.783   4.181  53.649  1.00  0.00    -0.196 NA
HETATM   14  C21 UNL     1      26.086   3.245  51.497  1.00  0.00     0.121 C 
HETATM   15  N3  UNL     1      27.289   2.631  51.574  1.00  0.00    -0.263 NA
HETATM   16  H9  UNL     1      27.842  -1.426  55.043  1.00  0.00     0.168 HD
ENDROOT
BRANCH  11  17
HETATM   17  C14 UNL     1      23.841   2.275  50.912  1.00  0.00    -0.022 A 
HETATM   18  C15 UNL     1      22.624   1.600  51.178  1.00  0.00     0.029 A 
HETATM   19  C16 UNL     1      21.530   1.336  50.377  1.00  0.00     0.011 A 
HETATM   20 BR1  UNL     1      20.005   0.406  50.966  1.00  0.00    -0.051 Br
HETATM   21  C17 UNL     1      21.621   1.806  49.088  1.00  0.00     0.019 A 
HETATM   22  C18 UNL     1      22.755   2.480  48.707  1.00  0.00     0.009 A 
HETATM   23  C19 UNL     1      23.831   2.713  49.577  1.00  0.00    -0.053 A 
HETATM   24  C20 UNL     1      24.944   3.479  49.068  1.00  0.00     0.049 C 
ENDBRANCH  11  17
BRANCH   1  25
HETATM   25  C3  UNL     1      23.851  -0.466  53.627  1.00  0.00     0.185 C 
BRANCH  25  26
HETATM   26  O2  UNL     1      22.590  -0.143  54.012  1.00  0.00    -0.366 OA
BRANCH  26  27
HETATM   27  C2  UNL     1      22.250  -0.855  55.159  1.00  0.00     0.337 C 
BRANCH  27  28
HETATM   28  O1  UNL     1      21.477  -1.944  54.762  1.00  0.00    -0.372 OA
HETATM   29  C1  UNL     1      20.330  -1.552  54.119  1.00  0.00     0.204 C 
ENDBRANCH  27  28
ENDBRANCH  26  27
ENDBRANCH  25  26
ENDBRANCH   1  25
TORSDOF 5
ENDMDL
MODEL 2
REMARK VINA RESULT:      -7.9      3.199      5.531
REMARK  5 active torsions:
REMARK  status: ('A' for Active; 'I' for Inactive)
REMARK    1  A    between atoms: O1_2  and  C2_3 
REMARK    2  A    between atoms: C2_3  and  O2_4 
REMARK    3  A    between atoms: O2_4  and  C3_5 
REMARK    4  A    between atoms: C3_5  and  C4_6 
REMARK    5  A    between atoms: C12_16  and  C14_19 
ROOT
HETATM    1  C4  UNL     1      21.738   4.275  51.193  1.00  0.00     0.116 C 
HETATM    2  C5  UNL     1      22.186   5.698  51.134  1.00  0.00     0.228 C 
HETATM    3  O3  UNL     1      21.115   6.408  51.196  1.00  0.00    -0.273 OA
HETATM    4  N1  UNL     1      23.203   6.741  51.044  1.00  0.00    -0.337 N 
HETATM    5  C6  UNL     1      24.613   6.498  50.739  1.00  0.00     0.093 C 
HETATM    6  C7  UNL     1      25.288   5.359  50.369  1.00  0.00     0.048 C 
HETATM    7  C8  UNL     1      24.621   4.051  50.271  1.00  0.00     0.054 C 
HETATM    8  C9  UNL     1      23.400   3.607  49.900  1.00  0.00     0.017 C 
HETATM    9  C10 UNL     1      22.879   3.390  51.327  1.00  0.00     0.020 C 
HETATM   10  C11 UNL     1      23.542   3.973  52.475  1.00  0.00     0.023 C 
HETATM   11  C12 UNL     1      23.138   1.981  51.272  1.00  0.00     0.122 C 
HETATM   12  C13 UNL     1      22.347   1.499  50.027  1.00  0.00     0.081 C 
HETATM   13  N2  UNL     1      21.724   1.136  49.085  1.00  0.00    -0.196 NA
HETATM   14  C21 UNL     1      24.540   1.806  50.645  1.00  0.00     0.121 C 
HETATM   15  N3  UNL     1      25.358   2.878  50.747  1.00  0.00    -0.263 NA
HETATM   16  H9  UNL     1      23.117   7.737  51.169  1.00  0.00     0.168 HD
ENDROOT
BRANCH  11  17
HETATM   17  C14 UNL     1      22.780   0.993  52.247  1.00  0.00    -0.022 A 
HETATM   18  C15 UNL     1      21.450   0.518  52.367  1.00  0.00     0.029 A 
HETATM   19  C16 UNL     1      20.874  -0.376  53.248  1.00  0.00     0.011 A 
HETATM   20 BR1  UNL     1      19.055  -0.856  53.207  1.00  0.00    -0.051 Br
HETATM   21  C17 UNL     1      21.728  -0.911  54.183  1.00  0.00     0.019 A 
HETATM   22  C18 UNL     1      23.047  -0.529  54.170  1.00  0.00     0.009 A 
HETATM   23  C19 UNL     1      23.566   0.386  53.241  1.00  0.00    -0.053 A 
HETATM   24  C20 UNL     1      24.981   0.665  53.302  1.00  0.00     0.049 C 
ENDBRANCH  11  17
BRANCH   1  25
HETATM   25  C3  UNL     1      20.774   4.285  52.369  1.00  0.00     0.185 C 
BRANCH  25  26
HETATM   26  O2  UNL     1      19.944   3.214  52.462  1.00  0.00    -0.366 OA
BRANCH  26  27
HETATM   27  C2  UNL     1      18.993   3.263  51.447  1.00  0.00     0.337 C 
BRANCH  27  28
HETATM   28  O1  UNL     1      17.800   3.708  52.012  1.00  0.00    -0.372 OA
HETATM   29  C1  UNL     1      16.982   4.299  51.083  1.00  0.00     0.204 C 
ENDBRANCH  27  28
ENDBRANCH  26  27
ENDBRANCH  25  26
ENDBRANCH   1  25
TORSDOF 5
ENDMDL
MODEL 3
REMARK VINA RESULT:      -7.7      3.253      5.661
REMARK  5 active torsions:
REMARK  status: ('A' for Active; 'I' for Inactive)
REMARK    1  A    between atoms: O1_2  and  C2_3 
REMARK    2  A    between atoms: C2_3  and  O2_4 
REMARK    3  A    between atoms: O2_4  and  C3_5 
REMARK    4  A    between atoms: C3_5  and  C4_6 
REMARK    5  A    between atoms: C12_16  and  C14_19 
ROOT
HETATM    1  C4  UNL     1      23.634   1.323  51.634  1.00  0.00     0.116 C 
HETATM    2  C5  UNL     1      23.036   0.495  52.723  1.00  0.00     0.228 C 
HETATM    3  O3  UNL     1      23.928  -0.378  53.033  1.00  0.00    -0.273 OA
HETATM    4  N1  UNL     1      21.963   0.133  53.645  1.00  0.00    -0.337 N 
HETATM    5  C6  UNL     1      20.605   0.674  53.588  1.00  0.00     0.093 C 
HETATM    6  C7  UNL     1      19.981   1.493  52.677  1.00  0.00     0.048 C 
HETATM    7  C8  UNL     1      20.691   2.059  51.520  1.00  0.00     0.054 C 
HETATM    8  C9  UNL     1      21.668   1.649  50.681  1.00  0.00     0.017 C 
HETATM    9  C10 UNL     1      22.787   2.463  51.343  1.00  0.00     0.020 C 
HETATM   10  C11 UNL     1      22.633   3.033  52.664  1.00  0.00     0.023 C 
HETATM   11  C12 UNL     1      22.706   3.494  50.349  1.00  0.00     0.122 C 
HETATM   12  C13 UNL     1      22.918   2.745  49.007  1.00  0.00     0.081 C 
HETATM   13  N2  UNL     1      23.101   2.167  47.988  1.00  0.00    -0.196 NA
HETATM   14  C21 UNL     1      21.204   3.788  50.129  1.00  0.00     0.121 C 
HETATM   15  N3  UNL     1      20.390   3.445  51.153  1.00  0.00    -0.263 NA
HETATM   16  H9  UNL     1      21.973  -0.504  54.426  1.00  0.00     0.168 HD
ENDROOT
BRANCH  11  17
HETATM   17  C14 UNL     1      23.575   4.623  50.194  1.00  0.00    -0.022 A 
HETATM   18  C15 UNL     1      24.874   4.489  49.645  1.00  0.00     0.029 A 
HETATM   19  C16 UNL     1      25.886   5.409  49.451  1.00  0.00     0.011 A 
HETATM   20 BR1  UNL     1      27.552   4.982  48.689  1.00  0.00    -0.051 Br
HETATM   21  C17 UNL     1      25.599   6.690  49.858  1.00  0.00     0.019 A 
HETATM   22  C18 UNL     1      24.367   6.950  50.407  1.00  0.00     0.009 A 
HETATM   23  C19 UNL     1      23.383   5.963  50.574  1.00  0.00    -0.053 A 
HETATM   24  C20 UNL     1      22.112   6.376  51.118  1.00  0.00     0.049 C 
ENDBRANCH  11  17
BRANCH   1  25
HETATM   25  C3  UNL     1      25.009   1.653  52.194  1.00  0.00     0.185 C 
BRANCH  25  26
HETATM   26  O2  UNL     1      26.036   1.603  51.307  1.00  0.00    -0.366 OA
BRANCH  26  27
HETATM   27  C2  UNL     1      27.056   2.457  51.717  1.00  0.00     0.337 C 
BRANCH  27  28
HETATM   28  O1  UNL     1      27.964   1.701  52.455  1.00  0.00    -0.372 OA
HETATM   29  C1  UNL     1      28.421   2.379  53.556  1.00  0.00     0.204 C 
ENDBRANCH  27  28
ENDBRANCH  26  27
ENDBRANCH  25  26
ENDBRANCH   1  25
TORSDOF 5
ENDMDL
MODEL 4
REMARK VINA RESULT:      -7.6      3.603      7.084
REMARK  5 active torsions:
REMARK  status: ('A' for Active; 'I' for Inactive)
REMARK    1  A    between atoms: O1_2  and  C2_3 
REMARK    2  A    between atoms: C2_3  and  O2_4 
REMARK    3  A    between atoms: O2_4  and  C3_5 
REMARK    4  A    between atoms: C3_5  and  C4_6 
REMARK    5  A    between atoms: C12_16  and  C14_19 
ROOT
HETATM    1  C4  UNL     1      21.837   3.124  49.327  1.00  0.00     0.116 C 
HETATM    2  C5  UNL     1      20.816   3.104  48.240  1.00  0.00     0.228 C 
HETATM    3  O3  UNL     1      21.404   3.570  47.194  1.00  0.00    -0.273 OA
HETATM    4  N1  UNL     1      19.482   2.836  47.708  1.00  0.00    -0.337 N 
HETATM    5  C6  UNL     1      18.322   2.482  48.526  1.00  0.00     0.093 C 
HETATM    6  C7  UNL     1      18.142   2.427  49.888  1.00  0.00     0.048 C 
HETATM    7  C8  UNL     1      19.237   2.691  50.833  1.00  0.00     0.054 C 
HETATM    8  C9  UNL     1      20.310   3.512  50.875  1.00  0.00     0.017 C 
HETATM    9  C10 UNL     1      21.338   2.436  50.503  1.00  0.00     0.020 C 
HETATM   10  C11 UNL     1      20.938   1.169  49.928  1.00  0.00     0.023 C 
HETATM   11  C12 UNL     1      21.732   2.254  51.870  1.00  0.00     0.122 C 
HETATM   12  C13 UNL     1      22.158   3.673  52.333  1.00  0.00     0.081 C 
HETATM   13  N2  UNL     1      22.501   4.756  52.673  1.00  0.00    -0.196 NA
HETATM   14  C21 UNL     1      20.435   2.199  52.708  1.00  0.00     0.121 C 
HETATM   15  N3  UNL     1      19.320   1.846  52.027  1.00  0.00    -0.263 NA
HETATM   16  H9  UNL     1      19.155   2.845  46.755  1.00  0.00     0.168 HD
ENDROOT
BRANCH  11  17
HETATM   17  C14 UNL     1      22.810   1.449  52.364  1.00  0.00    -0.022 A 
HETATM   18  C15 UNL     1      24.160   1.863  52.245  1.00  0.00     0.029 A 
HETATM   19  C16 UNL     1      25.343   1.241  52.595  1.00  0.00     0.011 A 
HETATM   20 BR1  UNL     1      27.041   2.005  52.332  1.00  0.00    -0.051 Br
HETATM   21  C17 UNL     1      25.204  -0.004  53.162  1.00  0.00     0.019 A 
HETATM   22  C18 UNL     1      23.942  -0.518  53.333  1.00  0.00     0.009 A 
HETATM   23  C19 UNL     1      22.780   0.173  52.954  1.00  0.00    -0.053 A 
HETATM   24  C20 UNL     1      21.512  -0.455  53.234  1.00  0.00     0.049 C 
ENDBRANCH  11  17
BRANCH   1  25
HETATM   25  C3  UNL     1      23.042   2.483  48.655  1.00  0.00     0.185 C 
BRANCH  25  26
HETATM   26  O2  UNL     1      24.254   2.967  49.029  1.00  0.00    -0.366 OA
BRANCH  26  27
HETATM   27  C2  UNL     1      24.149   4.321  49.332  1.00  0.00     0.337 C 
BRANCH  27  28
HETATM   28  O1  UNL     1      25.327   4.700  49.972  1.00  0.00    -0.372 OA
HETATM   29  C1  UNL     1      26.438   4.211  49.333  1.00  0.00     0.204 C 
ENDBRANCH  27  28
ENDBRANCH  26  27
ENDBRANCH  25  26
ENDBRANCH   1  25
TORSDOF 5
ENDMDL
MODEL 5
REMARK VINA RESULT:      -7.5      4.026      6.214
REMARK  5 active torsions:
REMARK  status: ('A' for Active; 'I' for Inactive)
REMARK    1  A    between atoms: O1_2  and  C2_3 
REMARK    2  A    between atoms: C2_3  and  O2_4 
REMARK    3  A    between atoms: O2_4  and  C3_5 
REMARK    4  A    between atoms: C3_5  and  C4_6 
REMARK    5  A    between atoms: C12_16  and  C14_19 
ROOT
HETATM    1  C4  UNL     1      20.791   3.890  50.638  1.00  0.00     0.116 C 
HETATM    2  C5  UNL     1      21.497   5.105  51.139  1.00  0.00     0.228 C 
HETATM    3  O3  UNL     1      20.937   6.105  50.555  1.00  0.00    -0.273 OA
HETATM    4  N1  UNL     1      22.501   5.788  51.951  1.00  0.00    -0.337 N 
HETATM    5  C6  UNL     1      23.578   5.112  52.676  1.00  0.00     0.093 C 
HETATM    6  C7  UNL     1      23.985   3.799  52.699  1.00  0.00     0.048 C 
HETATM    7  C8  UNL     1      23.275   2.747  51.955  1.00  0.00     0.054 C 
HETATM    8  C9  UNL     1      22.621   2.661  50.776  1.00  0.00     0.017 C 
HETATM    9  C10 UNL     1      21.212   2.717  51.380  1.00  0.00     0.020 C 
HETATM   10  C11 UNL     1      20.986   3.159  52.740  1.00  0.00     0.023 C 
HETATM   11  C12 UNL     1      21.053   1.295  51.292  1.00  0.00     0.122 C 
HETATM   12  C13 UNL     1      21.291   0.979  49.792  1.00  0.00     0.081 C 
HETATM   13  N2  UNL     1      21.455   0.749  48.640  1.00  0.00    -0.196 NA
HETATM   14  C21 UNL     1      22.370   0.663  51.797  1.00  0.00     0.121 C 
HETATM   15  N3  UNL     1      23.115   1.447  52.610  1.00  0.00    -0.263 NA
HETATM   16  H9  UNL     1      22.616   6.770  52.141  1.00  0.00     0.168 HD
ENDROOT
BRANCH  11  17
HETATM   17  C14 UNL     1      19.869   0.534  51.567  1.00  0.00    -0.022 A 
HETATM   18  C15 UNL     1      18.796   0.473  50.643  1.00  0.00     0.029 A 
HETATM   19  C16 UNL     1      17.562  -0.143  50.714  1.00  0.00     0.011 A 
HETATM   20 BR1  UNL     1      16.285  -0.080  49.334  1.00  0.00    -0.051 Br
HETATM   21  C17 UNL     1      17.312  -0.822  51.882  1.00  0.00     0.019 A 
HETATM   22  C18 UNL     1      18.277  -0.838  52.859  1.00  0.00     0.009 A 
HETATM   23  C19 UNL     1      19.514  -0.190  52.718  1.00  0.00    -0.053 A 
HETATM   24  C20 UNL     1      20.462  -0.325  53.797  1.00  0.00     0.049 C 
ENDBRANCH  11  17
BRANCH   1  25
HETATM   25  C3  UNL     1      19.328   4.274  50.796  1.00  0.00     0.185 C 
BRANCH  25  26
HETATM   26  O2  UNL     1      18.461   3.661  49.951  1.00  0.00    -0.366 OA
BRANCH  26  27
HETATM   27  C2  UNL     1      17.153   3.873  50.378  1.00  0.00     0.337 C 
BRANCH  27  28
HETATM   28  O1  UNL     1      17.057   3.397  51.684  1.00  0.00    -0.372 OA
HETATM   29  C1  UNL     1      15.808   2.899  51.958  1.00  0.00     0.204 C 
ENDBRANCH  27  28
ENDBRANCH  26  27
ENDBRANCH  25  26
ENDBRANCH   1  25
TORSDOF 5
ENDMDL
MODEL 6
REMARK VINA RESULT:      -7.3      4.891      7.558
REMARK  5 active torsions:
REMARK  status: ('A' for Active; 'I' for Inactive)
REMARK    1  A    between atoms: O1_2  and  C2_3 
REMARK    2  A    between atoms: C2_3  and  O2_4 
REMARK    3  A    between atoms: O2_4  and  C3_5 
REMARK    4  A    between atoms: C3_5  and  C4_6 
REMARK    5  A    between atoms: C12_16  and  C14_19 
ROOT
HETATM    1  C4  UNL     1      21.713   4.272  48.347  1.00  0.00     0.116 C 
HETATM    2  C5  UNL     1      20.723   3.176  48.132  1.00  0.00     0.228 C 
HETATM    3  O3  UNL     1      19.971   3.564  47.163  1.00  0.00    -0.273 OA
HETATM    4  N1  UNL     1      20.135   1.873  48.433  1.00  0.00    -0.337 N 
HETATM    5  C6  UNL     1      20.471   1.065  49.605  1.00  0.00     0.093 C 
HETATM    6  C7  UNL     1      21.256   1.323  50.703  1.00  0.00     0.048 C 
HETATM    7  C8  UNL     1      22.010   2.578  50.848  1.00  0.00     0.054 C 
HETATM    8  C9  UNL     1      21.816   3.874  50.517  1.00  0.00     0.017 C 
HETATM    9  C10 UNL     1      22.734   3.855  49.288  1.00  0.00     0.020 C 
HETATM   10  C11 UNL     1      23.170   2.614  48.685  1.00  0.00     0.023 C 
HETATM   11  C12 UNL     1      23.816   4.457  50.013  1.00  0.00     0.122 C 
HETATM   12  C13 UNL     1      23.213   5.775  50.567  1.00  0.00     0.081 C 
HETATM   13  N2  UNL     1      22.750   6.789  50.971  1.00  0.00    -0.196 NA
HETATM   14  C21 UNL     1      23.899   3.736  51.377  1.00  0.00     0.121 C 
HETATM   15  N3  UNL     1      23.360   2.496  51.411  1.00  0.00    -0.263 NA
HETATM   16  H9  UNL     1      19.448   1.344  47.921  1.00  0.00     0.168 HD
ENDROOT
BRANCH  11  17
HETATM   17  C14 UNL     1      25.070   4.908  49.486  1.00  0.00    -0.022 A 
HETATM   18  C15 UNL     1      25.196   6.167  48.847  1.00  0.00     0.029 A 
HETATM   19  C16 UNL     1      26.271   6.777  48.231  1.00  0.00     0.011 A 
HETATM   20 BR1  UNL     1      26.191   8.483  47.441  1.00  0.00    -0.051 Br
HETATM   21  C17 UNL     1      27.436   6.047  48.227  1.00  0.00     0.019 A 
HETATM   22  C18 UNL     1      27.443   4.807  48.818  1.00  0.00     0.009 A 
HETATM   23  C19 UNL     1      26.309   4.248  49.429  1.00  0.00    -0.053 A 
HETATM   24  C20 UNL     1      26.462   2.959  50.058  1.00  0.00     0.049 C 
ENDBRANCH  11  17
BRANCH   1  25
HETATM   25  C3  UNL     1      22.200   4.553  46.934  1.00  0.00     0.185 C 
BRANCH  25  26
HETATM   26  O2  UNL     1      22.414   5.860  46.631  1.00  0.00    -0.366 OA
BRANCH  26  27
HETATM   27  C2  UNL     1      22.281   6.055  45.260  1.00  0.00     0.337 C 
BRANCH  27  28
HETATM   28  O1  UNL     1      20.954   5.792  44.926  1.00  0.00    -0.372 OA
HETATM   29  C1  UNL     1      20.816   5.455  43.604  1.00  0.00     0.204 C 
ENDBRANCH  27  28
ENDBRANCH  26  27
ENDBRANCH  25  26
ENDBRANCH   1  25
TORSDOF 5
ENDMDL
MODEL 7
REMARK VINA RESULT:      -7.2      3.781      6.251
REMARK  5 active torsions:
REMARK  status: ('A' for Active; 'I' for Inactive)
REMARK    1  A    between atoms: O1_2  and  C2_3 
REMARK    2  A    between atoms: C2_3  and  O2_4 
REMARK    3  A    between atoms: O2_4  and  C3_5 
REMARK    4  A    between atoms: C3_5  and  C4_6 
REMARK    5  A    between atoms: C12_16  and  C14_19 
ROOT
HETATM    1  C4  UNL     1      21.267   3.537  50.700  1.00  0.00     0.116 C 
HETATM    2  C5  UNL     1      20.124   2.583  50.602  1.00  0.00     0.228 C 
HETATM    3  O3  UNL     1      19.145   3.255  50.106  1.00  0.00    -0.273 OA
HETATM    4  N1  UNL     1      19.503   1.272  50.767  1.00  0.00    -0.337 N 
HETATM    5  C6  UNL     1      20.108   0.156  51.494  1.00  0.00     0.093 C 
HETATM    6  C7  UNL     1      21.251   0.067  52.253  1.00  0.00     0.048 C 
HETATM    7  C8  UNL     1      22.172   1.202  52.415  1.00  0.00     0.054 C 
HETATM    8  C9  UNL     1      22.056   2.545  52.509  1.00  0.00     0.017 C 
HETATM    9  C10 UNL     1      22.483   2.836  51.065  1.00  0.00     0.020 C 
HETATM   10  C11 UNL     1      22.511   1.797  50.057  1.00  0.00     0.023 C 
HETATM   11  C12 UNL     1      23.819   3.170  51.464  1.00  0.00     0.122 C 
HETATM   12  C13 UNL     1      23.631   4.302  52.509  1.00  0.00     0.081 C 
HETATM   13  N2  UNL     1      23.478   5.180  53.291  1.00  0.00    -0.196 NA
HETATM   14  C21 UNL     1      24.268   2.094  52.479  1.00  0.00     0.121 C 
HETATM   15  N3  UNL     1      23.609   0.914  52.401  1.00  0.00    -0.263 NA
HETATM   16  H9  UNL     1      18.616   0.933  50.430  1.00  0.00     0.168 HD
ENDROOT
BRANCH  11  17
HETATM   17  C14 UNL     1      24.865   3.703  50.641  1.00  0.00    -0.022 A 
HETATM   18  C15 UNL     1      24.714   4.934  49.956  1.00  0.00     0.029 A 
HETATM   19  C16 UNL     1      25.550   5.605  49.084  1.00  0.00     0.011 A 
HETATM   20 BR1  UNL     1      25.121   7.255  48.289  1.00  0.00    -0.051 Br
HETATM   21  C17 UNL     1      26.747   4.981  48.823  1.00  0.00     0.019 A 
HETATM   22  C18 UNL     1      27.013   3.778  49.430  1.00  0.00     0.009 A 
HETATM   23  C19 UNL     1      26.115   3.152  50.309  1.00  0.00    -0.053 A 
HETATM   24  C20 UNL     1      26.535   1.915  50.920  1.00  0.00     0.049 C 
ENDBRANCH  11  17
BRANCH   1  25
HETATM   25  C3  UNL     1      21.272   4.184  49.323  1.00  0.00     0.185 C 
BRANCH  25  26
HETATM   26  O2  UNL     1      21.551   5.513  49.295  1.00  0.00    -0.366 OA
BRANCH  26  27
HETATM   27  C2  UNL     1      21.160   6.103  50.494  1.00  0.00     0.337 C 
BRANCH  27  28
HETATM   28  O1  UNL     1      21.929   7.252  50.666  1.00  0.00    -0.372 OA
HETATM   29  C1  UNL     1      21.669   8.192  49.702  1.00  0.00     0.204 C 
ENDBRANCH  27  28
ENDBRANCH  26  27
ENDBRANCH  25  26
ENDBRANCH   1  25
TORSDOF 5
ENDMDL
MODEL 8
REMARK VINA RESULT:      -7.2      8.607     11.059
REMARK  5 active torsions:
REMARK  status: ('A' for Active; 'I' for Inactive)
REMARK    1  A    between atoms: O1_2  and  C2_3 
REMARK    2  A    between atoms: C2_3  and  O2_4 
REMARK    3  A    between atoms: O2_4  and  C3_5 
REMARK    4  A    between atoms: C3_5  and  C4_6 
REMARK    5  A    between atoms: C12_16  and  C14_19 
ROOT
HETATM    1  C4  UNL     1      29.030  10.747  47.974  1.00  0.00     0.116 C 
HETATM    2  C5  UNL     1      30.140  11.704  48.256  1.00  0.00     0.228 C 
HETATM    3  O3  UNL     1      29.606  12.686  48.892  1.00  0.00    -0.273 OA
HETATM    4  N1  UNL     1      31.534  12.137  48.199  1.00  0.00    -0.337 N 
HETATM    5  C6  UNL     1      32.569  11.488  47.395  1.00  0.00     0.093 C 
HETATM    6  C7  UNL     1      32.511  10.474  46.469  1.00  0.00     0.048 C 
HETATM    7  C8  UNL     1      31.257   9.770  46.158  1.00  0.00     0.054 C 
HETATM    8  C9  UNL     1      29.950  10.102  46.072  1.00  0.00     0.017 C 
HETATM    9  C10 UNL     1      29.555   9.509  47.431  1.00  0.00     0.020 C 
HETATM   10  C11 UNL     1      30.546   9.171  48.430  1.00  0.00     0.023 C 
HETATM   11  C12 UNL     1      29.038   8.315  46.827  1.00  0.00     0.122 C 
HETATM   12  C13 UNL     1      27.979   8.829  45.816  1.00  0.00     0.081 C 
HETATM   13  N2  UNL     1      27.158   9.230  45.060  1.00  0.00    -0.196 NA
HETATM   14  C21 UNL     1      30.067   7.868  45.764  1.00  0.00     0.121 C 
HETATM   15  N3  UNL     1      31.328   8.322  45.951  1.00  0.00    -0.263 NA
HETATM   16  H9  UNL     1      31.990  12.901  48.672  1.00  0.00     0.168 HD
ENDROOT
BRANCH  11  17
HETATM   17  C14 UNL     1      28.331   7.249  47.474  1.00  0.00    -0.022 A 
HETATM   18  C15 UNL     1      26.944   7.340  47.750  1.00  0.00     0.029 A 
HETATM   19  C16 UNL     1      26.081   6.477  48.397  1.00  0.00     0.011 A 
HETATM   20 BR1  UNL     1      24.249   6.825  48.645  1.00  0.00    -0.051 Br
HETATM   21  C17 UNL     1      26.652   5.317  48.863  1.00  0.00     0.019 A 
HETATM   22  C18 UNL     1      27.994   5.109  48.656  1.00  0.00     0.009 A 
HETATM   23  C19 UNL     1      28.813   6.033  47.987  1.00  0.00    -0.053 A 
HETATM   24  C20 UNL     1      30.197   5.673  47.790  1.00  0.00     0.049 C 
ENDBRANCH  11  17
BRANCH   1  25
HETATM   25  C3  UNL     1      28.348  10.631  49.329  1.00  0.00     0.185 C 
BRANCH  25  26
HETATM   26  O2  UNL     1      27.004  10.437  49.299  1.00  0.00    -0.366 OA
BRANCH  26  27
HETATM   27  C2  UNL     1      26.436  11.218  48.297  1.00  0.00     0.337 C 
BRANCH  27  28
HETATM   28  O1  UNL     1      25.315  10.540  47.822  1.00  0.00    -0.372 OA
HETATM   29  C1  UNL     1      24.655  11.256  46.856  1.00  0.00     0.204 C 
ENDBRANCH  27  28
ENDBRANCH  26  27
ENDBRANCH  25  26
ENDBRANCH   1  25
TORSDOF 5
ENDMDL
MODEL 9
REMARK VINA RESULT:      -7.1      9.866     12.141
REMARK  5 active torsions:
REMARK  status: ('A' for Active; 'I' for Inactive)
REMARK    1  A    between atoms: O1_2  and  C2_3 
REMARK    2  A    between atoms: C2_3  and  O2_4 
REMARK    3  A    between atoms: O2_4  and  C3_5 
REMARK    4  A    between atoms: C3_5  and  C4_6 
REMARK    5  A    between atoms: C12_16  and  C14_19 
ROOT
HETATM    1  C4  UNL     1      33.904   8.099  47.130  1.00  0.00     0.116 C 
HETATM    2  C5  UNL     1      35.093   7.917  48.013  1.00  0.00     0.228 C 
HETATM    3  O3  UNL     1      35.754   9.018  47.948  1.00  0.00    -0.273 OA
HETATM    4  N1  UNL     1      35.929   7.148  48.933  1.00  0.00    -0.337 N 
HETATM    5  C6  UNL     1      35.759   5.722  49.209  1.00  0.00     0.093 C 
HETATM    6  C7  UNL     1      34.936   4.771  48.653  1.00  0.00     0.048 C 
HETATM    7  C8  UNL     1      33.947   5.103  47.616  1.00  0.00     0.054 C 
HETATM    8  C9  UNL     1      33.879   5.961  46.574  1.00  0.00     0.017 C 
HETATM    9  C10 UNL     1      32.985   6.988  47.282  1.00  0.00     0.020 C 
HETATM   10  C11 UNL     1      32.806   6.977  48.719  1.00  0.00     0.023 C 
HETATM   11  C12 UNL     1      31.804   6.494  46.635  1.00  0.00     0.122 C 
HETATM   12  C13 UNL     1      32.131   6.595  45.122  1.00  0.00     0.081 C 
HETATM   13  N2  UNL     1      32.382   6.694  43.967  1.00  0.00    -0.196 NA
HETATM   14  C21 UNL     1      31.864   4.952  46.706  1.00  0.00     0.121 C 
HETATM   15  N3  UNL     1      32.639   4.447  47.693  1.00  0.00    -0.263 NA
HETATM   16  H9  UNL     1      36.708   7.447  49.496  1.00  0.00     0.168 HD
ENDROOT
BRANCH  11  17
HETATM   17  C14 UNL     1      30.486   7.054  46.688  1.00  0.00    -0.022 A 
HETATM   18  C15 UNL     1      30.128   8.182  45.907  1.00  0.00     0.029 A 
HETATM   19  C16 UNL     1      28.956   8.910  45.833  1.00  0.00     0.011 A 
HETATM   20 BR1  UNL     1      28.718  10.393  44.700  1.00  0.00    -0.051 Br
HETATM   21  C17 UNL     1      27.945   8.478  46.659  1.00  0.00     0.019 A 
HETATM   22  C18 UNL     1      28.168   7.390  47.466  1.00  0.00     0.009 A 
HETATM   23  C19 UNL     1      29.388   6.695  47.488  1.00  0.00    -0.053 A 
HETATM   24  C20 UNL     1      29.478   5.537  48.344  1.00  0.00     0.049 C 
ENDBRANCH  11  17
BRANCH   1  25
HETATM   25  C3  UNL     1      33.373   9.454  47.572  1.00  0.00     0.185 C 
BRANCH  25  26
HETATM   26  O2  UNL     1      32.684  10.153  46.635  1.00  0.00    -0.366 OA
BRANCH  26  27
HETATM   27  C2  UNL     1      32.300  11.387  47.153  1.00  0.00     0.337 C 
BRANCH  27  28
HETATM   28  O1  UNL     1      31.013  11.244  47.665  1.00  0.00    -0.372 OA
HETATM   29  C1  UNL     1      30.836  11.969  48.816  1.00  0.00     0.204 C 
ENDBRANCH  27  28
ENDBRANCH  26  27
ENDBRANCH  25  26
ENDBRANCH   1  25
TORSDOF 5
ENDMDL
