MODEL 1
REMARK VINA RESULT:      -8.1      0.000      0.000
REMARK  3 active torsions:
REMARK  status: ('A' for Active; 'I' for Inactive)
REMARK    1  A    between atoms: O1_2  and  C2_3 
REMARK    2  A    between atoms: C7_8  and  N1_9 
REMARK    3  A    between atoms: N1_9  and  C8_10 
ROOT
HETATM    1  C2  UNL     1      18.830  -0.459  52.641  1.00  0.00     0.147 C 
HETATM    2  C3  UNL     1      20.099  -0.135  52.441  1.00  0.00     0.015 A 
HETATM    3  C4  UNL     1      20.633   0.629  51.319  1.00  0.00     0.017 A 
HETATM    4  C5  UNL     1      21.937   0.715  51.522  1.00  0.00     0.018 A 
HETATM    5  C6  UNL     1      22.353   0.030  52.765  1.00  0.00     0.040 A 
HETATM    6  C7  UNL     1      23.593  -0.121  53.345  1.00  0.00     0.142 A 
HETATM    7  N2  UNL     1      23.560  -0.817  54.486  1.00  0.00    -0.224 NA
HETATM    8  C14 UNL     1      22.470  -1.340  55.061  1.00  0.00     0.236 A 
HETATM    9  N3  UNL     1      21.283  -1.164  54.456  1.00  0.00    -0.240 NA
HETATM   10  C15 UNL     1      21.207  -0.489  53.321  1.00  0.00     0.084 A 
ENDROOT
BRANCH   6  11
HETATM   11  N1  UNL     1      24.745   0.434  52.732  1.00  0.00    -0.340 N 
HETATM   12  H7  UNL     1      24.565   1.154  51.972  1.00  0.00     0.167 HD
BRANCH  11  13
HETATM   13  C8  UNL     1      26.110   0.164  52.991  1.00  0.00     0.035 A 
HETATM   14  C9  UNL     1      26.656  -1.087  52.735  1.00  0.00     0.032 A 
HETATM   15  C10 UNL     1      27.977  -1.375  52.976  1.00  0.00     0.046 A 
HETATM   16  C11 UNL     1      28.829  -0.421  53.489  1.00  0.00     0.138 A 
HETATM   17  F1  UNL     1      30.128  -0.719  53.722  1.00  0.00    -0.204 F 
HETATM   18  C12 UNL     1      28.332   0.831  53.758  1.00  0.00     0.074 A 
HETATM   19 CL1  UNL     1      29.418   2.039  54.411  1.00  0.00    -0.081 Cl
HETATM   20  C13 UNL     1      27.011   1.072  53.502  1.00  0.00     0.056 A 
ENDBRANCH  11  13
ENDBRANCH   6  11
BRANCH   1  21
HETATM   21  O1  UNL     1      18.338  -1.189  53.716  1.00  0.00    -0.367 OA
HETATM   22  C1  UNL     1      17.815  -2.483  53.533  1.00  0.00     0.208 C 
ENDBRANCH   1  21
TORSDOF 3
ENDMDL
MODEL 2
REMARK VINA RESULT:      -7.9      1.460      2.212
REMARK  3 active torsions:
REMARK  status: ('A' for Active; 'I' for Inactive)
REMARK    1  A    between atoms: O1_2  and  C2_3 
REMARK    2  A    between atoms: C7_8  and  N1_9 
REMARK    3  A    between atoms: N1_9  and  C8_10 
ROOT
HETATM    1  C2  UNL     1      19.254  -0.147  52.747  1.00  0.00     0.147 C 
HETATM    2  C3  UNL     1      20.469  -0.416  53.199  1.00  0.00     0.015 A 
HETATM    3  C4  UNL     1      20.816  -1.395  54.224  1.00  0.00     0.017 A 
HETATM    4  C5  UNL     1      22.131  -1.331  54.361  1.00  0.00     0.018 A 
HETATM    5  C6  UNL     1      22.736  -0.329  53.457  1.00  0.00     0.040 A 
HETATM    6  C7  UNL     1      24.047   0.054  53.277  1.00  0.00     0.142 A 
HETATM    7  N2  UNL     1      24.194   1.008  52.352  1.00  0.00    -0.224 NA
HETATM    8  C14 UNL     1      23.214   1.576  51.639  1.00  0.00     0.236 A 
HETATM    9  N3  UNL     1      21.952   1.168  51.852  1.00  0.00    -0.240 NA
HETATM   10  C15 UNL     1      21.697   0.227  52.747  1.00  0.00     0.084 A 
ENDROOT
BRANCH   6  11
HETATM   11  N1  UNL     1      25.082  -0.550  54.033  1.00  0.00    -0.340 N 
HETATM   12  H7  UNL     1      24.769  -1.165  54.841  1.00  0.00     0.167 HD
BRANCH  11  13
HETATM   13  C8  UNL     1      26.484  -0.450  53.866  1.00  0.00     0.035 A 
HETATM   14  C9  UNL     1      27.205  -1.450  53.226  1.00  0.00     0.032 A 
HETATM   15  C10 UNL     1      28.565  -1.376  53.050  1.00  0.00     0.046 A 
HETATM   16  C11 UNL     1      29.282  -0.293  53.509  1.00  0.00     0.138 A 
HETATM   17  F1  UNL     1      30.622  -0.235  53.329  1.00  0.00    -0.204 F 
HETATM   18  C12 UNL     1      28.610   0.719  54.149  1.00  0.00     0.074 A 
HETATM   19 CL1  UNL     1      29.527   2.094  54.731  1.00  0.00    -0.081 Cl
HETATM   20  C13 UNL     1      27.257   0.604  54.301  1.00  0.00     0.056 A 
ENDBRANCH  11  13
ENDBRANCH   6  11
BRANCH   1  21
HETATM   21  O1  UNL     1      18.940   0.790  51.770  1.00  0.00    -0.367 OA
HETATM   22  C1  UNL     1      18.430   0.390  50.521  1.00  0.00     0.208 C 
ENDBRANCH   1  21
TORSDOF 3
ENDMDL
MODEL 3
REMARK VINA RESULT:      -7.8      4.777      6.408
REMARK  3 active torsions:
REMARK  status: ('A' for Active; 'I' for Inactive)
REMARK    1  A    between atoms: O1_2  and  C2_3 
REMARK    2  A    between atoms: C7_8  and  N1_9 
REMARK    3  A    between atoms: N1_9  and  C8_10 
ROOT
HETATM    1  C2  UNL     1      26.014   6.673  48.916  1.00  0.00     0.147 C 
HETATM    2  C3  UNL     1      26.030   5.430  49.372  1.00  0.00     0.015 A 
HETATM    3  C4  UNL     1      26.934   4.364  48.956  1.00  0.00     0.017 A 
HETATM    4  C5  UNL     1      26.597   3.299  49.665  1.00  0.00     0.018 A 
HETATM    5  C6  UNL     1      25.471   3.576  50.582  1.00  0.00     0.040 A 
HETATM    6  C7  UNL     1      24.817   2.765  51.483  1.00  0.00     0.142 A 
HETATM    7  N2  UNL     1      23.833   3.391  52.138  1.00  0.00    -0.224 NA
HETATM    8  C14 UNL     1      23.470   4.670  51.982  1.00  0.00     0.236 A 
HETATM    9  N3  UNL     1      24.140   5.420  51.090  1.00  0.00    -0.240 NA
HETATM   10  C15 UNL     1      25.132   4.895  50.390  1.00  0.00     0.084 A 
ENDROOT
BRANCH   6  11
HETATM   11  N1  UNL     1      25.205   1.411  51.645  1.00  0.00    -0.340 N 
HETATM   12  H7  UNL     1      24.563   0.688  51.206  1.00  0.00     0.167 HD
BRANCH  11  13
HETATM   13  C8  UNL     1      26.333   0.881  52.315  1.00  0.00     0.035 A 
HETATM   14  C9  UNL     1      26.585  -0.485  52.329  1.00  0.00     0.032 A 
HETATM   15  C10 UNL     1      27.673  -1.025  52.971  1.00  0.00     0.046 A 
HETATM   16  C11 UNL     1      28.573  -0.223  53.638  1.00  0.00     0.138 A 
HETATM   17  F1  UNL     1      29.639  -0.769  54.265  1.00  0.00    -0.204 F 
HETATM   18  C12 UNL     1      28.364   1.135  53.650  1.00  0.00     0.074 A 
HETATM   19 CL1  UNL     1      29.511   2.149  54.499  1.00  0.00    -0.081 Cl
HETATM   20  C13 UNL     1      27.268   1.628  52.998  1.00  0.00     0.056 A 
ENDBRANCH  11  13
ENDBRANCH   6  11
BRANCH   1  21
HETATM   21  O1  UNL     1      25.143   7.677  49.324  1.00  0.00    -0.367 OA
HETATM   22  C1  UNL     1      25.630   8.877  49.874  1.00  0.00     0.208 C 
ENDBRANCH   1  21
TORSDOF 3
ENDMDL
MODEL 4
REMARK VINA RESULT:      -7.7      2.826      3.786
REMARK  3 active torsions:
REMARK  status: ('A' for Active; 'I' for Inactive)
REMARK    1  A    between atoms: O1_2  and  C2_3 
REMARK    2  A    between atoms: C7_8  and  N1_9 
REMARK    3  A    between atoms: N1_9  and  C8_10 
ROOT
HETATM    1  C2  UNL     1      20.931   0.570  51.070  1.00  0.00     0.147 C 
HETATM    2  C3  UNL     1      22.080   0.844  51.670  1.00  0.00     0.015 A 
HETATM    3  C4  UNL     1      22.522   0.344  52.967  1.00  0.00     0.017 A 
HETATM    4  C5  UNL     1      23.720   0.867  53.172  1.00  0.00     0.018 A 
HETATM    5  C6  UNL     1      24.149   1.732  52.052  1.00  0.00     0.040 A 
HETATM    6  C7  UNL     1      25.303   2.458  51.858  1.00  0.00     0.142 A 
HETATM    7  N2  UNL     1      25.318   3.123  50.698  1.00  0.00    -0.224 NA
HETATM    8  C14 UNL     1      24.347   3.128  49.777  1.00  0.00     0.236 A 
HETATM    9  N3  UNL     1      23.240   2.403  50.013  1.00  0.00    -0.240 NA
HETATM   10  C15 UNL     1      23.126   1.707  51.132  1.00  0.00     0.084 A 
ENDROOT
BRANCH   6  11
HETATM   11  N1  UNL     1      26.329   2.450  52.836  1.00  0.00    -0.340 N 
HETATM   12  H7  UNL     1      26.374   3.302  53.468  1.00  0.00     0.167 HD
BRANCH  11  13
HETATM   13  C8  UNL     1      27.310   1.463  53.091  1.00  0.00     0.035 A 
HETATM   14  C9  UNL     1      28.547   1.799  53.625  1.00  0.00     0.032 A 
HETATM   15  C10 UNL     1      29.516   0.860  53.883  1.00  0.00     0.046 A 
HETATM   16  C11 UNL     1      29.299  -0.474  53.618  1.00  0.00     0.138 A 
HETATM   17  F1  UNL     1      30.263  -1.387  53.877  1.00  0.00    -0.204 F 
HETATM   18  C12 UNL     1      28.090  -0.853  53.089  1.00  0.00     0.074 A 
HETATM   19 CL1  UNL     1      27.819  -2.551  52.754  1.00  0.00    -0.081 Cl
HETATM   20  C13 UNL     1      27.155   0.115  52.849  1.00  0.00     0.056 A 
ENDBRANCH  11  13
ENDBRANCH   6  11
BRANCH   1  21
HETATM   21  O1  UNL     1      20.525   1.056  49.833  1.00  0.00    -0.367 OA
HETATM   22  C1  UNL     1      19.354   1.828  49.709  1.00  0.00     0.208 C 
ENDBRANCH   1  21
TORSDOF 3
ENDMDL
MODEL 5
REMARK VINA RESULT:      -7.6      3.464      4.565
REMARK  3 active torsions:
REMARK  status: ('A' for Active; 'I' for Inactive)
REMARK    1  A    between atoms: O1_2  and  C2_3 
REMARK    2  A    between atoms: C7_8  and  N1_9 
REMARK    3  A    between atoms: N1_9  and  C8_10 
ROOT
HETATM    1  C2  UNL     1      23.047   3.631  48.490  1.00  0.00     0.147 C 
HETATM    2  C3  UNL     1      23.988   3.455  49.406  1.00  0.00     0.015 A 
HETATM    3  C4  UNL     1      25.408   3.755  49.260  1.00  0.00     0.017 A 
HETATM    4  C5  UNL     1      25.972   3.427  50.411  1.00  0.00     0.018 A 
HETATM    5  C6  UNL     1      24.989   2.898  51.381  1.00  0.00     0.040 A 
HETATM    6  C7  UNL     1      25.143   2.447  52.673  1.00  0.00     0.142 A 
HETATM    7  N2  UNL     1      23.997   2.043  53.231  1.00  0.00    -0.224 NA
HETATM    8  C14 UNL     1      22.791   2.048  52.650  1.00  0.00     0.236 A 
HETATM    9  N3  UNL     1      22.693   2.498  51.388  1.00  0.00    -0.240 NA
HETATM   10  C15 UNL     1      23.768   2.922  50.746  1.00  0.00     0.084 A 
ENDROOT
BRANCH   6  11
HETATM   11  N1  UNL     1      26.422   2.444  53.284  1.00  0.00    -0.340 N 
HETATM   12  H7  UNL     1      26.730   3.360  53.724  1.00  0.00     0.167 HD
BRANCH  11  13
HETATM   13  C8  UNL     1      27.356   1.386  53.392  1.00  0.00     0.035 A 
HETATM   14  C9  UNL     1      28.641   1.606  53.872  1.00  0.00     0.032 A 
HETATM   15  C10 UNL     1      29.566   0.597  53.987  1.00  0.00     0.046 A 
HETATM   16  C11 UNL     1      29.253  -0.695  53.625  1.00  0.00     0.138 A 
HETATM   17  F1  UNL     1      30.175  -1.679  53.743  1.00  0.00    -0.204 F 
HETATM   18  C12 UNL     1      27.994  -0.960  53.144  1.00  0.00     0.074 A 
HETATM   19 CL1  UNL     1      27.603  -2.604  52.685  1.00  0.00    -0.081 Cl
HETATM   20  C13 UNL     1      27.107   0.075  53.048  1.00  0.00     0.056 A 
ENDBRANCH  11  13
ENDBRANCH   6  11
BRANCH   1  21
HETATM   21  O1  UNL     1      21.697   3.339  48.645  1.00  0.00    -0.367 OA
HETATM   22  C1  UNL     1      21.153   2.145  48.137  1.00  0.00     0.208 C 
ENDBRANCH   1  21
TORSDOF 3
ENDMDL
MODEL 6
REMARK VINA RESULT:      -7.4      2.714      3.663
REMARK  3 active torsions:
REMARK  status: ('A' for Active; 'I' for Inactive)
REMARK    1  A    between atoms: O1_2  and  C2_3 
REMARK    2  A    between atoms: C7_8  and  N1_9 
REMARK    3  A    between atoms: N1_9  and  C8_10 
ROOT
HETATM    1  C2  UNL     1      22.056   2.725  48.141  1.00  0.00     0.147 C 
HETATM    2  C3  UNL     1      22.758   2.527  49.246  1.00  0.00     0.015 A 
HETATM    3  C4  UNL     1      24.027   3.158  49.593  1.00  0.00     0.017 A 
HETATM    4  C5  UNL     1      24.366   2.673  50.776  1.00  0.00     0.018 A 
HETATM    5  C6  UNL     1      23.370   1.708  51.288  1.00  0.00     0.040 A 
HETATM    6  C7  UNL     1      23.330   0.980  52.457  1.00  0.00     0.142 A 
HETATM    7  N2  UNL     1      22.247   0.203  52.557  1.00  0.00    -0.224 NA
HETATM    8  C14 UNL     1      21.265   0.095  51.653  1.00  0.00     0.236 A 
HETATM    9  N3  UNL     1      21.350   0.826  50.528  1.00  0.00    -0.240 NA
HETATM   10  C15 UNL     1      22.383   1.628  50.332  1.00  0.00     0.084 A 
ENDROOT
BRANCH   6  11
HETATM   11  N1  UNL     1      24.371   1.098  53.411  1.00  0.00    -0.340 N 
HETATM   12  H7  UNL     1      24.149   1.679  54.272  1.00  0.00     0.167 HD
BRANCH  11  13
HETATM   13  C8  UNL     1      25.675   0.549  53.381  1.00  0.00     0.035 A 
HETATM   14  C9  UNL     1      25.912  -0.713  52.850  1.00  0.00     0.032 A 
HETATM   15  C10 UNL     1      27.167  -1.269  52.807  1.00  0.00     0.046 A 
HETATM   16  C11 UNL     1      28.260  -0.589  53.298  1.00  0.00     0.138 A 
HETATM   17  F1  UNL     1      29.491  -1.149  53.250  1.00  0.00    -0.204 F 
HETATM   18  C12 UNL     1      28.074   0.662  53.833  1.00  0.00     0.074 A 
HETATM   19 CL1  UNL     1      29.467   1.522  54.456  1.00  0.00    -0.081 Cl
HETATM   20  C13 UNL     1      26.807   1.176  53.854  1.00  0.00     0.056 A 
ENDBRANCH  11  13
ENDBRANCH   6  11
BRANCH   1  21
HETATM   21  O1  UNL     1      20.848   2.114  47.825  1.00  0.00    -0.367 OA
HETATM   22  C1  UNL     1      19.652   2.854  47.783  1.00  0.00     0.208 C 
ENDBRANCH   1  21
TORSDOF 3
ENDMDL
MODEL 7
REMARK VINA RESULT:      -7.2      5.138      6.380
REMARK  3 active torsions:
REMARK  status: ('A' for Active; 'I' for Inactive)
REMARK    1  A    between atoms: O1_2  and  C2_3 
REMARK    2  A    between atoms: C7_8  and  N1_9 
REMARK    3  A    between atoms: N1_9  and  C8_10 
ROOT
HETATM    1  C2  UNL     1      24.103  -0.773  54.276  1.00  0.00     0.147 C 
HETATM    2  C3  UNL     1      24.167   0.107  53.289  1.00  0.00     0.015 A 
HETATM    3  C4  UNL     1      23.068   0.524  52.426  1.00  0.00     0.017 A 
HETATM    4  C5  UNL     1      23.577   1.411  51.586  1.00  0.00     0.018 A 
HETATM    5  C6  UNL     1      25.018   1.640  51.826  1.00  0.00     0.040 A 
HETATM    6  C7  UNL     1      25.922   2.465  51.195  1.00  0.00     0.142 A 
HETATM    7  N2  UNL     1      27.153   2.390  51.710  1.00  0.00    -0.224 NA
HETATM    8  C14 UNL     1      27.537   1.615  52.732  1.00  0.00     0.236 A 
HETATM    9  N3  UNL     1      26.617   0.828  53.315  1.00  0.00    -0.240 NA
HETATM   10  C15 UNL     1      25.368   0.828  52.881  1.00  0.00     0.084 A 
ENDROOT
BRANCH   6  11
HETATM   11  N1  UNL     1      25.513   3.284  50.113  1.00  0.00    -0.340 N 
HETATM   12  H7  UNL     1      24.683   2.931  49.551  1.00  0.00     0.167 HD
BRANCH  11  13
HETATM   13  C8  UNL     1      26.055   4.514  49.670  1.00  0.00     0.035 A 
HETATM   14  C9  UNL     1      27.192   4.553  48.871  1.00  0.00     0.032 A 
HETATM   15  C10 UNL     1      27.738   5.732  48.428  1.00  0.00     0.046 A 
HETATM   16  C11 UNL     1      27.175   6.944  48.761  1.00  0.00     0.138 A 
HETATM   17  F1  UNL     1      27.725   8.098  48.317  1.00  0.00    -0.204 F 
HETATM   18  C12 UNL     1      26.050   6.955  49.550  1.00  0.00     0.074 A 
HETATM   19 CL1  UNL     1      25.339   8.498  49.972  1.00  0.00    -0.081 Cl
HETATM   20  C13 UNL     1      25.541   5.757  49.968  1.00  0.00     0.056 A 
ENDBRANCH  11  13
ENDBRANCH   6  11
BRANCH   1  21
HETATM   21  O1  UNL     1      25.162  -1.161  55.089  1.00  0.00    -0.367 OA
HETATM   22  C1  UNL     1      25.214  -0.774  56.441  1.00  0.00     0.208 C 
ENDBRANCH   1  21
TORSDOF 3
ENDMDL
MODEL 8
REMARK VINA RESULT:      -7.2      5.636      7.552
REMARK  3 active torsions:
REMARK  status: ('A' for Active; 'I' for Inactive)
REMARK    1  A    between atoms: O1_2  and  C2_3 
REMARK    2  A    between atoms: C7_8  and  N1_9 
REMARK    3  A    between atoms: N1_9  and  C8_10 
ROOT
HETATM    1  C2  UNL     1      27.005   6.837  48.982  1.00  0.00     0.147 C 
HETATM    2  C3  UNL     1      26.488   5.654  49.278  1.00  0.00     0.015 A 
HETATM    3  C4  UNL     1      27.055   4.352  48.948  1.00  0.00     0.017 A 
HETATM    4  C5  UNL     1      26.214   3.452  49.432  1.00  0.00     0.018 A 
HETATM    5  C6  UNL     1      25.056   4.079  50.103  1.00  0.00     0.040 A 
HETATM    6  C7  UNL     1      23.964   3.523  50.733  1.00  0.00     0.142 A 
HETATM    7  N2  UNL     1      23.118   4.435  51.224  1.00  0.00    -0.224 NA
HETATM    8  C14 UNL     1      23.257   5.765  51.146  1.00  0.00     0.236 A 
HETATM    9  N3  UNL     1      24.340   6.257  50.521  1.00  0.00    -0.240 NA
HETATM   10  C15 UNL     1      25.239   5.439  50.000  1.00  0.00     0.084 A 
ENDROOT
BRANCH   6  11
HETATM   11  N1  UNL     1      23.821   2.115  50.814  1.00  0.00    -0.340 N 
HETATM   12  H7  UNL     1      23.447   1.636  49.943  1.00  0.00     0.167 HD
BRANCH  11  13
HETATM   13  C8  UNL     1      24.106   1.251  51.897  1.00  0.00     0.035 A 
HETATM   14  C9  UNL     1      25.415   0.964  52.264  1.00  0.00     0.032 A 
HETATM   15  C10 UNL     1      25.719   0.130  53.312  1.00  0.00     0.046 A 
HETATM   16  C11 UNL     1      24.723  -0.468  54.053  1.00  0.00     0.138 A 
HETATM   17  F1  UNL     1      25.038  -1.289  55.082  1.00  0.00    -0.204 F 
HETATM   18  C12 UNL     1      23.414  -0.215  53.726  1.00  0.00     0.074 A 
HETATM   19 CL1  UNL     1      22.153  -0.978  54.672  1.00  0.00    -0.081 Cl
HETATM   20  C13 UNL     1      23.159   0.623  52.676  1.00  0.00     0.056 A 
ENDBRANCH  11  13
ENDBRANCH   6  11
BRANCH   1  21
HETATM   21  O1  UNL     1      26.450   8.070  49.304  1.00  0.00    -0.367 OA
HETATM   22  C1  UNL     1      27.224   9.245  49.261  1.00  0.00     0.208 C 
ENDBRANCH   1  21
TORSDOF 3
ENDMDL
MODEL 9
REMARK VINA RESULT:      -7.2      1.847      2.797
REMARK  3 active torsions:
REMARK  status: ('A' for Active; 'I' for Inactive)
REMARK    1  A    between atoms: O1_2  and  C2_3 
REMARK    2  A    between atoms: C7_8  and  N1_9 
REMARK    3  A    between atoms: N1_9  and  C8_10 
ROOT
HETATM    1  C2  UNL     1      20.811  -1.643  54.206  1.00  0.00     0.147 C 
HETATM    2  C3  UNL     1      21.968  -1.002  54.137  1.00  0.00     0.015 A 
HETATM    3  C4  UNL     1      23.059  -1.074  55.102  1.00  0.00     0.017 A 
HETATM    4  C5  UNL     1      24.011  -0.281  54.638  1.00  0.00     0.018 A 
HETATM    5  C6  UNL     1      23.628   0.359  53.361  1.00  0.00     0.040 A 
HETATM    6  C7  UNL     1      24.309   1.240  52.550  1.00  0.00     0.142 A 
HETATM    7  N2  UNL     1      23.616   1.597  51.463  1.00  0.00    -0.224 NA
HETATM    8  C14 UNL     1      22.387   1.180  51.136  1.00  0.00     0.236 A 
HETATM    9  N3  UNL     1      21.766   0.320  51.961  1.00  0.00    -0.240 NA
HETATM   10  C15 UNL     1      22.364  -0.096  53.064  1.00  0.00     0.084 A 
ENDROOT
BRANCH   6  11
HETATM   11  N1  UNL     1      25.610   1.680  52.899  1.00  0.00    -0.340 N 
HETATM   12  H7  UNL     1      25.735   2.730  52.998  1.00  0.00     0.167 HD
BRANCH  11  13
HETATM   13  C8  UNL     1      26.776   0.914  53.135  1.00  0.00     0.035 A 
HETATM   14  C9  UNL     1      27.916   1.489  53.682  1.00  0.00     0.032 A 
HETATM   15  C10 UNL     1      29.060   0.768  53.923  1.00  0.00     0.046 A 
HETATM   16  C11 UNL     1      29.127  -0.576  53.626  1.00  0.00     0.138 A 
HETATM   17  F1  UNL     1      30.261  -1.273  53.867  1.00  0.00    -0.204 F 
HETATM   18  C12 UNL     1      28.023  -1.187  53.083  1.00  0.00     0.074 A 
HETATM   19 CL1  UNL     1      28.114  -2.895  52.707  1.00  0.00    -0.081 Cl
HETATM   20  C13 UNL     1      26.907  -0.430  52.861  1.00  0.00     0.056 A 
ENDBRANCH  11  13
ENDBRANCH   6  11
BRANCH   1  21
HETATM   21  O1  UNL     1      19.780  -1.563  53.277  1.00  0.00    -0.367 OA
HETATM   22  C1  UNL     1      18.441  -1.756  53.665  1.00  0.00     0.208 C 
ENDBRANCH   1  21
TORSDOF 3
ENDMDL
