MODEL 1
REMARK VINA RESULT:      -8.3      0.000      0.000
REMARK  6 active torsions:
REMARK  status: ('A' for Active; 'I' for Inactive)
REMARK    1  A    between atoms: C2_2  and  N1_3 
REMARK    2  A    between atoms: N1_3  and  C4_5 
REMARK    3  A    between atoms: C5_6  and  C6_7 
REMARK       I    between atoms: C6_7  and  N2_9 
REMARK    4  A    between atoms: N2_9  and  C7_10 
REMARK    5  A    between atoms: C10_13  and  N3_14 
REMARK    6  A    between atoms: N3_14  and  C11_15 
ROOT
HETATM    1  C7  UNL     1      24.346   3.397  50.016  1.00  0.00     0.131 A 
HETATM    2  C8  UNL     1      24.582   2.665  51.157  1.00  0.00     0.068 A 
HETATM    3  C9  UNL     1      23.766   1.677  51.665  1.00  0.00     0.044 A 
HETATM    4  C10 UNL     1      24.115   0.988  52.834  1.00  0.00     0.142 A 
HETATM    5  N4  UNL     1      23.298   0.016  53.299  1.00  0.00    -0.224 NA
HETATM    6  C17 UNL     1      22.156  -0.245  52.587  1.00  0.00     0.236 A 
HETATM    7  N5  UNL     1      21.801   0.406  51.462  1.00  0.00    -0.240 NA
HETATM    8  C18 UNL     1      22.604   1.372  50.993  1.00  0.00     0.089 A 
HETATM    9  C19 UNL     1      22.373   2.115  49.842  1.00  0.00     0.151 A 
HETATM   10  N6  UNL     1      23.204   3.065  49.400  1.00  0.00    -0.241 NA
ENDROOT
BRANCH   1  11
HETATM   11  N2  UNL     1      25.174   4.394  49.460  1.00  0.00    -0.308 N 
HETATM   12  C6  UNL     1      26.546   4.406  49.149  1.00  0.00     0.248 C 
HETATM   13  O1  UNL     1      27.173   3.317  49.409  1.00  0.00    -0.268 OA
HETATM   14  H11 UNL     1      24.732   5.313  49.216  1.00  0.00     0.170 HD
BRANCH  12  15
HETATM   15  C5  UNL     1      27.261   5.518  48.576  1.00  0.00     0.091 C 
HETATM   16  C4  UNL     1      27.184   6.825  48.682  1.00  0.00     0.090 C 
BRANCH  16  17
HETATM   17  N1  UNL     1      26.413   7.832  49.371  1.00  0.00    -0.394 N 
HETATM   18  C3  UNL     1      26.880   8.864  50.279  1.00  0.00     0.148 C 
BRANCH  17  19
HETATM   19  C2  UNL     1      24.953   7.833  49.139  1.00  0.00     0.117 C 
HETATM   20  C1  UNL     1      24.320   7.781  50.524  1.00  0.00     0.026 C 
ENDBRANCH  17  19
ENDBRANCH  16  17
ENDBRANCH  12  15
ENDBRANCH   1  11
BRANCH   4  21
HETATM   21  N3  UNL     1      25.285   1.305  53.566  1.00  0.00    -0.340 N 
HETATM   22  H13 UNL     1      25.002   2.037  54.293  1.00  0.00     0.167 HD
BRANCH  21  23
HETATM   23  C11 UNL     1      26.635   0.878  53.543  1.00  0.00     0.035 A 
HETATM   24  C12 UNL     1      27.632   1.842  53.697  1.00  0.00     0.032 A 
HETATM   25  C13 UNL     1      28.940   1.421  53.657  1.00  0.00     0.046 A 
HETATM   26  C14 UNL     1      29.314   0.108  53.474  1.00  0.00     0.138 A 
HETATM   27  F1  UNL     1      30.635  -0.111  53.464  1.00  0.00    -0.204 F 
HETATM   28  C15 UNL     1      28.288  -0.800  53.328  1.00  0.00     0.074 A 
HETATM   29 CL1  UNL     1      28.800  -2.469  53.100  1.00  0.00    -0.081 Cl
HETATM   30  C16 UNL     1      26.959  -0.445  53.360  1.00  0.00     0.056 A 
ENDBRANCH  21  23
ENDBRANCH   4  21
TORSDOF 6
ENDMDL
MODEL 2
REMARK VINA RESULT:      -8.3      1.780      2.525
REMARK  6 active torsions:
REMARK  status: ('A' for Active; 'I' for Inactive)
REMARK    1  A    between atoms: C2_2  and  N1_3 
REMARK    2  A    between atoms: N1_3  and  C4_5 
REMARK    3  A    between atoms: C5_6  and  C6_7 
REMARK       I    between atoms: C6_7  and  N2_9 
REMARK    4  A    between atoms: N2_9  and  C7_10 
REMARK    5  A    between atoms: C10_13  and  N3_14 
REMARK    6  A    between atoms: N3_14  and  C11_15 
ROOT
HETATM    1  C7  UNL     1      22.265   2.572  51.246  1.00  0.00     0.131 A 
HETATM    2  C8  UNL     1      23.029   1.602  51.854  1.00  0.00     0.068 A 
HETATM    3  C9  UNL     1      22.623   0.784  52.885  1.00  0.00     0.044 A 
HETATM    4  C10 UNL     1      23.487  -0.180  53.421  1.00  0.00     0.142 A 
HETATM    5  N4  UNL     1      23.053  -0.975  54.425  1.00  0.00    -0.224 NA
HETATM    6  C17 UNL     1      21.770  -0.789  54.869  1.00  0.00     0.236 A 
HETATM    7  N5  UNL     1      20.923   0.131  54.371  1.00  0.00    -0.240 NA
HETATM    8  C18 UNL     1      21.344   0.926  53.374  1.00  0.00     0.089 A 
HETATM    9  C19 UNL     1      20.579   1.907  52.757  1.00  0.00     0.151 A 
HETATM   10  N6  UNL     1      21.031   2.672  51.758  1.00  0.00    -0.241 NA
ENDROOT
BRANCH   1  11
HETATM   11  N2  UNL     1      22.645   3.405  50.174  1.00  0.00    -0.308 N 
HETATM   12  C6  UNL     1      23.341   4.627  50.139  1.00  0.00     0.248 C 
HETATM   13  O1  UNL     1      23.708   5.077  51.283  1.00  0.00    -0.268 OA
HETATM   14  H11 UNL     1      22.384   3.101  49.205  1.00  0.00     0.170 HD
BRANCH  12  15
HETATM   15  C5  UNL     1      23.659   5.371  48.947  1.00  0.00     0.091 C 
HETATM   16  C4  UNL     1      24.654   6.142  48.572  1.00  0.00     0.090 C 
BRANCH  16  17
HETATM   17  N1  UNL     1      25.905   6.656  49.080  1.00  0.00    -0.394 N 
HETATM   18  C3  UNL     1      26.119   7.666  50.100  1.00  0.00     0.148 C 
BRANCH  17  19
HETATM   19  C2  UNL     1      27.144   6.097  48.498  1.00  0.00     0.117 C 
HETATM   20  C1  UNL     1      27.164   4.632  48.914  1.00  0.00     0.026 C 
ENDBRANCH  17  19
ENDBRANCH  16  17
ENDBRANCH  12  15
ENDBRANCH   1  11
BRANCH   4  21
HETATM   21  N3  UNL     1      24.819  -0.324  52.963  1.00  0.00    -0.340 N 
HETATM   22  H13 UNL     1      24.796  -1.051  52.178  1.00  0.00     0.167 HD
BRANCH  21  23
HETATM   23  C11 UNL     1      26.068   0.256  53.294  1.00  0.00     0.035 A 
HETATM   24  C12 UNL     1      26.100   1.618  53.597  1.00  0.00     0.032 A 
HETATM   25  C13 UNL     1      27.319   2.176  53.900  1.00  0.00     0.046 A 
HETATM   26  C14 UNL     1      28.501   1.467  53.920  1.00  0.00     0.138 A 
HETATM   27  F1  UNL     1      29.588   2.182  54.238  1.00  0.00    -0.204 F 
HETATM   28  C15 UNL     1      28.409   0.127  53.613  1.00  0.00     0.074 A 
HETATM   29 CL1  UNL     1      29.934  -0.750  53.650  1.00  0.00    -0.081 Cl
HETATM   30  C16 UNL     1      27.220  -0.493  53.302  1.00  0.00     0.056 A 
ENDBRANCH  21  23
ENDBRANCH   4  21
TORSDOF 6
ENDMDL
MODEL 3
REMARK VINA RESULT:      -8.3      2.264      3.106
REMARK  6 active torsions:
REMARK  status: ('A' for Active; 'I' for Inactive)
REMARK    1  A    between atoms: C2_2  and  N1_3 
REMARK    2  A    between atoms: N1_3  and  C4_5 
REMARK    3  A    between atoms: C5_6  and  C6_7 
REMARK       I    between atoms: C6_7  and  N2_9 
REMARK    4  A    between atoms: N2_9  and  C7_10 
REMARK    5  A    between atoms: C10_13  and  N3_14 
REMARK    6  A    between atoms: N3_14  and  C11_15 
ROOT
HETATM    1  C7  UNL     1      25.220   4.987  49.462  1.00  0.00     0.131 A 
HETATM    2  C8  UNL     1      25.301   4.149  50.550  1.00  0.00     0.068 A 
HETATM    3  C9  UNL     1      24.290   3.339  51.020  1.00  0.00     0.044 A 
HETATM    4  C10 UNL     1      24.491   2.515  52.136  1.00  0.00     0.142 A 
HETATM    5  N4  UNL     1      23.482   1.723  52.565  1.00  0.00    -0.224 NA
HETATM    6  C17 UNL     1      22.301   1.772  51.872  1.00  0.00     0.236 A 
HETATM    7  N5  UNL     1      22.086   2.557  50.798  1.00  0.00    -0.240 NA
HETATM    8  C18 UNL     1      23.080   3.347  50.365  1.00  0.00     0.089 A 
HETATM    9  C19 UNL     1      23.006   4.195  49.268  1.00  0.00     0.151 A 
HETATM   10  N6  UNL     1      24.024   4.961  48.859  1.00  0.00    -0.241 NA
ENDROOT
BRANCH   1  11
HETATM   11  N2  UNL     1      26.244   5.807  48.943  1.00  0.00    -0.308 N 
HETATM   12  C6  UNL     1      27.561   5.519  48.542  1.00  0.00     0.248 C 
HETATM   13  O1  UNL     1      27.910   4.290  48.661  1.00  0.00    -0.268 OA
HETATM   14  H11 UNL     1      26.032   6.825  48.812  1.00  0.00     0.170 HD
BRANCH  12  15
HETATM   15  C5  UNL     1      28.503   6.478  48.024  1.00  0.00     0.091 C 
HETATM   16  C4  UNL     1      29.813   6.573  48.000  1.00  0.00     0.090 C 
BRANCH  16  17
HETATM   17  N1  UNL     1      30.981   5.844  48.435  1.00  0.00    -0.394 N 
HETATM   18  C3  UNL     1      31.783   6.050  49.626  1.00  0.00     0.148 C 
BRANCH  17  19
HETATM   19  C2  UNL     1      31.440   4.738  47.568  1.00  0.00     0.117 C 
HETATM   20  C1  UNL     1      32.902   4.516  47.932  1.00  0.00     0.026 C 
ENDBRANCH  17  19
ENDBRANCH  16  17
ENDBRANCH  12  15
ENDBRANCH   1  11
BRANCH   4  21
HETATM   21  N3  UNL     1      25.712   2.513  52.852  1.00  0.00    -0.340 N 
HETATM   22  H13 UNL     1      25.797   3.474  53.315  1.00  0.00     0.167 HD
BRANCH  21  23
HETATM   23  C11 UNL     1      26.751   1.575  53.072  1.00  0.00     0.035 A 
HETATM   24  C12 UNL     1      27.976   2.049  53.543  1.00  0.00     0.032 A 
HETATM   25  C13 UNL     1      28.983   1.134  53.738  1.00  0.00     0.046 A 
HETATM   26  C14 UNL     1      28.846  -0.216  53.494  1.00  0.00     0.138 A 
HETATM   27  F1  UNL     1      29.937  -0.951  53.743  1.00  0.00    -0.204 F 
HETATM   28  C15 UNL     1      27.616  -0.627  53.031  1.00  0.00     0.074 A 
HETATM   29 CL1  UNL     1      27.474  -2.356  52.733  1.00  0.00    -0.081 Cl
HETATM   30  C16 UNL     1      26.566   0.237  52.816  1.00  0.00     0.056 A 
ENDBRANCH  21  23
ENDBRANCH   4  21
TORSDOF 6
ENDMDL
MODEL 4
REMARK VINA RESULT:      -8.1      3.894      7.350
REMARK  6 active torsions:
REMARK  status: ('A' for Active; 'I' for Inactive)
REMARK    1  A    between atoms: C2_2  and  N1_3 
REMARK    2  A    between atoms: N1_3  and  C4_5 
REMARK    3  A    between atoms: C5_6  and  C6_7 
REMARK       I    between atoms: C6_7  and  N2_9 
REMARK    4  A    between atoms: N2_9  and  C7_10 
REMARK    5  A    between atoms: C10_13  and  N3_14 
REMARK    6  A    between atoms: N3_14  and  C11_15 
ROOT
HETATM    1  C7  UNL     1      23.416  -0.568  53.692  1.00  0.00     0.131 A 
HETATM    2  C8  UNL     1      24.403   0.064  52.970  1.00  0.00     0.068 A 
HETATM    3  C9  UNL     1      25.712   0.228  53.366  1.00  0.00     0.044 A 
HETATM    4  C10 UNL     1      26.636   0.882  52.540  1.00  0.00     0.142 A 
HETATM    5  N4  UNL     1      27.917   1.016  52.954  1.00  0.00    -0.224 NA
HETATM    6  C17 UNL     1      28.243   0.496  54.179  1.00  0.00     0.236 A 
HETATM    7  N5  UNL     1      27.372  -0.135  54.990  1.00  0.00    -0.240 NA
HETATM    8  C18 UNL     1      26.099  -0.272  54.589  1.00  0.00     0.089 A 
HETATM    9  C19 UNL     1      25.097  -0.908  55.312  1.00  0.00     0.151 A 
HETATM   10  N6  UNL     1      23.840  -1.035  54.873  1.00  0.00    -0.241 NA
ENDROOT
BRANCH   1  11
HETATM   11  N2  UNL     1      22.077  -0.773  53.302  1.00  0.00    -0.308 N 
HETATM   12  C6  UNL     1      20.861  -0.339  53.863  1.00  0.00     0.248 C 
HETATM   13  O1  UNL     1      20.975   0.378  54.921  1.00  0.00    -0.268 OA
HETATM   14  H11 UNL     1      21.903  -1.345  52.441  1.00  0.00     0.170 HD
BRANCH  12  15
HETATM   15  C5  UNL     1      19.551  -0.634  53.341  1.00  0.00     0.091 C 
HETATM   16  C4  UNL     1      18.861  -0.247  52.293  1.00  0.00     0.090 C 
BRANCH  16  17
HETATM   17  N1  UNL     1      18.988   0.621  51.146  1.00  0.00    -0.394 N 
HETATM   18  C3  UNL     1      18.100   0.750  50.006  1.00  0.00     0.148 C 
BRANCH  17  19
HETATM   19  C2  UNL     1      20.174   1.504  51.104  1.00  0.00     0.117 C 
HETATM   20  C1  UNL     1      21.181   0.791  50.212  1.00  0.00     0.026 C 
ENDBRANCH  17  19
ENDBRANCH  16  17
ENDBRANCH  12  15
ENDBRANCH   1  11
BRANCH   4  21
HETATM   21  N3  UNL     1      26.259   1.439  51.294  1.00  0.00    -0.340 N 
HETATM   22  H13 UNL     1      26.326   0.651  50.574  1.00  0.00     0.167 HD
BRANCH  21  23
HETATM   23  C11 UNL     1      25.836   2.714  50.846  1.00  0.00     0.035 A 
HETATM   24  C12 UNL     1      26.571   3.333  49.835  1.00  0.00     0.032 A 
HETATM   25  C13 UNL     1      26.162   4.577  49.418  1.00  0.00     0.046 A 
HETATM   26  C14 UNL     1      25.074   5.240  49.943  1.00  0.00     0.138 A 
HETATM   27  F1  UNL     1      24.830   6.444  49.410  1.00  0.00    -0.204 F 
HETATM   28  C15 UNL     1      24.385   4.581  50.938  1.00  0.00     0.074 A 
HETATM   29 CL1  UNL     1      22.999   5.453  51.584  1.00  0.00    -0.081 Cl
HETATM   30  C16 UNL     1      24.741   3.334  51.400  1.00  0.00     0.056 A 
ENDBRANCH  21  23
ENDBRANCH   4  21
TORSDOF 6
ENDMDL
MODEL 5
REMARK VINA RESULT:      -8.1      1.687      2.188
REMARK  6 active torsions:
REMARK  status: ('A' for Active; 'I' for Inactive)
REMARK    1  A    between atoms: C2_2  and  N1_3 
REMARK    2  A    between atoms: N1_3  and  C4_5 
REMARK    3  A    between atoms: C5_6  and  C6_7 
REMARK       I    between atoms: C6_7  and  N2_9 
REMARK    4  A    between atoms: N2_9  and  C7_10 
REMARK    5  A    between atoms: C10_13  and  N3_14 
REMARK    6  A    between atoms: N3_14  and  C11_15 
ROOT
HETATM    1  C7  UNL     1      25.879   3.712  49.608  1.00  0.00     0.131 A 
HETATM    2  C8  UNL     1      25.865   3.070  50.825  1.00  0.00     0.068 A 
HETATM    3  C9  UNL     1      24.781   2.433  51.388  1.00  0.00     0.044 A 
HETATM    4  C10 UNL     1      24.886   1.801  52.634  1.00  0.00     0.142 A 
HETATM    5  N4  UNL     1      23.806   1.175  53.153  1.00  0.00    -0.224 NA
HETATM    6  C17 UNL     1      22.650   1.194  52.417  1.00  0.00     0.236 A 
HETATM    7  N5  UNL     1      22.525   1.796  51.219  1.00  0.00    -0.240 NA
HETATM    8  C18 UNL     1      23.591   2.421  50.696  1.00  0.00     0.089 A 
HETATM    9  C19 UNL     1      23.613   3.071  49.468  1.00  0.00     0.151 A 
HETATM   10  N6  UNL     1      24.700   3.674  48.974  1.00  0.00    -0.241 NA
ENDROOT
BRANCH   1  11
HETATM   11  N2  UNL     1      26.979   4.349  48.996  1.00  0.00    -0.308 N 
HETATM   12  C6  UNL     1      27.278   5.709  48.792  1.00  0.00     0.248 C 
HETATM   13  O1  UNL     1      26.403   6.532  49.242  1.00  0.00    -0.268 OA
HETATM   14  H11 UNL     1      27.739   3.741  48.608  1.00  0.00     0.170 HD
BRANCH  12  15
HETATM   15  C5  UNL     1      28.460   6.213  48.140  1.00  0.00     0.091 C 
HETATM   16  C4  UNL     1      28.969   7.406  47.936  1.00  0.00     0.090 C 
BRANCH  16  17
HETATM   17  N1  UNL     1      28.679   8.793  48.214  1.00  0.00    -0.394 N 
HETATM   18  C3  UNL     1      27.907   9.732  47.421  1.00  0.00     0.148 C 
BRANCH  17  19
HETATM   19  C2  UNL     1      29.232   9.354  49.465  1.00  0.00     0.117 C 
HETATM   20  C1  UNL     1      30.696   9.650  49.167  1.00  0.00     0.026 C 
ENDBRANCH  17  19
ENDBRANCH  16  17
ENDBRANCH  12  15
ENDBRANCH   1  11
BRANCH   4  21
HETATM   21  N3  UNL     1      26.086   1.828  53.385  1.00  0.00    -0.340 N 
HETATM   22  H13 UNL     1      26.045   2.706  53.996  1.00  0.00     0.167 HD
BRANCH  21  23
HETATM   23  C11 UNL     1      27.227   0.996  53.494  1.00  0.00     0.035 A 
HETATM   24  C12 UNL     1      28.423   1.574  53.921  1.00  0.00     0.032 A 
HETATM   25  C13 UNL     1      29.529   0.762  54.008  1.00  0.00     0.046 A 
HETATM   26  C14 UNL     1      29.518  -0.581  53.697  1.00  0.00     0.138 A 
HETATM   27  F1  UNL     1      30.692  -1.208  53.843  1.00  0.00    -0.204 F 
HETATM   28  C15 UNL     1      28.310  -1.097  53.281  1.00  0.00     0.074 A 
HETATM   29 CL1  UNL     1      28.329  -2.814  52.895  1.00  0.00    -0.081 Cl
HETATM   30  C16 UNL     1      27.166  -0.340  53.174  1.00  0.00     0.056 A 
ENDBRANCH  21  23
ENDBRANCH   4  21
TORSDOF 6
ENDMDL
MODEL 6
REMARK VINA RESULT:      -8.0      3.175      6.643
REMARK  6 active torsions:
REMARK  status: ('A' for Active; 'I' for Inactive)
REMARK    1  A    between atoms: C2_2  and  N1_3 
REMARK    2  A    between atoms: N1_3  and  C4_5 
REMARK    3  A    between atoms: C5_6  and  C6_7 
REMARK       I    between atoms: C6_7  and  N2_9 
REMARK    4  A    between atoms: N2_9  and  C7_10 
REMARK    5  A    between atoms: C10_13  and  N3_14 
REMARK    6  A    between atoms: N3_14  and  C11_15 
ROOT
HETATM    1  C7  UNL     1      23.206   0.946  52.315  1.00  0.00     0.131 A 
HETATM    2  C8  UNL     1      23.178   2.067  51.517  1.00  0.00     0.068 A 
HETATM    3  C9  UNL     1      22.271   2.317  50.510  1.00  0.00     0.044 A 
HETATM    4  C10 UNL     1      22.333   3.502  49.766  1.00  0.00     0.142 A 
HETATM    5  N4  UNL     1      21.421   3.723  48.792  1.00  0.00    -0.224 NA
HETATM    6  C17 UNL     1      20.471   2.757  48.586  1.00  0.00     0.236 A 
HETATM    7  N5  UNL     1      20.394   1.609  49.287  1.00  0.00    -0.240 NA
HETATM    8  C18 UNL     1      21.295   1.381  50.255  1.00  0.00     0.089 A 
HETATM    9  C19 UNL     1      21.329   0.253  51.064  1.00  0.00     0.151 A 
HETATM   10  N6  UNL     1      22.238   0.066  52.027  1.00  0.00    -0.241 NA
ENDROOT
BRANCH   1  11
HETATM   11  N2  UNL     1      24.104   0.675  53.368  1.00  0.00    -0.308 N 
HETATM   12  C6  UNL     1      25.402   0.132  53.374  1.00  0.00     0.248 C 
HETATM   13  O1  UNL     1      25.870  -0.174  52.220  1.00  0.00    -0.268 OA
HETATM   14  H11 UNL     1      23.794   0.903  54.343  1.00  0.00     0.170 HD
BRANCH  12  15
HETATM   15  C5  UNL     1      26.207  -0.088  54.549  1.00  0.00     0.091 C 
HETATM   16  C4  UNL     1      27.460   0.139  54.871  1.00  0.00     0.090 C 
BRANCH  16  17
HETATM   17  N1  UNL     1      28.664   0.692  54.298  1.00  0.00    -0.394 N 
HETATM   18  C3  UNL     1      28.935   2.065  53.915  1.00  0.00     0.148 C 
BRANCH  17  19
HETATM   19  C2  UNL     1      29.782  -0.245  54.057  1.00  0.00     0.117 C 
HETATM   20  C1  UNL     1      29.178  -1.412  53.288  1.00  0.00     0.026 C 
ENDBRANCH  17  19
ENDBRANCH  16  17
ENDBRANCH  12  15
ENDBRANCH   1  11
BRANCH   4  21
HETATM   21  N3  UNL     1      23.348   4.466  49.982  1.00  0.00    -0.340 N 
HETATM   22  H13 UNL     1      22.948   5.183  50.668  1.00  0.00     0.167 HD
BRANCH  21  23
HETATM   23  C11 UNL     1      24.675   4.653  49.524  1.00  0.00     0.035 A 
HETATM   24  C12 UNL     1      25.587   3.614  49.709  1.00  0.00     0.032 A 
HETATM   25  C13 UNL     1      26.877   3.810  49.276  1.00  0.00     0.046 A 
HETATM   26  C14 UNL     1      27.312   4.972  48.675  1.00  0.00     0.138 A 
HETATM   27  F1  UNL     1      28.604   4.979  48.321  1.00  0.00    -0.204 F 
HETATM   28  C15 UNL     1      26.369   5.963  48.518  1.00  0.00     0.074 A 
HETATM   29 CL1  UNL     1      26.956   7.432  47.744  1.00  0.00    -0.081 Cl
HETATM   30  C16 UNL     1      25.062   5.830  48.927  1.00  0.00     0.056 A 
ENDBRANCH  21  23
ENDBRANCH   4  21
TORSDOF 6
ENDMDL
MODEL 7
REMARK VINA RESULT:      -8.0      3.026      7.005
REMARK  6 active torsions:
REMARK  status: ('A' for Active; 'I' for Inactive)
REMARK    1  A    between atoms: C2_2  and  N1_3 
REMARK    2  A    between atoms: N1_3  and  C4_5 
REMARK    3  A    between atoms: C5_6  and  C6_7 
REMARK       I    between atoms: C6_7  and  N2_9 
REMARK    4  A    between atoms: N2_9  and  C7_10 
REMARK    5  A    between atoms: C10_13  and  N3_14 
REMARK    6  A    between atoms: N3_14  and  C11_15 
ROOT
HETATM    1  C7  UNL     1      22.101   1.003  51.175  1.00  0.00     0.131 A 
HETATM    2  C8  UNL     1      23.299   1.595  51.505  1.00  0.00     0.068 A 
HETATM    3  C9  UNL     1      23.961   2.544  50.758  1.00  0.00     0.044 A 
HETATM    4  C10 UNL     1      25.174   3.088  51.200  1.00  0.00     0.142 A 
HETATM    5  N4  UNL     1      25.794   4.026  50.449  1.00  0.00    -0.224 NA
HETATM    6  C17 UNL     1      25.188   4.399  49.277  1.00  0.00     0.236 A 
HETATM    7  N5  UNL     1      24.024   3.889  48.832  1.00  0.00    -0.240 NA
HETATM    8  C18 UNL     1      23.402   2.957  49.570  1.00  0.00     0.089 A 
HETATM    9  C19 UNL     1      22.193   2.354  49.244  1.00  0.00     0.151 A 
HETATM   10  N6  UNL     1      21.598   1.435  50.012  1.00  0.00    -0.241 NA
ENDROOT
BRANCH   1  11
HETATM   11  N2  UNL     1      21.388   0.049  51.931  1.00  0.00    -0.308 N 
HETATM   12  C6  UNL     1      20.267   0.171  52.773  1.00  0.00     0.248 C 
HETATM   13  O1  UNL     1      19.793   1.357  52.881  1.00  0.00    -0.268 OA
HETATM   14  H11 UNL     1      21.713  -0.946  51.890  1.00  0.00     0.170 HD
BRANCH  12  15
HETATM   15  C5  UNL     1      19.642  -0.913  53.489  1.00  0.00     0.091 C 
HETATM   16  C4  UNL     1      18.450  -1.465  53.480  1.00  0.00     0.090 C 
BRANCH  16  17
HETATM   17  N1  UNL     1      17.176  -1.330  52.815  1.00  0.00    -0.394 N 
HETATM   18  C3  UNL     1      16.581  -0.141  52.233  1.00  0.00     0.148 C 
BRANCH  17  19
HETATM   19  C2  UNL     1      16.349  -2.550  52.699  1.00  0.00     0.117 C 
HETATM   20  C1  UNL     1      17.090  -3.621  53.488  1.00  0.00     0.026 C 
ENDBRANCH  17  19
ENDBRANCH  16  17
ENDBRANCH  12  15
ENDBRANCH   1  11
BRANCH   4  21
HETATM   21  N3  UNL     1      25.792   2.657  52.399  1.00  0.00    -0.340 N 
HETATM   22  H13 UNL     1      25.383   3.256  53.186  1.00  0.00     0.167 HD
BRANCH  21  23
HETATM   23  C11 UNL     1      26.749   1.671  52.743  1.00  0.00     0.035 A 
HETATM   24  C12 UNL     1      27.954   2.093  53.307  1.00  0.00     0.032 A 
HETATM   25  C13 UNL     1      28.883   1.130  53.622  1.00  0.00     0.046 A 
HETATM   26  C14 UNL     1      28.688  -0.218  53.411  1.00  0.00     0.138 A 
HETATM   27  F1  UNL     1      29.707  -1.004  53.782  1.00  0.00    -0.204 F 
HETATM   28  C15 UNL     1      27.481  -0.576  52.853  1.00  0.00     0.074 A 
HETATM   29 CL1  UNL     1      27.263  -2.305  52.601  1.00  0.00    -0.081 Cl
HETATM   30  C16 UNL     1      26.508   0.337  52.516  1.00  0.00     0.056 A 
ENDBRANCH  21  23
ENDBRANCH   4  21
TORSDOF 6
ENDMDL
MODEL 8
REMARK VINA RESULT:      -7.8      2.379      3.395
REMARK  6 active torsions:
REMARK  status: ('A' for Active; 'I' for Inactive)
REMARK    1  A    between atoms: C2_2  and  N1_3 
REMARK    2  A    between atoms: N1_3  and  C4_5 
REMARK    3  A    between atoms: C5_6  and  C6_7 
REMARK       I    between atoms: C6_7  and  N2_9 
REMARK    4  A    between atoms: N2_9  and  C7_10 
REMARK    5  A    between atoms: C10_13  and  N3_14 
REMARK    6  A    between atoms: N3_14  and  C11_15 
ROOT
HETATM    1  C7  UNL     1      21.598   2.084  51.698  1.00  0.00     0.131 A 
HETATM    2  C8  UNL     1      22.720   1.405  52.115  1.00  0.00     0.068 A 
HETATM    3  C9  UNL     1      22.780   0.518  53.169  1.00  0.00     0.044 A 
HETATM    4  C10 UNL     1      23.981  -0.126  53.497  1.00  0.00     0.142 A 
HETATM    5  N4  UNL     1      24.004  -0.999  54.529  1.00  0.00    -0.224 NA
HETATM    6  C17 UNL     1      22.831  -1.208  55.207  1.00  0.00     0.236 A 
HETATM    7  N5  UNL     1      21.667  -0.599  54.910  1.00  0.00    -0.240 NA
HETATM    8  C18 UNL     1      21.634   0.270  53.888  1.00  0.00     0.089 A 
HETATM    9  C19 UNL     1      20.506   0.959  53.461  1.00  0.00     0.151 A 
HETATM   10  N6  UNL     1      20.510   1.810  52.430  1.00  0.00    -0.241 NA
ENDROOT
BRANCH   1  11
HETATM   11  N2  UNL     1      21.500   2.976  50.610  1.00  0.00    -0.308 N 
HETATM   12  C6  UNL     1      21.439   4.380  50.554  1.00  0.00     0.248 C 
HETATM   13  O1  UNL     1      21.483   4.973  51.691  1.00  0.00    -0.268 OA
HETATM   14  H11 UNL     1      21.464   2.566  49.646  1.00  0.00     0.170 HD
BRANCH  12  15
HETATM   15  C5  UNL     1      21.339   5.162  49.348  1.00  0.00     0.091 C 
HETATM   16  C4  UNL     1      22.118   6.021  48.732  1.00  0.00     0.090 C 
BRANCH  16  17
HETATM   17  N1  UNL     1      23.416   6.637  48.878  1.00  0.00    -0.394 N 
HETATM   18  C3  UNL     1      24.720   6.083  48.562  1.00  0.00     0.148 C 
BRANCH  17  19
HETATM   19  C2  UNL     1      23.447   8.011  49.423  1.00  0.00     0.117 C 
HETATM   20  C1  UNL     1      23.888   7.865  50.873  1.00  0.00     0.026 C 
ENDBRANCH  17  19
ENDBRANCH  16  17
ENDBRANCH  12  15
ENDBRANCH   1  11
BRANCH   4  21
HETATM   21  N3  UNL     1      25.184   0.138  52.798  1.00  0.00    -0.340 N 
HETATM   22  H13 UNL     1      24.904   0.543  51.848  1.00  0.00     0.167 HD
BRANCH  21  23
HETATM   23  C11 UNL     1      26.565  -0.001  53.080  1.00  0.00     0.035 A 
HETATM   24  C12 UNL     1      27.169  -1.231  52.816  1.00  0.00     0.032 A 
HETATM   25  C13 UNL     1      28.506  -1.361  53.109  1.00  0.00     0.046 A 
HETATM   26  C14 UNL     1      29.273  -0.350  53.645  1.00  0.00     0.138 A 
HETATM   27  F1  UNL     1      30.557  -0.664  53.862  1.00  0.00    -0.204 F 
HETATM   28  C15 UNL     1      28.624   0.842  53.884  1.00  0.00     0.074 A 
HETATM   29 CL1  UNL     1      29.633   2.113  54.566  1.00  0.00    -0.081 Cl
HETATM   30  C16 UNL     1      27.289   1.039  53.613  1.00  0.00     0.056 A 
ENDBRANCH  21  23
ENDBRANCH   4  21
TORSDOF 6
ENDMDL
MODEL 9
REMARK VINA RESULT:      -7.8      4.805      8.494
REMARK  6 active torsions:
REMARK  status: ('A' for Active; 'I' for Inactive)
REMARK    1  A    between atoms: C2_2  and  N1_3 
REMARK    2  A    between atoms: N1_3  and  C4_5 
REMARK    3  A    between atoms: C5_6  and  C6_7 
REMARK       I    between atoms: C6_7  and  N2_9 
REMARK    4  A    between atoms: N2_9  and  C7_10 
REMARK    5  A    between atoms: C10_13  and  N3_14 
REMARK    6  A    between atoms: N3_14  and  C11_15 
ROOT
HETATM    1  C7  UNL     1      21.649  -1.261  54.376  1.00  0.00     0.131 A 
HETATM    2  C8  UNL     1      22.458  -0.424  53.642  1.00  0.00     0.068 A 
HETATM    3  C9  UNL     1      23.798  -0.197  53.867  1.00  0.00     0.044 A 
HETATM    4  C10 UNL     1      24.527   0.672  53.044  1.00  0.00     0.142 A 
HETATM    5  N4  UNL     1      25.844   0.865  53.285  1.00  0.00    -0.224 NA
HETATM    6  C17 UNL     1      26.400   0.186  54.337  1.00  0.00     0.236 A 
HETATM    7  N5  UNL     1      25.719  -0.652  55.142  1.00  0.00    -0.240 NA
HETATM    8  C18 UNL     1      24.411  -0.850  54.912  1.00  0.00     0.089 A 
HETATM    9  C19 UNL     1      23.589  -1.692  55.648  1.00  0.00     0.151 A 
HETATM   10  N6  UNL     1      22.291  -1.871  55.381  1.00  0.00    -0.241 NA
ENDROOT
BRANCH   1  11
HETATM   11  N2  UNL     1      20.283  -1.533  54.154  1.00  0.00    -0.308 N 
HETATM   12  C6  UNL     1      19.290  -0.824  53.453  1.00  0.00     0.248 C 
HETATM   13  O1  UNL     1      19.683   0.268  52.907  1.00  0.00    -0.268 OA
HETATM   14  H11 UNL     1      19.889  -2.412  54.566  1.00  0.00     0.170 HD
BRANCH  12  15
HETATM   15  C5  UNL     1      17.916  -1.235  53.312  1.00  0.00     0.091 C 
HETATM   16  C4  UNL     1      16.926  -0.905  52.516  1.00  0.00     0.090 C 
BRANCH  16  17
HETATM   17  N1  UNL     1      16.646  -0.019  51.411  1.00  0.00    -0.394 N 
HETATM   18  C3  UNL     1      16.897  -0.230  49.997  1.00  0.00     0.148 C 
BRANCH  17  19
HETATM   19  C2  UNL     1      16.025   1.283  51.737  1.00  0.00     0.117 C 
HETATM   20  C1  UNL     1      14.838   0.954  52.632  1.00  0.00     0.026 C 
ENDBRANCH  17  19
ENDBRANCH  16  17
ENDBRANCH  12  15
ENDBRANCH   1  11
BRANCH   4  21
HETATM   21  N3  UNL     1      23.916   1.385  51.985  1.00  0.00    -0.340 N 
HETATM   22  H13 UNL     1      24.013   0.777  51.110  1.00  0.00     0.167 HD
BRANCH  21  23
HETATM   23  C11 UNL     1      23.246   2.627  51.858  1.00  0.00     0.035 A 
HETATM   24  C12 UNL     1      23.991   3.795  52.022  1.00  0.00     0.032 A 
HETATM   25  C13 UNL     1      23.330   4.995  51.915  1.00  0.00     0.046 A 
HETATM   26  C14 UNL     1      21.981   5.103  51.656  1.00  0.00     0.138 A 
HETATM   27  F1  UNL     1      21.514   6.357  51.587  1.00  0.00    -0.204 F 
HETATM   28  C15 UNL     1      21.296   3.918  51.503  1.00  0.00     0.074 A 
HETATM   29 CL1  UNL     1      19.576   4.091  51.172  1.00  0.00    -0.081 Cl
HETATM   30  C16 UNL     1      21.897   2.684  51.598  1.00  0.00     0.056 A 
ENDBRANCH  21  23
ENDBRANCH   4  21
TORSDOF 6
ENDMDL
