MODEL 1
REMARK VINA RESULT:     -10.2      0.000      0.000
REMARK  3 active torsions:
REMARK  status: ('A' for Active; 'I' for Inactive)
REMARK    1  A    between atoms: O1_2  and  C2_3 
REMARK    2  A    between atoms: N1_5  and  C4_6 
REMARK    3  A    between atoms: C9_12  and  C10_13 
ROOT
HETATM    1  C2  UNL     1      27.313   5.241  48.732  1.00  0.00     0.069 C 
HETATM    2  C3  UNL     1      26.229   4.652  49.239  1.00  0.00     0.142 C 
HETATM    3  N1  UNL     1      24.967   4.893  49.840  1.00  0.00    -0.184 N 
HETATM    4  C15 UNL     1      24.177   6.069  49.934  1.00  0.00     0.177 C 
HETATM    5  C16 UNL     1      24.753   7.049  50.904  1.00  0.00     0.290 C 
HETATM    6  N6  UNL     1      26.079   7.477  50.659  1.00  0.00     0.093 N 
HETATM    7  C17 UNL     1      26.241   8.298  49.474  1.00  0.00     0.272 C 
HETATM    8  C18 UNL     1      26.565   9.714  49.806  1.00  0.00     0.309 C 
HETATM    9  N7  UNL     1      26.806  10.414  48.539  1.00  0.00     0.087 N 
HETATM   10  C19 UNL     1      25.772  11.358  48.218  1.00  0.00     0.310 C 
HETATM   11  C20 UNL     1      28.133  10.999  48.507  1.00  0.00     0.291 C 
HETATM   12  C21 UNL     1      29.153   9.888  48.586  1.00  0.00     0.147 C 
HETATM   13  N8  UNL     1      28.522   8.596  48.230  1.00  0.00    -0.407 N 
HETATM   14  C22 UNL     1      28.999   7.944  47.008  1.00  0.00     0.143 C 
HETATM   15  C23 UNL     1      27.485   7.700  48.733  1.00  0.00     0.054 C 
HETATM   16  C24 UNL     1      28.077   6.459  48.394  1.00  0.00     0.149 C 
HETATM   17  H16 UNL     1      26.540   7.898  51.468  1.00  0.00     0.316 HD
ENDROOT
BRANCH   3  18
HETATM   18  C4  UNL     1      24.423   3.736  50.463  1.00  0.00     0.745 A 
HETATM   19  N2  UNL     1      23.162   3.298  50.328  1.00  0.00    -0.071 NA
HETATM   20  C5  UNL     1      22.647   2.208  50.908  1.00  0.00     0.168 A 
HETATM   21  C6  UNL     1      23.442   1.434  51.724  1.00  0.00     0.077 A 
HETATM   22  C7  UNL     1      23.302   0.288  52.473  1.00  0.00     0.035 A 
HETATM   23  N4  UNL     1      24.704   1.875  51.857  1.00  0.00    -0.216 N 
HETATM   24  C8  UNL     1      24.538   0.057  53.064  1.00  0.00     0.035 A 
HETATM   25  C9  UNL     1      25.405   1.061  52.669  1.00  0.00     0.071 A 
HETATM   26  N5  UNL     1      25.162   2.958  51.263  1.00  0.00     0.027 NA
BRANCH  25  27
HETATM   27  C10 UNL     1      26.792   1.080  53.139  1.00  0.00     0.010 A 
HETATM   28  C11 UNL     1      27.547  -0.097  53.106  1.00  0.00     0.017 A 
HETATM   29  C12 UNL     1      28.854  -0.068  53.551  1.00  0.00     0.020 A 
HETATM   30  C13 UNL     1      29.428   1.089  54.024  1.00  0.00     0.116 A 
HETATM   31  N3  UNL     1      28.694   2.218  54.053  1.00  0.00    -0.272 NA
HETATM   32  C14 UNL     1      27.412   2.234  53.627  1.00  0.00     0.130 A 
ENDBRANCH  25  27
ENDBRANCH   3  18
BRANCH   1  33
HETATM   33  O1  UNL     1      28.468   4.659  48.175  1.00  0.00    -0.358 OA
HETATM   34  C1  UNL     1      29.757   5.187  48.341  1.00  0.00     0.209 C 
ENDBRANCH   1  33
TORSDOF 3
ENDMDL
MODEL 2
REMARK VINA RESULT:     -10.1      1.534      3.713
REMARK  3 active torsions:
REMARK  status: ('A' for Active; 'I' for Inactive)
REMARK    1  A    between atoms: O1_2  and  C2_3 
REMARK    2  A    between atoms: N1_5  and  C4_6 
REMARK    3  A    between atoms: C9_12  and  C10_13 
ROOT
HETATM    1  C2  UNL     1      27.904   5.187  48.607  1.00  0.00     0.069 C 
HETATM    2  C3  UNL     1      27.120   4.344  49.279  1.00  0.00     0.142 C 
HETATM    3  N1  UNL     1      25.879   4.224  49.957  1.00  0.00    -0.184 N 
HETATM    4  C15 UNL     1      24.730   5.057  49.976  1.00  0.00     0.177 C 
HETATM    5  C16 UNL     1      24.964   6.307  50.760  1.00  0.00     0.290 C 
HETATM    6  N6  UNL     1      26.042   7.123  50.345  1.00  0.00     0.093 N 
HETATM    7  C17 UNL     1      25.855   7.765  49.057  1.00  0.00     0.272 C 
HETATM    8  C18 UNL     1      25.673   9.239  49.180  1.00  0.00     0.309 C 
HETATM    9  N7  UNL     1      25.599   9.784  47.820  1.00  0.00     0.087 N 
HETATM   10  C19 UNL     1      24.286  10.256  47.479  1.00  0.00     0.310 C 
HETATM   11  C20 UNL     1      26.632  10.777  47.595  1.00  0.00     0.291 C 
HETATM   12  C21 UNL     1      27.981  10.108  47.719  1.00  0.00     0.147 C 
HETATM   13  N8  UNL     1      27.832   8.640  47.584  1.00  0.00    -0.407 N 
HETATM   14  C22 UNL     1      28.456   8.019  46.415  1.00  0.00     0.143 C 
HETATM   15  C23 UNL     1      27.198   7.528  48.287  1.00  0.00     0.054 C 
HETATM   16  C24 UNL     1      28.175   6.529  48.052  1.00  0.00     0.149 C 
HETATM   17  H16 UNL     1      26.358   7.791  51.050  1.00  0.00     0.316 HD
ENDROOT
BRANCH   3  18
HETATM   18  C4  UNL     1      25.804   3.056  50.766  1.00  0.00     0.745 A 
HETATM   19  N2  UNL     1      26.854   2.359  51.227  1.00  0.00    -0.071 NA
HETATM   20  C5  UNL     1      26.789   1.263  51.992  1.00  0.00     0.168 A 
HETATM   21  C6  UNL     1      25.559   0.768  52.365  1.00  0.00     0.077 A 
HETATM   22  C7  UNL     1      25.081  -0.285  53.110  1.00  0.00     0.035 A 
HETATM   23  N4  UNL     1      24.510   1.468  51.902  1.00  0.00    -0.216 N 
HETATM   24  C8  UNL     1      23.695  -0.189  53.075  1.00  0.00     0.035 A 
HETATM   25  C9  UNL     1      23.354   0.915  52.313  1.00  0.00     0.071 A 
HETATM   26  N5  UNL     1      24.630   2.543  51.149  1.00  0.00     0.027 NA
BRANCH  25  27
HETATM   27  C10 UNL     1      21.950   1.270  52.099  1.00  0.00     0.010 A 
HETATM   28  C11 UNL     1      21.145   0.453  51.299  1.00  0.00     0.017 A 
HETATM   29  C12 UNL     1      19.822   0.797  51.105  1.00  0.00     0.020 A 
HETATM   30  C13 UNL     1      19.279   1.923  51.678  1.00  0.00     0.116 A 
HETATM   31  N3  UNL     1      20.060   2.706  52.447  1.00  0.00    -0.272 NA
HETATM   32  C14 UNL     1      21.360   2.405  52.663  1.00  0.00     0.130 A 
ENDBRANCH  25  27
ENDBRANCH   3  18
BRANCH   1  33
HETATM   33  O1  UNL     1      29.166   4.962  48.024  1.00  0.00    -0.358 OA
HETATM   34  C1  UNL     1      30.331   5.640  48.413  1.00  0.00     0.209 C 
ENDBRANCH   1  33
TORSDOF 3
ENDMDL
MODEL 3
REMARK VINA RESULT:     -10.0      2.384      3.432
REMARK  3 active torsions:
REMARK  status: ('A' for Active; 'I' for Inactive)
REMARK    1  A    between atoms: O1_2  and  C2_3 
REMARK    2  A    between atoms: N1_5  and  C4_6 
REMARK    3  A    between atoms: C9_12  and  C10_13 
ROOT
HETATM    1  C2  UNL     1      24.797   4.222  50.495  1.00  0.00     0.069 C 
HETATM    2  C3  UNL     1      23.845   3.430  50.990  1.00  0.00     0.142 C 
HETATM    3  N1  UNL     1      22.453   3.330  51.242  1.00  0.00    -0.184 N 
HETATM    4  C15 UNL     1      21.351   4.093  50.773  1.00  0.00     0.177 C 
HETATM    5  C16 UNL     1      21.303   5.445  51.408  1.00  0.00     0.290 C 
HETATM    6  N6  UNL     1      22.449   6.259  51.252  1.00  0.00     0.093 N 
HETATM    7  C17 UNL     1      22.686   6.718  49.896  1.00  0.00     0.272 C 
HETATM    8  C18 UNL     1      22.458   8.183  49.746  1.00  0.00     0.309 C 
HETATM    9  N7  UNL     1      22.827   8.543  48.372  1.00  0.00     0.087 N 
HETATM   10  C19 UNL     1      21.692   8.894  47.564  1.00  0.00     0.310 C 
HETATM   11  C20 UNL     1      23.866   9.555  48.355  1.00  0.00     0.291 C 
HETATM   12  C21 UNL     1      25.107   8.984  49.000  1.00  0.00     0.147 C 
HETATM   13  N8  UNL     1      25.026   7.505  49.031  1.00  0.00    -0.407 N 
HETATM   14  C22 UNL     1      26.005   6.773  48.225  1.00  0.00     0.143 C 
HETATM   15  C23 UNL     1      24.210   6.459  49.641  1.00  0.00     0.054 C 
HETATM   16  C24 UNL     1      25.220   5.494  49.876  1.00  0.00     0.149 C 
HETATM   17  H16 UNL     1      22.510   7.029  51.920  1.00  0.00     0.316 HD
ENDROOT
BRANCH   3  18
HETATM   18  C4  UNL     1      22.130   2.273  52.139  1.00  0.00     0.745 A 
HETATM   19  N2  UNL     1      20.894   1.943  52.542  1.00  0.00    -0.071 NA
HETATM   20  C5  UNL     1      20.584   0.948  53.380  1.00  0.00     0.168 A 
HETATM   21  C6  UNL     1      21.589   0.165  53.904  1.00  0.00     0.077 A 
HETATM   22  C7  UNL     1      21.688  -0.908  54.759  1.00  0.00     0.035 A 
HETATM   23  N4  UNL     1      22.826   0.497  53.498  1.00  0.00    -0.216 N 
HETATM   24  C8  UNL     1      23.042  -1.208  54.852  1.00  0.00     0.035 A 
HETATM   25  C9  UNL     1      23.741  -0.317  54.056  1.00  0.00     0.071 A 
HETATM   26  N5  UNL     1      23.076   1.490  52.669  1.00  0.00     0.027 NA
BRANCH  25  27
HETATM   27  C10 UNL     1      25.200  -0.392  53.955  1.00  0.00     0.010 A 
HETATM   28  C11 UNL     1      25.789  -0.783  52.748  1.00  0.00     0.017 A 
HETATM   29  C12 UNL     1      27.165  -0.850  52.664  1.00  0.00     0.020 A 
HETATM   30  C13 UNL     1      27.968  -0.540  53.737  1.00  0.00     0.116 A 
HETATM   31  N3  UNL     1      27.394  -0.164  54.895  1.00  0.00    -0.272 NA
HETATM   32  C14 UNL     1      26.050  -0.085  55.021  1.00  0.00     0.130 A 
ENDBRANCH  25  27
ENDBRANCH   3  18
BRANCH   1  33
HETATM   33  O1  UNL     1      26.182   3.994  50.388  1.00  0.00    -0.358 OA
HETATM   34  C1  UNL     1      26.816   2.837  50.868  1.00  0.00     0.209 C 
ENDBRANCH   1  33
TORSDOF 3
ENDMDL
MODEL 4
REMARK VINA RESULT:      -9.5      2.674      4.175
REMARK  3 active torsions:
REMARK  status: ('A' for Active; 'I' for Inactive)
REMARK    1  A    between atoms: O1_2  and  C2_3 
REMARK    2  A    between atoms: N1_5  and  C4_6 
REMARK    3  A    between atoms: C9_12  and  C10_13 
ROOT
HETATM    1  C2  UNL     1      21.605   5.140  49.589  1.00  0.00     0.069 C 
HETATM    2  C3  UNL     1      21.836   4.313  50.609  1.00  0.00     0.142 C 
HETATM    3  N1  UNL     1      22.841   3.813  51.476  1.00  0.00    -0.184 N 
HETATM    4  C15 UNL     1      24.160   4.263  51.750  1.00  0.00     0.177 C 
HETATM    5  C16 UNL     1      25.089   3.980  50.614  1.00  0.00     0.290 C 
HETATM    6  N6  UNL     1      24.735   4.520  49.356  1.00  0.00     0.093 N 
HETATM    7  C17 UNL     1      24.809   5.968  49.277  1.00  0.00     0.272 C 
HETATM    8  C18 UNL     1      25.924   6.431  48.403  1.00  0.00     0.309 C 
HETATM    9  N7  UNL     1      25.832   7.893  48.319  1.00  0.00     0.087 N 
HETATM   10  C19 UNL     1      26.900   8.559  49.011  1.00  0.00     0.310 C 
HETATM   11  C20 UNL     1      25.692   8.332  46.943  1.00  0.00     0.291 C 
HETATM   12  C21 UNL     1      24.396   7.786  46.392  1.00  0.00     0.147 C 
HETATM   13  N8  UNL     1      23.504   7.380  47.503  1.00  0.00    -0.407 N 
HETATM   14  C22 UNL     1      22.260   8.136  47.661  1.00  0.00     0.143 C 
HETATM   15  C23 UNL     1      23.471   6.404  48.589  1.00  0.00     0.054 C 
HETATM   16  C24 UNL     1      22.084   6.114  48.588  1.00  0.00     0.149 C 
HETATM   17  H16 UNL     1      25.206   4.081  48.563  1.00  0.00     0.316 HD
ENDROOT
BRANCH   3  18
HETATM   18  C4  UNL     1      22.433   2.644  52.177  1.00  0.00     0.745 A 
HETATM   19  N2  UNL     1      21.164   2.284  52.419  1.00  0.00    -0.071 NA
HETATM   20  C5  UNL     1      20.775   1.184  53.073  1.00  0.00     0.168 A 
HETATM   21  C6  UNL     1      21.724   0.313  53.559  1.00  0.00     0.077 A 
HETATM   22  C7  UNL     1      21.740  -0.876  54.254  1.00  0.00     0.035 A 
HETATM   23  N4  UNL     1      22.994   0.676  53.315  1.00  0.00    -0.216 N 
HETATM   24  C8  UNL     1      23.078  -1.213  54.417  1.00  0.00     0.035 A 
HETATM   25  C9  UNL     1      23.851  -0.229  53.824  1.00  0.00     0.071 A 
HETATM   26  N5  UNL     1      23.324   1.773  52.665  1.00  0.00     0.027 NA
BRANCH  25  27
HETATM   27  C10 UNL     1      25.312  -0.318  53.838  1.00  0.00     0.010 A 
HETATM   28  C11 UNL     1      25.989  -0.760  52.697  1.00  0.00     0.017 A 
HETATM   29  C12 UNL     1      27.366  -0.839  52.722  1.00  0.00     0.020 A 
HETATM   30  C13 UNL     1      28.088  -0.493  53.840  1.00  0.00     0.116 A 
HETATM   31  N3  UNL     1      27.430  -0.067  54.935  1.00  0.00    -0.272 NA
HETATM   32  C14 UNL     1      26.081   0.025  54.954  1.00  0.00     0.130 A 
ENDBRANCH  25  27
ENDBRANCH   3  18
BRANCH   1  33
HETATM   33  O1  UNL     1      20.397   5.420  48.922  1.00  0.00    -0.358 OA
HETATM   34  C1  UNL     1      19.459   6.358  49.380  1.00  0.00     0.209 C 
ENDBRANCH   1  33
TORSDOF 3
ENDMDL
MODEL 5
REMARK VINA RESULT:      -9.3      2.711      5.681
REMARK  3 active torsions:
REMARK  status: ('A' for Active; 'I' for Inactive)
REMARK    1  A    between atoms: O1_2  and  C2_3 
REMARK    2  A    between atoms: N1_5  and  C4_6 
REMARK    3  A    between atoms: C9_12  and  C10_13 
ROOT
HETATM    1  C2  UNL     1      23.948   5.023  51.444  1.00  0.00     0.069 C 
HETATM    2  C3  UNL     1      24.141   3.844  52.034  1.00  0.00     0.142 C 
HETATM    3  N1  UNL     1      25.031   2.743  52.137  1.00  0.00    -0.184 N 
HETATM    4  C15 UNL     1      26.382   2.582  51.732  1.00  0.00     0.177 C 
HETATM    5  C16 UNL     1      26.505   2.461  50.247  1.00  0.00     0.290 C 
HETATM    6  N6  UNL     1      25.982   3.527  49.479  1.00  0.00     0.093 N 
HETATM    7  C17 UNL     1      26.707   4.778  49.606  1.00  0.00     0.272 C 
HETATM    8  C18 UNL     1      27.441   5.136  48.360  1.00  0.00     0.309 C 
HETATM    9  N7  UNL     1      28.043   6.456  48.574  1.00  0.00     0.087 N 
HETATM   10  C19 UNL     1      29.474   6.406  48.686  1.00  0.00     0.310 C 
HETATM   11  C20 UNL     1      27.588   7.408  47.578  1.00  0.00     0.291 C 
HETATM   12  C21 UNL     1      26.095   7.586  47.724  1.00  0.00     0.147 C 
HETATM   13  N8  UNL     1      25.658   7.111  49.058  1.00  0.00    -0.407 N 
HETATM   14  C22 UNL     1      25.123   8.119  49.975  1.00  0.00     0.143 C 
HETATM   15  C23 UNL     1      25.601   5.867  49.821  1.00  0.00     0.054 C 
HETATM   16  C24 UNL     1      24.385   6.084  50.513  1.00  0.00     0.149 C 
HETATM   17  H16 UNL     1      25.813   3.294  48.499  1.00  0.00     0.316 HD
ENDROOT
BRANCH   3  18
HETATM   18  C4  UNL     1      24.433   1.606  52.748  1.00  0.00     0.745 A 
HETATM   19  N2  UNL     1      25.086   0.659  53.437  1.00  0.00    -0.071 NA
HETATM   20  C5  UNL     1      24.528  -0.409  54.019  1.00  0.00     0.168 A 
HETATM   21  C6  UNL     1      23.167  -0.597  53.929  1.00  0.00     0.077 A 
HETATM   22  C7  UNL     1      22.246  -1.521  54.367  1.00  0.00     0.035 A 
HETATM   23  N4  UNL     1      22.516   0.354  53.239  1.00  0.00    -0.216 N 
HETATM   24  C8  UNL     1      21.009  -1.085  53.908  1.00  0.00     0.035 A 
HETATM   25  C9  UNL     1      21.196   0.091  53.203  1.00  0.00     0.071 A 
HETATM   26  N5  UNL     1      23.114   1.388  52.684  1.00  0.00     0.027 NA
BRANCH  25  27
HETATM   27  C10 UNL     1      20.059   0.788  52.598  1.00  0.00     0.010 A 
HETATM   28  C11 UNL     1      19.011   0.046  52.042  1.00  0.00     0.017 A 
HETATM   29  C12 UNL     1      17.944   0.714  51.475  1.00  0.00     0.020 A 
HETATM   30  C13 UNL     1      17.888   2.087  51.445  1.00  0.00     0.116 A 
HETATM   31  N3  UNL     1      18.900   2.795  51.982  1.00  0.00    -0.272 NA
HETATM   32  C14 UNL     1      19.964   2.181  52.547  1.00  0.00     0.130 A 
ENDBRANCH  25  27
ENDBRANCH   3  18
BRANCH   1  33
HETATM   33  O1  UNL     1      22.876   5.926  51.580  1.00  0.00    -0.358 OA
HETATM   34  C1  UNL     1      21.585   5.673  51.092  1.00  0.00     0.209 C 
ENDBRANCH   1  33
TORSDOF 3
ENDMDL
MODEL 6
REMARK VINA RESULT:      -9.2      2.577      4.057
REMARK  3 active torsions:
REMARK  status: ('A' for Active; 'I' for Inactive)
REMARK    1  A    between atoms: O1_2  and  C2_3 
REMARK    2  A    between atoms: N1_5  and  C4_6 
REMARK    3  A    between atoms: C9_12  and  C10_13 
ROOT
HETATM    1  C2  UNL     1      24.868   3.251  50.026  1.00  0.00     0.069 C 
HETATM    2  C3  UNL     1      23.603   2.831  50.030  1.00  0.00     0.142 C 
HETATM    3  N1  UNL     1      22.282   3.163  49.633  1.00  0.00    -0.184 N 
HETATM    4  C15 UNL     1      21.786   4.145  48.735  1.00  0.00     0.177 C 
HETATM    5  C16 UNL     1      21.892   5.522  49.305  1.00  0.00     0.290 C 
HETATM    6  N6  UNL     1      23.183   5.950  49.692  1.00  0.00     0.093 N 
HETATM    7  C17 UNL     1      24.108   6.152  48.592  1.00  0.00     0.272 C 
HETATM    8  C18 UNL     1      24.433   7.591  48.381  1.00  0.00     0.309 C 
HETATM    9  N7  UNL     1      25.446   7.658  47.323  1.00  0.00     0.087 N 
HETATM   10  C19 UNL     1      24.939   8.215  46.100  1.00  0.00     0.310 C 
HETATM   11  C20 UNL     1      26.649   8.322  47.789  1.00  0.00     0.291 C 
HETATM   12  C21 UNL     1      27.249   7.505  48.909  1.00  0.00     0.147 C 
HETATM   13  N8  UNL     1      26.708   6.126  48.875  1.00  0.00    -0.407 N 
HETATM   14  C22 UNL     1      27.658   5.052  48.577  1.00  0.00     0.143 C 
HETATM   15  C23 UNL     1      25.430   5.440  49.039  1.00  0.00     0.054 C 
HETATM   16  C24 UNL     1      25.887   4.264  49.682  1.00  0.00     0.149 C 
HETATM   17  H16 UNL     1      23.187   6.747  50.330  1.00  0.00     0.316 HD
ENDROOT
BRANCH   3  18
HETATM   18  C4  UNL     1      21.296   2.361  50.273  1.00  0.00     0.745 A 
HETATM   19  N2  UNL     1      19.995   2.324  49.953  1.00  0.00    -0.071 NA
HETATM   20  C5  UNL     1      19.065   1.569  50.548  1.00  0.00     0.168 A 
HETATM   21  C6  UNL     1      19.426   0.740  51.586  1.00  0.00     0.077 A 
HETATM   22  C7  UNL     1      18.803  -0.156  52.425  1.00  0.00     0.035 A 
HETATM   23  N4  UNL     1      20.731   0.779  51.904  1.00  0.00    -0.216 N 
HETATM   24  C8  UNL     1      19.792  -0.656  53.263  1.00  0.00     0.035 A 
HETATM   25  C9  UNL     1      20.994  -0.059  52.925  1.00  0.00     0.071 A 
HETATM   26  N5  UNL     1      21.607   1.543  51.285  1.00  0.00     0.027 NA
BRANCH  25  27
HETATM   27  C10 UNL     1      22.224  -0.394  53.645  1.00  0.00     0.010 A 
HETATM   28  C11 UNL     1      22.144  -0.977  54.914  1.00  0.00     0.017 A 
HETATM   29  C12 UNL     1      23.310  -1.290  55.583  1.00  0.00     0.020 A 
HETATM   30  C13 UNL     1      24.545  -1.042  55.032  1.00  0.00     0.116 A 
HETATM   31  N3  UNL     1      24.615  -0.481  53.810  1.00  0.00    -0.272 NA
HETATM   32  C14 UNL     1      23.498  -0.159  53.120  1.00  0.00     0.130 A 
ENDBRANCH  25  27
ENDBRANCH   3  18
BRANCH   1  33
HETATM   33  O1  UNL     1      26.019   2.626  50.544  1.00  0.00    -0.358 OA
HETATM   34  C1  UNL     1      26.197   2.337  51.905  1.00  0.00     0.209 C 
ENDBRANCH   1  33
TORSDOF 3
ENDMDL
MODEL 7
REMARK VINA RESULT:      -9.2      1.343      1.661
REMARK  3 active torsions:
REMARK  status: ('A' for Active; 'I' for Inactive)
REMARK    1  A    between atoms: O1_2  and  C2_3 
REMARK    2  A    between atoms: N1_5  and  C4_6 
REMARK    3  A    between atoms: C9_12  and  C10_13 
ROOT
HETATM    1  C2  UNL     1      28.129   5.514  48.522  1.00  0.00     0.069 C 
HETATM    2  C3  UNL     1      26.851   5.157  48.653  1.00  0.00     0.142 C 
HETATM    3  N1  UNL     1      25.538   5.652  48.857  1.00  0.00    -0.184 N 
HETATM    4  C15 UNL     1      24.997   6.962  48.763  1.00  0.00     0.177 C 
HETATM    5  C16 UNL     1      25.430   7.823  49.905  1.00  0.00     0.290 C 
HETATM    6  N6  UNL     1      26.823   7.978  50.090  1.00  0.00     0.093 N 
HETATM    7  C17 UNL     1      27.492   8.733  49.046  1.00  0.00     0.272 C 
HETATM    8  C18 UNL     1      27.966  10.062  49.525  1.00  0.00     0.309 C 
HETATM    9  N7  UNL     1      28.710  10.682  48.423  1.00  0.00     0.087 N 
HETATM   10  C19 UNL     1      28.024  11.806  47.849  1.00  0.00     0.310 C 
HETATM   11  C20 UNL     1      30.071  10.993  48.817  1.00  0.00     0.291 C 
HETATM   12  C21 UNL     1      30.785   9.705  49.149  1.00  0.00     0.147 C 
HETATM   13  N8  UNL     1      30.056   8.557  48.560  1.00  0.00    -0.407 N 
HETATM   14  C22 UNL     1      30.746   7.805  47.510  1.00  0.00     0.143 C 
HETATM   15  C23 UNL     1      28.763   7.890  48.688  1.00  0.00     0.054 C 
HETATM   16  C24 UNL     1      29.179   6.552  48.485  1.00  0.00     0.149 C 
HETATM   17  H16 UNL     1      27.089   8.312  51.018  1.00  0.00     0.316 HD
ENDROOT
BRANCH   3  18
HETATM   18  C4  UNL     1      24.618   4.634  49.235  1.00  0.00     0.745 A 
HETATM   19  N2  UNL     1      23.391   4.463  48.721  1.00  0.00    -0.071 NA
HETATM   20  C5  UNL     1      22.524   3.505  49.068  1.00  0.00     0.168 A 
HETATM   21  C6  UNL     1      22.877   2.589  50.035  1.00  0.00     0.077 A 
HETATM   22  C7  UNL     1      22.302   1.500  50.649  1.00  0.00     0.035 A 
HETATM   23  N4  UNL     1      24.107   2.763  50.547  1.00  0.00    -0.216 N 
HETATM   24  C8  UNL     1      23.241   1.025  51.556  1.00  0.00     0.035 A 
HETATM   25  C9  UNL     1      24.366   1.828  51.480  1.00  0.00     0.071 A 
HETATM   26  N5  UNL     1      24.922   3.726  50.169  1.00  0.00     0.027 NA
BRANCH  25  27
HETATM   27  C10 UNL     1      25.531   1.564  52.327  1.00  0.00     0.010 A 
HETATM   28  C11 UNL     1      26.398   0.517  52.002  1.00  0.00     0.017 A 
HETATM   29  C12 UNL     1      27.493   0.277  52.808  1.00  0.00     0.020 A 
HETATM   30  C13 UNL     1      27.750   1.044  53.920  1.00  0.00     0.116 A 
HETATM   31  N3  UNL     1      26.911   2.051  54.227  1.00  0.00    -0.272 NA
HETATM   32  C14 UNL     1      25.827   2.320  53.465  1.00  0.00     0.130 A 
ENDBRANCH  25  27
ENDBRANCH   3  18
BRANCH   1  33
HETATM   33  O1  UNL     1      29.265   4.707  48.312  1.00  0.00    -0.358 OA
HETATM   34  C1  UNL     1      30.374   5.115  47.555  1.00  0.00     0.209 C 
ENDBRANCH   1  33
TORSDOF 3
ENDMDL
MODEL 8
REMARK VINA RESULT:      -9.2      3.694      5.290
REMARK  3 active torsions:
REMARK  status: ('A' for Active; 'I' for Inactive)
REMARK    1  A    between atoms: O1_2  and  C2_3 
REMARK    2  A    between atoms: N1_5  and  C4_6 
REMARK    3  A    between atoms: C9_12  and  C10_13 
ROOT
HETATM    1  C2  UNL     1      23.456   4.249  50.380  1.00  0.00     0.069 C 
HETATM    2  C3  UNL     1      23.163   3.050  50.884  1.00  0.00     0.142 C 
HETATM    3  N1  UNL     1      22.414   1.865  50.665  1.00  0.00    -0.184 N 
HETATM    4  C15 UNL     1      21.760   1.363  49.509  1.00  0.00     0.177 C 
HETATM    5  C16 UNL     1      20.515   2.130  49.200  1.00  0.00     0.290 C 
HETATM    6  N6  UNL     1      20.661   3.522  49.003  1.00  0.00     0.093 N 
HETATM    7  C17 UNL     1      21.388   3.891  47.802  1.00  0.00     0.272 C 
HETATM    8  C18 UNL     1      20.509   4.524  46.779  1.00  0.00     0.309 C 
HETATM    9  N7  UNL     1      21.368   4.943  45.666  1.00  0.00     0.087 N 
HETATM   10  C19 UNL     1      21.167   4.159  44.480  1.00  0.00     0.310 C 
HETATM   11  C20 UNL     1      21.256   6.370  45.425  1.00  0.00     0.291 C 
HETATM   12  C21 UNL     1      21.746   7.107  46.649  1.00  0.00     0.147 C 
HETATM   13  N8  UNL     1      22.568   6.204  47.488  1.00  0.00    -0.407 N 
HETATM   14  C22 UNL     1      23.986   6.543  47.626  1.00  0.00     0.143 C 
HETATM   15  C23 UNL     1      22.414   4.980  48.268  1.00  0.00     0.054 C 
HETATM   16  C24 UNL     1      23.301   5.278  49.332  1.00  0.00     0.149 C 
HETATM   17  H16 UNL     1      19.791   4.051  49.087  1.00  0.00     0.316 HD
ENDROOT
BRANCH   3  18
HETATM   18  C4  UNL     1      22.305   1.059  51.832  1.00  0.00     0.745 A 
HETATM   19  N2  UNL     1      21.156   0.669  52.405  1.00  0.00    -0.071 NA
HETATM   20  C5  UNL     1      21.048  -0.094  53.498  1.00  0.00     0.168 A 
HETATM   21  C6  UNL     1      22.188  -0.542  54.128  1.00  0.00     0.077 A 
HETATM   22  C7  UNL     1      22.495  -1.312  55.227  1.00  0.00     0.035 A 
HETATM   23  N4  UNL     1      23.336  -0.151  53.552  1.00  0.00    -0.216 N 
HETATM   24  C8  UNL     1      23.882  -1.367  55.287  1.00  0.00     0.035 A 
HETATM   25  C9  UNL     1      24.394  -0.633  54.231  1.00  0.00     0.071 A 
HETATM   26  N5  UNL     1      23.387   0.603  52.473  1.00  0.00     0.027 NA
BRANCH  25  27
HETATM   27  C10 UNL     1      25.840  -0.511  54.037  1.00  0.00     0.010 A 
HETATM   28  C11 UNL     1      26.599   0.227  54.951  1.00  0.00     0.017 A 
HETATM   29  C12 UNL     1      27.962   0.334  54.759  1.00  0.00     0.020 A 
HETATM   30  C13 UNL     1      28.588  -0.265  53.691  1.00  0.00     0.116 A 
HETATM   31  N3  UNL     1      27.851  -0.974  52.815  1.00  0.00    -0.272 NA
HETATM   32  C14 UNL     1      26.514  -1.105  52.966  1.00  0.00     0.130 A 
ENDBRANCH  25  27
ENDBRANCH   3  18
BRANCH   1  33
HETATM   33  O1  UNL     1      24.302   5.251  50.893  1.00  0.00    -0.358 OA
HETATM   34  C1  UNL     1      23.842   6.503  51.330  1.00  0.00     0.209 C 
ENDBRANCH   1  33
TORSDOF 3
ENDMDL
MODEL 9
REMARK VINA RESULT:      -9.1      1.861      4.194
REMARK  3 active torsions:
REMARK  status: ('A' for Active; 'I' for Inactive)
REMARK    1  A    between atoms: O1_2  and  C2_3 
REMARK    2  A    between atoms: N1_5  and  C4_6 
REMARK    3  A    between atoms: C9_12  and  C10_13 
ROOT
HETATM    1  C2  UNL     1      28.983   5.480  48.146  1.00  0.00     0.069 C 
HETATM    2  C3  UNL     1      27.956   4.841  48.707  1.00  0.00     0.142 C 
HETATM    3  N1  UNL     1      26.623   4.994  49.167  1.00  0.00    -0.184 N 
HETATM    4  C15 UNL     1      25.663   6.019  48.955  1.00  0.00     0.177 C 
HETATM    5  C16 UNL     1      26.000   7.259  49.717  1.00  0.00     0.290 C 
HETATM    6  N6  UNL     1      27.265   7.837  49.461  1.00  0.00     0.093 N 
HETATM    7  C17 UNL     1      27.412   8.409  48.135  1.00  0.00     0.272 C 
HETATM    8  C18 UNL     1      27.494   9.896  48.166  1.00  0.00     0.309 C 
HETATM    9  N7  UNL     1      27.744  10.347  46.793  1.00  0.00     0.087 N 
HETATM   10  C19 UNL     1      26.616  11.022  46.213  1.00  0.00     0.310 C 
HETATM   11  C20 UNL     1      28.969  11.121  46.708  1.00  0.00     0.291 C 
HETATM   12  C21 UNL     1      30.129  10.232  47.089  1.00  0.00     0.147 C 
HETATM   13  N8  UNL     1      29.729   8.808  46.989  1.00  0.00    -0.407 N 
HETATM   14  C22 UNL     1      30.405   8.003  45.970  1.00  0.00     0.143 C 
HETATM   15  C23 UNL     1      28.793   7.880  47.617  1.00  0.00     0.054 C 
HETATM   16  C24 UNL     1      29.588   6.708  47.593  1.00  0.00     0.149 C 
HETATM   17  H16 UNL     1      27.584   8.486  50.182  1.00  0.00     0.316 HD
ENDROOT
BRANCH   3  18
HETATM   18  C4  UNL     1      26.199   3.918  49.997  1.00  0.00     0.745 A 
HETATM   19  N2  UNL     1      26.987   3.217  50.826  1.00  0.00    -0.071 NA
HETATM   20  C5  UNL     1      26.593   2.209  51.612  1.00  0.00     0.168 A 
HETATM   21  C6  UNL     1      25.272   1.819  51.604  1.00  0.00     0.077 A 
HETATM   22  C7  UNL     1      24.497   0.873  52.235  1.00  0.00     0.035 A 
HETATM   23  N4  UNL     1      24.486   2.524  50.774  1.00  0.00    -0.216 N 
HETATM   24  C8  UNL     1      23.207   1.039  51.747  1.00  0.00     0.035 A 
HETATM   25  C9  UNL     1      23.218   2.076  50.831  1.00  0.00     0.071 A 
HETATM   26  N5  UNL     1      24.926   3.510  50.019  1.00  0.00     0.027 NA
BRANCH  25  27
HETATM   27  C10 UNL     1      21.988   2.482  50.147  1.00  0.00     0.010 A 
HETATM   28  C11 UNL     1      21.467   1.677  49.129  1.00  0.00     0.017 A 
HETATM   29  C12 UNL     1      20.307   2.068  48.492  1.00  0.00     0.020 A 
HETATM   30  C13 UNL     1      19.653   3.229  48.835  1.00  0.00     0.116 A 
HETATM   31  N3  UNL     1      20.161   3.999  49.816  1.00  0.00    -0.272 NA
HETATM   32  C14 UNL     1      21.294   3.653  50.466  1.00  0.00     0.130 A 
ENDBRANCH  25  27
ENDBRANCH   3  18
BRANCH   1  33
HETATM   33  O1  UNL     1      30.257   4.991  47.797  1.00  0.00    -0.358 OA
HETATM   34  C1  UNL     1      31.442   5.399  48.428  1.00  0.00     0.209 C 
ENDBRANCH   1  33
TORSDOF 3
ENDMDL
