MODEL 1
REMARK VINA RESULT:      -8.4      0.000      0.000
REMARK  4 active torsions:
REMARK  status: ('A' for Active; 'I' for Inactive)
REMARK    1  A    between atoms: P1_1  and  C1_2 
REMARK    2  A    between atoms: C1_2  and  C2_3 
REMARK    3  A    between atoms: C11_12  and  N1_13 
REMARK    4  A    between atoms: N1_13  and  C12_14 
ROOT
HETATM    1  C2  UNL     1      19.331   1.833  51.462  1.00  0.00     0.102 C 
HETATM    2  C3  UNL     1      18.865   0.635  50.742  1.00  0.00     0.027 C 
HETATM    3  C4  UNL     1      17.588  -0.022  51.099  1.00  0.00     0.007 C 
HETATM    4  C5  UNL     1      17.477  -0.805  52.323  1.00  0.00    -0.005 A 
HETATM    5  C6  UNL     1      17.819  -1.406  53.411  1.00  0.00    -0.000 A 
HETATM    6  C7  UNL     1      19.113  -0.912  53.039  1.00  0.00     0.023 A 
HETATM    7  C8  UNL     1      20.089  -1.303  53.994  1.00  0.00    -0.018 C 
HETATM    8  C9  UNL     1      21.530  -1.290  54.472  1.00  0.00     0.003 C 
HETATM    9  C10 UNL     1      22.797  -0.948  54.428  1.00  0.00     0.071 C 
HETATM   10  C11 UNL     1      23.761  -0.063  53.554  1.00  0.00     0.107 C 
HETATM   11  N2  UNL     1      23.676   0.765  52.422  1.00  0.00    -0.243 NA
HETATM   12  C18 UNL     1      22.222   0.665  52.093  1.00  0.00     0.484 C 
HETATM   13  N3  UNL     1      21.939   1.841  51.547  1.00  0.00    -0.336 NA
HETATM   14  N4  UNL     1      20.689   2.223  51.092  1.00  0.00    -0.343 N 
HETATM   15  H22 UNL     1      21.037   2.913  50.372  1.00  0.00     0.179 HD
ENDROOT
BRANCH  10  16
HETATM   16  N1  UNL     1      24.979  -0.298  54.201  1.00  0.00    -0.344 N 
HETATM   17  H16 UNL     1      24.870  -1.086  54.848  1.00  0.00     0.167 HD
BRANCH  16  18
HETATM   18  C12 UNL     1      26.108   0.510  53.927  1.00  0.00     0.034 A 
HETATM   19  C13 UNL     1      26.457   1.742  53.770  1.00  0.00     0.029 A 
HETATM   20  C14 UNL     1      27.645   2.336  53.560  1.00  0.00     0.004 A 
HETATM   21  C15 UNL     1      28.718   1.504  53.497  1.00  0.00     0.019 A 
HETATM   22  C16 UNL     1      28.566   0.065  53.649  1.00  0.00     0.013 A 
HETATM   23 BR1  UNL     1      30.085  -1.064  53.573  1.00  0.00    -0.051 Br
HETATM   24  C17 UNL     1      27.240  -0.320  53.856  1.00  0.00     0.048 A 
ENDBRANCH  16  18
ENDBRANCH  10  16
BRANCH   1  25
HETATM   25  C1  UNL     1      18.498   3.064  51.108  1.00  0.00     0.055 C 
BRANCH  25  26
HETATM   26  P1  UNL     1      19.299   4.330  50.097  1.00  0.00    -0.139 P 
HETATM   27  H1  UNL     1      19.919   5.341  50.900  1.00  0.00     0.054 HD
HETATM   28  H2  UNL     1      20.180   3.877  49.082  1.00  0.00     0.054 HD
ENDBRANCH  25  26
ENDBRANCH   1  25
TORSDOF 4
ENDMDL
MODEL 2
REMARK VINA RESULT:      -8.0      5.226      7.292
REMARK  4 active torsions:
REMARK  status: ('A' for Active; 'I' for Inactive)
REMARK    1  A    between atoms: P1_1  and  C1_2 
REMARK    2  A    between atoms: C1_2  and  C2_3 
REMARK    3  A    between atoms: C11_12  and  N1_13 
REMARK    4  A    between atoms: N1_13  and  C12_14 
ROOT
HETATM    1  C2  UNL     1      26.483  -0.378  52.882  1.00  0.00     0.102 C 
HETATM    2  C3  UNL     1      25.761  -0.045  54.123  1.00  0.00     0.027 C 
HETATM    3  C4  UNL     1      24.644  -0.887  54.606  1.00  0.00     0.007 C 
HETATM    4  C5  UNL     1      23.351  -0.855  53.933  1.00  0.00    -0.005 A 
HETATM    5  C6  UNL     1      22.420  -0.499  53.117  1.00  0.00    -0.000 A 
HETATM    6  C7  UNL     1      23.422   0.439  52.701  1.00  0.00     0.023 A 
HETATM    7  C8  UNL     1      22.931   1.261  51.651  1.00  0.00    -0.018 C 
HETATM    8  C9  UNL     1      23.157   2.381  50.651  1.00  0.00     0.003 C 
HETATM    9  C10 UNL     1      23.859   3.301  50.032  1.00  0.00     0.071 C 
HETATM   10  C11 UNL     1      25.325   3.873  50.022  1.00  0.00     0.107 C 
HETATM   11  N2  UNL     1      26.542   3.635  50.683  1.00  0.00    -0.243 NA
HETATM   12  C18 UNL     1      26.165   2.514  51.597  1.00  0.00     0.484 C 
HETATM   13  N3  UNL     1      27.287   1.818  51.725  1.00  0.00    -0.336 NA
HETATM   14  N4  UNL     1      27.422   0.665  52.478  1.00  0.00    -0.343 N 
HETATM   15  H22 UNL     1      28.455   0.776  52.670  1.00  0.00     0.179 HD
ENDROOT
BRANCH  10  16
HETATM   16  N1  UNL     1      25.195   4.889  49.068  1.00  0.00    -0.344 N 
HETATM   17  H16 UNL     1      24.632   4.544  48.284  1.00  0.00     0.167 HD
BRANCH  16  18
HETATM   18  C12 UNL     1      25.810   6.148  49.268  1.00  0.00     0.034 A 
HETATM   19  C13 UNL     1      25.735   7.207  50.001  1.00  0.00     0.029 A 
HETATM   20  C14 UNL     1      26.481   8.323  50.076  1.00  0.00     0.004 A 
HETATM   21  C15 UNL     1      27.539   8.383  49.224  1.00  0.00     0.019 A 
HETATM   22  C16 UNL     1      27.826   7.297  48.301  1.00  0.00     0.013 A 
HETATM   23 BR1  UNL     1      29.319   7.405  47.140  1.00  0.00    -0.051 Br
HETATM   24  C17 UNL     1      26.913   6.244  48.403  1.00  0.00     0.048 A 
ENDBRANCH  16  18
ENDBRANCH  10  16
BRANCH   1  25
HETATM   25  C1  UNL     1      27.371  -1.609  53.059  1.00  0.00     0.055 C 
BRANCH  25  26
HETATM   26  P1  UNL     1      29.117  -1.313  53.419  1.00  0.00    -0.139 P 
HETATM   27  H1  UNL     1      29.814  -2.529  53.715  1.00  0.00     0.054 HD
HETATM   28  H2  UNL     1      29.840  -0.528  52.483  1.00  0.00     0.054 HD
ENDBRANCH  25  26
ENDBRANCH   1  25
TORSDOF 4
ENDMDL
MODEL 3
REMARK VINA RESULT:      -8.0      4.677      6.376
REMARK  4 active torsions:
REMARK  status: ('A' for Active; 'I' for Inactive)
REMARK    1  A    between atoms: P1_1  and  C1_2 
REMARK    2  A    between atoms: C1_2  and  C2_3 
REMARK    3  A    between atoms: C11_12  and  N1_13 
REMARK    4  A    between atoms: N1_13  and  C12_14 
ROOT
HETATM    1  C2  UNL     1      22.606   6.770  50.329  1.00  0.00     0.102 C 
HETATM    2  C3  UNL     1      23.638   7.795  50.556  1.00  0.00     0.027 C 
HETATM    3  C4  UNL     1      24.230   8.548  49.427  1.00  0.00     0.007 C 
HETATM    4  C5  UNL     1      25.174   7.902  48.524  1.00  0.00    -0.005 A 
HETATM    5  C6  UNL     1      25.958   7.006  48.031  1.00  0.00    -0.000 A 
HETATM    6  C7  UNL     1      25.526   6.280  49.190  1.00  0.00     0.023 A 
HETATM    7  C8  UNL     1      26.137   4.998  49.231  1.00  0.00    -0.018 C 
HETATM    8  C9  UNL     1      26.319   3.657  49.920  1.00  0.00     0.003 C 
HETATM    9  C10 UNL     1      26.084   2.746  50.836  1.00  0.00     0.071 C 
HETATM   10  C11 UNL     1      25.164   2.536  52.095  1.00  0.00     0.107 C 
HETATM   11  N2  UNL     1      24.172   3.246  52.792  1.00  0.00    -0.243 NA
HETATM   12  C18 UNL     1      24.097   4.506  51.993  1.00  0.00     0.484 C 
HETATM   13  N3  UNL     1      22.834   4.889  52.123  1.00  0.00    -0.336 NA
HETATM   14  N4  UNL     1      22.282   6.015  51.537  1.00  0.00    -0.343 N 
HETATM   15  H22 UNL     1      21.525   6.159  52.259  1.00  0.00     0.179 HD
ENDROOT
BRANCH  10  16
HETATM   16  N1  UNL     1      25.596   1.274  52.517  1.00  0.00    -0.344 N 
HETATM   17  H16 UNL     1      24.835   0.598  52.394  1.00  0.00     0.167 HD
BRANCH  16  18
HETATM   18  C12 UNL     1      26.903   1.095  53.032  1.00  0.00     0.034 A 
HETATM   19  C13 UNL     1      27.860   1.738  53.612  1.00  0.00     0.029 A 
HETATM   20  C14 UNL     1      29.057   1.358  54.092  1.00  0.00     0.004 A 
HETATM   21  C15 UNL     1      29.353   0.038  53.961  1.00  0.00     0.019 A 
HETATM   22  C16 UNL     1      28.420  -0.886  53.337  1.00  0.00     0.013 A 
HETATM   23 BR1  UNL     1      28.857  -2.723  53.187  1.00  0.00    -0.051 Br
HETATM   24  C17 UNL     1      27.243  -0.263  52.914  1.00  0.00     0.048 A 
ENDBRANCH  16  18
ENDBRANCH  10  16
BRANCH   1  25
HETATM   25  C1  UNL     1      21.269   7.394  49.930  1.00  0.00     0.055 C 
BRANCH  25  26
HETATM   26  P1  UNL     1      19.944   6.259  49.460  1.00  0.00    -0.139 P 
HETATM   27  H1  UNL     1      18.858   6.289  50.394  1.00  0.00     0.054 HD
HETATM   28  H2  UNL     1      19.468   6.346  48.127  1.00  0.00     0.054 HD
ENDBRANCH  25  26
ENDBRANCH   1  25
TORSDOF 4
ENDMDL
MODEL 4
REMARK VINA RESULT:      -8.0      4.768      6.148
REMARK  4 active torsions:
REMARK  status: ('A' for Active; 'I' for Inactive)
REMARK    1  A    between atoms: P1_1  and  C1_2 
REMARK    2  A    between atoms: C1_2  and  C2_3 
REMARK    3  A    between atoms: C11_12  and  N1_13 
REMARK    4  A    between atoms: N1_13  and  C12_14 
ROOT
HETATM    1  C2  UNL     1      21.605   2.032  52.087  1.00  0.00     0.102 C 
HETATM    2  C3  UNL     1      21.658   0.592  51.777  1.00  0.00     0.027 C 
HETATM    3  C4  UNL     1      21.718  -0.420  52.855  1.00  0.00     0.007 C 
HETATM    4  C5  UNL     1      22.944  -0.614  53.618  1.00  0.00    -0.005 A 
HETATM    5  C6  UNL     1      24.174  -0.493  53.985  1.00  0.00    -0.000 A 
HETATM    6  C7  UNL     1      24.211   0.395  52.859  1.00  0.00     0.023 A 
HETATM    7  C8  UNL     1      25.511   0.945  52.702  1.00  0.00    -0.018 C 
HETATM    8  C9  UNL     1      26.463   1.859  51.950  1.00  0.00     0.003 C 
HETATM    9  C10 UNL     1      26.795   2.741  51.036  1.00  0.00     0.071 C 
HETATM   10  C11 UNL     1      26.118   3.574  49.885  1.00  0.00     0.107 C 
HETATM   11  N2  UNL     1      24.837   3.741  49.334  1.00  0.00    -0.243 NA
HETATM   12  C18 UNL     1      24.029   2.811  50.181  1.00  0.00     0.484 C 
HETATM   13  N3  UNL     1      22.828   3.373  50.213  1.00  0.00    -0.336 NA
HETATM   14  N4  UNL     1      21.736   2.871  50.899  1.00  0.00    -0.343 N 
HETATM   15  H22 UNL     1      21.002   3.305  50.275  1.00  0.00     0.179 HD
ENDROOT
BRANCH  10  16
HETATM   16  N1  UNL     1      27.231   4.249  49.371  1.00  0.00    -0.344 N 
HETATM   17  H16 UNL     1      28.076   3.702  49.568  1.00  0.00     0.167 HD
BRANCH  16  18
HETATM   18  C12 UNL     1      27.080   5.494  48.717  1.00  0.00     0.034 A 
HETATM   19  C13 UNL     1      26.207   6.415  48.481  1.00  0.00     0.029 A 
HETATM   20  C14 UNL     1      26.277   7.604  47.856  1.00  0.00     0.004 A 
HETATM   21  C15 UNL     1      27.498   7.939  47.362  1.00  0.00     0.019 A 
HETATM   22  C16 UNL     1      28.641   7.052  47.511  1.00  0.00     0.013 A 
HETATM   23 BR1  UNL     1      30.333   7.558  46.824  1.00  0.00    -0.051 Br
HETATM   24  C17 UNL     1      28.327   5.874  48.192  1.00  0.00     0.048 A 
ENDBRANCH  16  18
ENDBRANCH  10  16
BRANCH   1  25
HETATM   25  C1  UNL     1      20.248   2.435  52.660  1.00  0.00     0.055 C 
BRANCH  25  26
HETATM   26  P1  UNL     1      18.875   2.572  51.493  1.00  0.00    -0.139 P 
HETATM   27  H1  UNL     1      19.037   1.694  50.373  1.00  0.00     0.054 HD
HETATM   28  H2  UNL     1      17.565   2.473  52.030  1.00  0.00     0.054 HD
ENDBRANCH  25  26
ENDBRANCH   1  25
TORSDOF 4
ENDMDL
MODEL 5
REMARK VINA RESULT:      -7.8      4.585      7.286
REMARK  4 active torsions:
REMARK  status: ('A' for Active; 'I' for Inactive)
REMARK    1  A    between atoms: P1_1  and  C1_2 
REMARK    2  A    between atoms: C1_2  and  C2_3 
REMARK    3  A    between atoms: C11_12  and  N1_13 
REMARK    4  A    between atoms: N1_13  and  C12_14 
ROOT
HETATM    1  C2  UNL     1      23.324   6.632  50.610  1.00  0.00     0.102 C 
HETATM    2  C3  UNL     1      24.576   7.334  50.944  1.00  0.00     0.027 C 
HETATM    3  C4  UNL     1      25.441   7.901  49.885  1.00  0.00     0.007 C 
HETATM    4  C5  UNL     1      26.244   7.024  49.042  1.00  0.00    -0.005 A 
HETATM    5  C6  UNL     1      26.791   5.950  48.587  1.00  0.00    -0.000 A 
HETATM    6  C7  UNL     1      26.084   5.365  49.689  1.00  0.00     0.023 A 
HETATM    7  C8  UNL     1      26.316   3.964  49.743  1.00  0.00    -0.018 C 
HETATM    8  C9  UNL     1      26.068   2.622  50.408  1.00  0.00     0.003 C 
HETATM    9  C10 UNL     1      25.519   1.807  51.278  1.00  0.00     0.071 C 
HETATM   10  C11 UNL     1      24.476   1.851  52.456  1.00  0.00     0.107 C 
HETATM   11  N2  UNL     1      23.662   2.802  53.092  1.00  0.00    -0.243 NA
HETATM   12  C18 UNL     1      24.000   4.039  52.324  1.00  0.00     0.484 C 
HETATM   13  N3  UNL     1      22.882   4.753  52.365  1.00  0.00    -0.336 NA
HETATM   14  N4  UNL     1      22.710   5.990  51.769  1.00  0.00    -0.343 N 
HETATM   15  H22 UNL     1      21.964   6.332  52.433  1.00  0.00     0.179 HD
ENDROOT
BRANCH  10  16
HETATM   16  N1  UNL     1      24.512   0.516  52.877  1.00  0.00    -0.344 N 
HETATM   17  H16 UNL     1      25.455   0.143  52.731  1.00  0.00     0.167 HD
BRANCH  16  18
HETATM   18  C12 UNL     1      23.349  -0.108  53.389  1.00  0.00     0.034 A 
HETATM   19  C13 UNL     1      22.937  -0.821  54.382  1.00  0.00     0.029 A 
HETATM   20  C14 UNL     1      21.726  -1.290  54.732  1.00  0.00     0.004 A 
HETATM   21  C15 UNL     1      20.704  -0.965  53.895  1.00  0.00     0.019 A 
HETATM   22  C16 UNL     1      20.931  -0.162  52.704  1.00  0.00     0.013 A 
HETATM   23 BR1  UNL     1      19.482   0.287  51.570  1.00  0.00    -0.051 Br
HETATM   24  C17 UNL     1      22.269   0.207  52.548  1.00  0.00     0.048 A 
ENDBRANCH  16  18
ENDBRANCH  10  16
BRANCH   1  25
HETATM   25  C1  UNL     1      22.247   7.600  50.126  1.00  0.00     0.055 C 
BRANCH  25  26
HETATM   26  P1  UNL     1      21.830   7.548  48.368  1.00  0.00    -0.139 P 
HETATM   27  H1  UNL     1      22.225   6.311  47.762  1.00  0.00     0.054 HD
HETATM   28  H2  UNL     1      20.498   7.882  48.015  1.00  0.00     0.054 HD
ENDBRANCH  25  26
ENDBRANCH   1  25
TORSDOF 4
ENDMDL
MODEL 6
REMARK VINA RESULT:      -7.6      5.761      8.651
REMARK  4 active torsions:
REMARK  status: ('A' for Active; 'I' for Inactive)
REMARK    1  A    between atoms: P1_1  and  C1_2 
REMARK    2  A    between atoms: C1_2  and  C2_3 
REMARK    3  A    between atoms: C11_12  and  N1_13 
REMARK    4  A    between atoms: N1_13  and  C12_14 
ROOT
HETATM    1  C2  UNL     1      24.616   8.356  48.891  1.00  0.00     0.102 C 
HETATM    2  C3  UNL     1      25.858   8.924  49.444  1.00  0.00     0.027 C 
HETATM    3  C4  UNL     1      26.958   9.365  48.557  1.00  0.00     0.007 C 
HETATM    4  C5  UNL     1      27.796   8.385  47.878  1.00  0.00    -0.005 A 
HETATM    5  C6  UNL     1      28.290   7.246  47.535  1.00  0.00    -0.000 A 
HETATM    6  C7  UNL     1      27.335   6.770  48.492  1.00  0.00     0.023 A 
HETATM    7  C8  UNL     1      27.394   5.354  48.595  1.00  0.00    -0.018 C 
HETATM    8  C9  UNL     1      26.879   4.064  49.209  1.00  0.00     0.003 C 
HETATM    9  C10 UNL     1      26.094   3.337  49.969  1.00  0.00     0.071 C 
HETATM   10  C11 UNL     1      24.868   3.525  50.937  1.00  0.00     0.107 C 
HETATM   11  N2  UNL     1      24.066   4.576  51.411  1.00  0.00    -0.243 NA
HETATM   12  C18 UNL     1      24.674   5.748  50.711  1.00  0.00     0.484 C 
HETATM   13  N3  UNL     1      23.656   6.582  50.546  1.00  0.00    -0.336 NA
HETATM   14  N4  UNL     1      23.734   7.815  49.922  1.00  0.00    -0.343 N 
HETATM   15  H22 UNL     1      22.924   8.255  50.438  1.00  0.00     0.179 HD
ENDROOT
BRANCH  10  16
HETATM   16  N1  UNL     1      24.676   2.206  51.363  1.00  0.00    -0.344 N 
HETATM   17  H16 UNL     1      25.572   1.821  51.682  1.00  0.00     0.167 HD
BRANCH  16  18
HETATM   18  C12 UNL     1      23.395   1.607  51.298  1.00  0.00     0.034 A 
HETATM   19  C13 UNL     1      22.414   1.402  50.486  1.00  0.00     0.029 A 
HETATM   20  C14 UNL     1      21.254   0.733  50.603  1.00  0.00     0.004 A 
HETATM   21  C15 UNL     1      21.036   0.137  51.806  1.00  0.00     0.019 A 
HETATM   22  C16 UNL     1      22.011   0.231  52.881  1.00  0.00     0.013 A 
HETATM   23 BR1  UNL     1      21.684  -0.626  54.538  1.00  0.00    -0.051 Br
HETATM   24  C17 UNL     1      23.137   0.979  52.527  1.00  0.00     0.048 A 
ENDBRANCH  16  18
ENDBRANCH  10  16
BRANCH   1  25
HETATM   25  C1  UNL     1      23.760   9.426  48.215  1.00  0.00     0.055 C 
BRANCH  25  26
HETATM   26  P1  UNL     1      23.501   9.260  46.434  1.00  0.00    -0.139 P 
HETATM   27  H1  UNL     1      24.627   9.732  45.685  1.00  0.00     0.054 HD
HETATM   28  H2  UNL     1      23.075   7.991  45.964  1.00  0.00     0.054 HD
ENDBRANCH  25  26
ENDBRANCH   1  25
TORSDOF 4
ENDMDL
MODEL 7
REMARK VINA RESULT:      -7.6      6.500      9.230
REMARK  4 active torsions:
REMARK  status: ('A' for Active; 'I' for Inactive)
REMARK    1  A    between atoms: P1_1  and  C1_2 
REMARK    2  A    between atoms: C1_2  and  C2_3 
REMARK    3  A    between atoms: C11_12  and  N1_13 
REMARK    4  A    between atoms: N1_13  and  C12_14 
ROOT
HETATM    1  C2  UNL     1      28.950   7.001  48.319  1.00  0.00     0.102 C 
HETATM    2  C3  UNL     1      28.178   7.683  47.266  1.00  0.00     0.027 C 
HETATM    3  C4  UNL     1      27.976   9.149  47.296  1.00  0.00     0.007 C 
HETATM    4  C5  UNL     1      27.056   9.748  48.256  1.00  0.00    -0.005 A 
HETATM    5  C6  UNL     1      26.165   9.842  49.181  1.00  0.00    -0.000 A 
HETATM    6  C7  UNL     1      26.217   8.411  49.097  1.00  0.00     0.023 A 
HETATM    7  C8  UNL     1      25.311   7.824  50.020  1.00  0.00    -0.018 C 
HETATM    8  C9  UNL     1      24.700   6.582  50.643  1.00  0.00     0.003 C 
HETATM    9  C10 UNL     1      24.556   5.290  50.831  1.00  0.00     0.071 C 
HETATM   10  C11 UNL     1      25.185   3.938  50.328  1.00  0.00     0.107 C 
HETATM   11  N2  UNL     1      26.198   3.523  49.447  1.00  0.00    -0.243 NA
HETATM   12  C18 UNL     1      26.706   4.836  48.944  1.00  0.00     0.484 C 
HETATM   13  N3  UNL     1      27.987   4.605  48.693  1.00  0.00    -0.336 NA
HETATM   14  N4  UNL     1      28.883   5.545  48.216  1.00  0.00    -0.343 N 
HETATM   15  H22 UNL     1      29.529   4.856  47.742  1.00  0.00     0.179 HD
ENDROOT
BRANCH  10  16
HETATM   16  N1  UNL     1      24.395   3.016  51.024  1.00  0.00    -0.344 N 
HETATM   17  H16 UNL     1      23.420   3.331  51.010  1.00  0.00     0.167 HD
BRANCH  16  18
HETATM   18  C12 UNL     1      24.980   1.874  51.623  1.00  0.00     0.034 A 
HETATM   19  C13 UNL     1      26.111   1.269  51.758  1.00  0.00     0.029 A 
HETATM   20  C14 UNL     1      26.486   0.174  52.443  1.00  0.00     0.004 A 
HETATM   21  C15 UNL     1      25.504  -0.444  53.151  1.00  0.00     0.019 A 
HETATM   22  C16 UNL     1      24.141   0.063  53.151  1.00  0.00     0.013 A 
HETATM   23 BR1  UNL     1      22.800  -0.813  54.162  1.00  0.00    -0.051 Br
HETATM   24  C17 UNL     1      23.990   1.209  52.366  1.00  0.00     0.048 A 
ENDBRANCH  16  18
ENDBRANCH  10  16
BRANCH   1  25
HETATM   25  C1  UNL     1      30.445   7.298  48.204  1.00  0.00     0.055 C 
BRANCH  25  26
HETATM   26  P1  UNL     1      31.572   6.153  49.032  1.00  0.00    -0.139 P 
HETATM   27  H1  UNL     1      31.128   4.795  48.924  1.00  0.00     0.054 HD
HETATM   28  H2  UNL     1      32.949   6.263  48.708  1.00  0.00     0.054 HD
ENDBRANCH  25  26
ENDBRANCH   1  25
TORSDOF 4
ENDMDL
MODEL 8
REMARK VINA RESULT:      -7.6      6.092      9.089
REMARK  4 active torsions:
REMARK  status: ('A' for Active; 'I' for Inactive)
REMARK    1  A    between atoms: P1_1  and  C1_2 
REMARK    2  A    between atoms: C1_2  and  C2_3 
REMARK    3  A    between atoms: C11_12  and  N1_13 
REMARK    4  A    between atoms: N1_13  and  C12_14 
ROOT
HETATM    1  C2  UNL     1      26.311   9.152  48.991  1.00  0.00     0.102 C 
HETATM    2  C3  UNL     1      27.614   9.230  49.674  1.00  0.00     0.027 C 
HETATM    3  C4  UNL     1      28.871   9.387  48.909  1.00  0.00     0.007 C 
HETATM    4  C5  UNL     1      29.418   8.268  48.151  1.00  0.00    -0.005 A 
HETATM    5  C6  UNL     1      29.562   7.074  47.689  1.00  0.00    -0.000 A 
HETATM    6  C7  UNL     1      28.424   6.830  48.528  1.00  0.00     0.023 A 
HETATM    7  C8  UNL     1      28.029   5.468  48.449  1.00  0.00    -0.018 C 
HETATM    8  C9  UNL     1      27.086   4.353  48.865  1.00  0.00     0.003 C 
HETATM    9  C10 UNL     1      26.049   3.839  49.484  1.00  0.00     0.071 C 
HETATM   10  C11 UNL     1      24.862   4.305  50.405  1.00  0.00     0.107 C 
HETATM   11  N2  UNL     1      24.388   5.501  50.970  1.00  0.00    -0.243 NA
HETATM   12  C18 UNL     1      25.391   6.485  50.459  1.00  0.00     0.484 C 
HETATM   13  N3  UNL     1      24.702   7.613  50.351  1.00  0.00    -0.336 NA
HETATM   14  N4  UNL     1      25.217   8.815  49.897  1.00  0.00    -0.343 N 
HETATM   15  H22 UNL     1      24.542   9.433  50.424  1.00  0.00     0.179 HD
ENDROOT
BRANCH  10  16
HETATM   16  N1  UNL     1      24.231   3.080  50.647  1.00  0.00    -0.344 N 
HETATM   17  H16 UNL     1      23.428   2.984  50.017  1.00  0.00     0.167 HD
BRANCH  16  18
HETATM   18  C12 UNL     1      24.716   2.205  51.649  1.00  0.00     0.034 A 
HETATM   19  C13 UNL     1      25.749   1.990  52.391  1.00  0.00     0.029 A 
HETATM   20  C14 UNL     1      26.006   1.099  53.365  1.00  0.00     0.004 A 
HETATM   21  C15 UNL     1      24.997   0.235  53.655  1.00  0.00     0.019 A 
HETATM   22  C16 UNL     1      23.729   0.291  52.944  1.00  0.00     0.013 A 
HETATM   23 BR1  UNL     1      22.338  -0.916  53.387  1.00  0.00    -0.051 Br
HETATM   24  C17 UNL     1      23.696   1.297  51.975  1.00  0.00     0.048 A 
ENDBRANCH  16  18
ENDBRANCH  10  16
BRANCH   1  25
HETATM   25  C1  UNL     1      25.895  10.505  48.415  1.00  0.00     0.055 C 
BRANCH  25  26
HETATM   26  P1  UNL     1      24.427  10.528  47.362  1.00  0.00    -0.139 P 
HETATM   27  H1  UNL     1      23.218  10.510  48.131  1.00  0.00     0.054 HD
HETATM   28  H2  UNL     1      24.374  11.530  46.358  1.00  0.00     0.054 HD
ENDBRANCH  25  26
ENDBRANCH   1  25
TORSDOF 4
ENDMDL
MODEL 9
REMARK VINA RESULT:      -7.5      6.817     10.010
REMARK  4 active torsions:
REMARK  status: ('A' for Active; 'I' for Inactive)
REMARK    1  A    between atoms: P1_1  and  C1_2 
REMARK    2  A    between atoms: C1_2  and  C2_3 
REMARK    3  A    between atoms: C11_12  and  N1_13 
REMARK    4  A    between atoms: N1_13  and  C12_14 
ROOT
HETATM    1  C2  UNL     1      27.780   9.466  48.520  1.00  0.00     0.102 C 
HETATM    2  C3  UNL     1      29.006   9.129  49.264  1.00  0.00     0.027 C 
HETATM    3  C4  UNL     1      30.238   8.712  48.557  1.00  0.00     0.007 C 
HETATM    4  C5  UNL     1      30.330   7.390  47.952  1.00  0.00    -0.005 A 
HETATM    5  C6  UNL     1      30.016   6.184  47.624  1.00  0.00    -0.000 A 
HETATM    6  C7  UNL     1      28.861   6.484  48.419  1.00  0.00     0.023 A 
HETATM    7  C8  UNL     1      27.980   5.370  48.460  1.00  0.00    -0.018 C 
HETATM    8  C9  UNL     1      26.680   4.747  48.936  1.00  0.00     0.003 C 
HETATM    9  C10 UNL     1      25.517   4.736  49.545  1.00  0.00     0.071 C 
HETATM   10  C11 UNL     1      24.584   5.718  50.346  1.00  0.00     0.107 C 
HETATM   11  N2  UNL     1      24.592   7.061  50.756  1.00  0.00    -0.243 NA
HETATM   12  C18 UNL     1      25.899   7.530  50.203  1.00  0.00     0.484 C 
HETATM   13  N3  UNL     1      25.691   8.813  49.941  1.00  0.00    -0.336 NA
HETATM   14  N4  UNL     1      26.628   9.673  49.394  1.00  0.00    -0.343 N 
HETATM   15  H22 UNL     1      26.231  10.556  49.816  1.00  0.00     0.179 HD
ENDROOT
BRANCH  10  16
HETATM   16  N1  UNL     1      23.533   4.856  50.678  1.00  0.00    -0.344 N 
HETATM   17  H16 UNL     1      22.667   5.199  50.248  1.00  0.00     0.167 HD
BRANCH  16  18
HETATM   18  C12 UNL     1      23.759   3.728  51.502  1.00  0.00     0.034 A 
HETATM   19  C13 UNL     1      24.518   3.307  52.457  1.00  0.00     0.029 A 
HETATM   20  C14 UNL     1      24.539   2.171  53.175  1.00  0.00     0.004 A 
HETATM   21  C15 UNL     1      23.582   1.257  52.863  1.00  0.00     0.019 A 
HETATM   22  C16 UNL     1      22.608   1.515  51.814  1.00  0.00     0.013 A 
HETATM   23 BR1  UNL     1      21.277   0.227  51.415  1.00  0.00    -0.051 Br
HETATM   24  C17 UNL     1      22.785   2.760  51.206  1.00  0.00     0.048 A 
ENDBRANCH  16  18
ENDBRANCH  10  16
BRANCH   1  25
HETATM   25  C1  UNL     1      27.914  10.799  47.786  1.00  0.00     0.055 C 
BRANCH  25  26
HETATM   26  P1  UNL     1      28.633  12.174  48.712  1.00  0.00    -0.139 P 
HETATM   27  H1  UNL     1      27.833  13.358  48.616  1.00  0.00     0.054 HD
HETATM   28  H2  UNL     1      29.001  11.918  50.058  1.00  0.00     0.054 HD
ENDBRANCH  25  26
ENDBRANCH   1  25
TORSDOF 4
ENDMDL
