MODEL 1
REMARK VINA RESULT:      -7.5      0.000      0.000
REMARK  7 active torsions:
REMARK  status: ('A' for Active; 'I' for Inactive)
REMARK    1  A    between atoms: C2_3  and  C5_8 
REMARK    2  A    between atoms: C3_4  and  N2_5 
REMARK    3  A    between atoms: C5_8  and  N3_9 
REMARK    4  A    between atoms: N3_9  and  C6_10 
REMARK    5  A    between atoms: C9_13  and  O1_14 
REMARK    6  A    between atoms: O1_14  and  C10_15 
REMARK    7  A    between atoms: C10_15  and  C11_16 
ROOT
HETATM    1  N1  UNL     1      26.716   3.252  50.374  1.00  0.00    -0.192 NA
HETATM    2  C1  UNL     1      26.720   2.709  51.396  1.00  0.00     0.098 C 
HETATM    3  C2  UNL     1      26.744   2.022  52.653  1.00  0.00     0.057 C 
HETATM    4  C3  UNL     1      27.894   2.031  53.348  1.00  0.00     0.131 C 
ENDROOT
BRANCH   3   5
HETATM    5  C5  UNL     1      25.580   1.323  53.201  1.00  0.00     0.171 C 
BRANCH   5   6
HETATM    6  N3  UNL     1      24.624   0.918  52.210  1.00  0.00    -0.385 N 
HETATM    7  H5  UNL     1      24.957   0.864  51.222  1.00  0.00     0.160 HD
BRANCH   6   8
HETATM    8  C6  UNL     1      23.277   0.598  52.540  1.00  0.00     0.029 A 
HETATM    9  C7  UNL     1      22.267   1.417  52.046  1.00  0.00     0.032 A 
HETATM   10  C8  UNL     1      20.970   1.039  52.412  1.00  0.00     0.041 A 
HETATM   11  C9  UNL     1      20.669  -0.061  53.202  1.00  0.00     0.091 A 
HETATM   12  C16 UNL     1      21.717  -0.828  53.657  1.00  0.00     0.069 A 
HETATM   13 CL1  UNL     1      21.388  -2.227  54.658  1.00  0.00    -0.081 Cl
HETATM   14  C17 UNL     1      23.015  -0.503  53.328  1.00  0.00     0.056 A 
BRANCH  11  15
HETATM   15  O1  UNL     1      19.358  -0.359  53.513  1.00  0.00    -0.345 OA
BRANCH  15  16
HETATM   16  C10 UNL     1      18.307  -0.346  52.568  1.00  0.00     0.215 C 
BRANCH  16  17
HETATM   17  C11 UNL     1      17.460  -1.550  52.748  1.00  0.00    -0.017 A 
HETATM   18  C12 UNL     1      17.916  -2.631  53.502  1.00  0.00     0.012 A 
HETATM   19  C13 UNL     1      17.189  -3.794  53.720  1.00  0.00     0.020 A 
HETATM   20  C14 UNL     1      15.925  -3.852  53.133  1.00  0.00     0.116 A 
HETATM   21  N4  UNL     1      15.462  -2.812  52.396  1.00  0.00    -0.272 NA
HETATM   22  C15 UNL     1      16.198  -1.699  52.206  1.00  0.00     0.125 A 
ENDBRANCH  16  17
ENDBRANCH  15  16
ENDBRANCH  11  15
ENDBRANCH   6   8
ENDBRANCH   5   6
ENDBRANCH   3   5
BRANCH   4  23
HETATM   23  N2  UNL     1      27.982   1.368  54.601  1.00  0.00    -0.281 NA
HETATM   24  C4  UNL     1      28.671   0.307  54.816  1.00  0.00     0.322 C 
HETATM   25 BR1  UNL     1      29.754  -0.694  53.625  1.00  0.00    -0.172 Br
ENDBRANCH   4  23
TORSDOF 7
ENDMDL
MODEL 2
REMARK VINA RESULT:      -7.1      1.760      2.441
REMARK  7 active torsions:
REMARK  status: ('A' for Active; 'I' for Inactive)
REMARK    1  A    between atoms: C2_3  and  C5_8 
REMARK    2  A    between atoms: C3_4  and  N2_5 
REMARK    3  A    between atoms: C5_8  and  N3_9 
REMARK    4  A    between atoms: N3_9  and  C6_10 
REMARK    5  A    between atoms: C9_13  and  O1_14 
REMARK    6  A    between atoms: O1_14  and  C10_15 
REMARK    7  A    between atoms: C10_15  and  C11_16 
ROOT
HETATM    1  N1  UNL     1      26.295   3.044  50.707  1.00  0.00    -0.192 NA
HETATM    2  C1  UNL     1      26.406   2.292  51.578  1.00  0.00     0.098 C 
HETATM    3  C2  UNL     1      26.567   1.358  52.653  1.00  0.00     0.057 C 
HETATM    4  C3  UNL     1      27.422   1.681  53.639  1.00  0.00     0.131 C 
ENDROOT
BRANCH   3   5
HETATM    5  C5  UNL     1      25.846   0.085  52.718  1.00  0.00     0.171 C 
BRANCH   5   6
HETATM    6  N3  UNL     1      25.039  -0.069  53.895  1.00  0.00    -0.385 N 
HETATM    7  H5  UNL     1      25.541  -0.181  54.804  1.00  0.00     0.160 HD
BRANCH   6   8
HETATM    8  C6  UNL     1      23.617  -0.068  53.846  1.00  0.00     0.029 A 
HETATM    9  C7  UNL     1      22.931  -0.972  54.649  1.00  0.00     0.032 A 
HETATM   10  C8  UNL     1      21.536  -0.911  54.548  1.00  0.00     0.041 A 
HETATM   11  C9  UNL     1      20.850  -0.030  53.723  1.00  0.00     0.091 A 
HETATM   12  C16 UNL     1      21.592   0.838  52.955  1.00  0.00     0.069 A 
HETATM   13 CL1  UNL     1      20.770   1.968  51.898  1.00  0.00    -0.081 Cl
HETATM   14  C17 UNL     1      22.968   0.822  53.015  1.00  0.00     0.056 A 
BRANCH  11  15
HETATM   15  O1  UNL     1      19.471  -0.040  53.687  1.00  0.00    -0.345 OA
BRANCH  15  16
HETATM   16  C10 UNL     1      18.707  -1.120  53.185  1.00  0.00     0.215 C 
BRANCH  16  17
HETATM   17  C11 UNL     1      17.676  -0.609  52.249  1.00  0.00    -0.017 A 
HETATM   18  C12 UNL     1      18.023  -0.224  50.955  1.00  0.00     0.012 A 
HETATM   19  C13 UNL     1      17.122   0.264  50.017  1.00  0.00     0.020 A 
HETATM   20  C14 UNL     1      15.794   0.362  50.429  1.00  0.00     0.116 A 
HETATM   21  N4  UNL     1      15.435  -0.007  51.683  1.00  0.00    -0.272 NA
HETATM   22  C15 UNL     1      16.339  -0.476  52.567  1.00  0.00     0.125 A 
ENDBRANCH  16  17
ENDBRANCH  15  16
ENDBRANCH  11  15
ENDBRANCH   6   8
ENDBRANCH   5   6
ENDBRANCH   3   5
BRANCH   4  23
HETATM   23  N2  UNL     1      27.626   0.798  54.731  1.00  0.00    -0.281 NA
HETATM   24  C4  UNL     1      28.561  -0.079  54.793  1.00  0.00     0.322 C 
HETATM   25 BR1  UNL     1      29.920  -0.489  53.537  1.00  0.00    -0.172 Br
ENDBRANCH   4  23
TORSDOF 7
ENDMDL
MODEL 3
REMARK VINA RESULT:      -6.8      2.932      3.874
REMARK  7 active torsions:
REMARK  status: ('A' for Active; 'I' for Inactive)
REMARK    1  A    between atoms: C2_3  and  C5_8 
REMARK    2  A    between atoms: C3_4  and  N2_5 
REMARK    3  A    between atoms: C5_8  and  N3_9 
REMARK    4  A    between atoms: N3_9  and  C6_10 
REMARK    5  A    between atoms: C9_13  and  O1_14 
REMARK    6  A    between atoms: O1_14  and  C10_15 
REMARK    7  A    between atoms: C10_15  and  C11_16 
ROOT
HETATM    1  N1  UNL     1      26.780   3.132  50.182  1.00  0.00    -0.192 NA
HETATM    2  C1  UNL     1      26.779   2.717  51.262  1.00  0.00     0.098 C 
HETATM    3  C2  UNL     1      26.784   2.182  52.592  1.00  0.00     0.057 C 
HETATM    4  C3  UNL     1      27.942   1.682  53.058  1.00  0.00     0.131 C 
ENDROOT
BRANCH   3   5
HETATM    5  C5  UNL     1      25.596   2.159  53.447  1.00  0.00     0.171 C 
BRANCH   5   6
HETATM    6  N3  UNL     1      24.928   0.889  53.483  1.00  0.00    -0.385 N 
HETATM    7  H5  UNL     1      25.427   0.103  53.955  1.00  0.00     0.160 HD
BRANCH   6   8
HETATM    8  C6  UNL     1      23.642   0.691  52.907  1.00  0.00     0.029 A 
HETATM    9  C7  UNL     1      22.707  -0.048  53.625  1.00  0.00     0.032 A 
HETATM   10  C8  UNL     1      21.466  -0.200  52.995  1.00  0.00     0.041 A 
HETATM   11  C9  UNL     1      21.150   0.331  51.753  1.00  0.00     0.091 A 
HETATM   12  C16 UNL     1      22.122   1.052  51.098  1.00  0.00     0.069 A 
HETATM   13 CL1  UNL     1      21.769   1.740  49.526  1.00  0.00    -0.081 Cl
HETATM   14  C17 UNL     1      23.362   1.233  51.670  1.00  0.00     0.056 A 
BRANCH  11  15
HETATM   15  O1  UNL     1      19.898   0.131  51.208  1.00  0.00    -0.345 OA
BRANCH  15  16
HETATM   16  C10 UNL     1      18.708   0.652  51.766  1.00  0.00     0.215 C 
BRANCH  16  17
HETATM   17  C11 UNL     1      18.291   1.860  51.013  1.00  0.00    -0.017 A 
HETATM   18  C12 UNL     1      17.623   1.740  49.795  1.00  0.00     0.012 A 
HETATM   19  C13 UNL     1      17.198   2.817  49.027  1.00  0.00     0.020 A 
HETATM   20  C14 UNL     1      17.474   4.086  49.537  1.00  0.00     0.116 A 
HETATM   21  N4  UNL     1      18.122   4.225  50.720  1.00  0.00    -0.272 NA
HETATM   22  C15 UNL     1      18.520   3.154  51.436  1.00  0.00     0.125 A 
ENDBRANCH  16  17
ENDBRANCH  15  16
ENDBRANCH  11  15
ENDBRANCH   6   8
ENDBRANCH   5   6
ENDBRANCH   3   5
BRANCH   4  23
HETATM   23  N2  UNL     1      28.012   1.137  54.367  1.00  0.00    -0.281 NA
HETATM   24  C4  UNL     1      28.671   0.081  54.681  1.00  0.00     0.322 C 
HETATM   25 BR1  UNL     1      29.721  -1.058  53.589  1.00  0.00    -0.172 Br
ENDBRANCH   4  23
TORSDOF 7
ENDMDL
MODEL 4
REMARK VINA RESULT:      -6.7      2.114      3.224
REMARK  7 active torsions:
REMARK  status: ('A' for Active; 'I' for Inactive)
REMARK    1  A    between atoms: C2_3  and  C5_8 
REMARK    2  A    between atoms: C3_4  and  N2_5 
REMARK    3  A    between atoms: C5_8  and  N3_9 
REMARK    4  A    between atoms: N3_9  and  C6_10 
REMARK    5  A    between atoms: C9_13  and  O1_14 
REMARK    6  A    between atoms: O1_14  and  C10_15 
REMARK    7  A    between atoms: C10_15  and  C11_16 
ROOT
HETATM    1  N1  UNL     1      28.972   1.972  54.198  1.00  0.00    -0.192 NA
HETATM    2  C1  UNL     1      27.981   2.034  53.604  1.00  0.00     0.098 C 
HETATM    3  C2  UNL     1      26.759   2.134  52.861  1.00  0.00     0.057 C 
HETATM    4  C3  UNL     1      26.848   2.384  51.544  1.00  0.00     0.131 C 
ENDROOT
BRANCH   3   5
HETATM    5  C5  UNL     1      25.439   1.976  53.475  1.00  0.00     0.171 C 
BRANCH   5   6
HETATM    6  N3  UNL     1      24.907   0.646  53.377  1.00  0.00    -0.385 N 
HETATM    7  H5  UNL     1      25.592  -0.131  53.247  1.00  0.00     0.160 HD
BRANCH   6   8
HETATM    8  C6  UNL     1      23.511   0.378  53.455  1.00  0.00     0.029 A 
HETATM    9  C7  UNL     1      23.097  -0.756  54.145  1.00  0.00     0.032 A 
HETATM   10  C8  UNL     1      21.711  -0.952  54.179  1.00  0.00     0.041 A 
HETATM   11  C9  UNL     1      20.787  -0.104  53.585  1.00  0.00     0.091 A 
HETATM   12  C16 UNL     1      21.266   1.000  52.918  1.00  0.00     0.069 A 
HETATM   13 CL1  UNL     1      20.138   2.099  52.152  1.00  0.00    -0.081 Cl
HETATM   14  C17 UNL     1      22.621   1.243  52.853  1.00  0.00     0.056 A 
BRANCH  11  15
HETATM   15  O1  UNL     1      19.437  -0.376  53.669  1.00  0.00    -0.345 OA
BRANCH  15  16
HETATM   16  C10 UNL     1      18.896  -1.682  53.618  1.00  0.00     0.215 C 
BRANCH  16  17
HETATM   17  C11 UNL     1      17.596  -1.655  52.904  1.00  0.00    -0.017 A 
HETATM   18  C12 UNL     1      17.258  -0.577  52.087  1.00  0.00     0.012 A 
HETATM   19  C13 UNL     1      16.065  -0.473  51.384  1.00  0.00     0.020 A 
HETATM   20  C14 UNL     1      15.169  -1.532  51.527  1.00  0.00     0.116 A 
HETATM   21  N4  UNL     1      15.477  -2.590  52.317  1.00  0.00    -0.272 NA
HETATM   22  C15 UNL     1      16.647  -2.655  52.985  1.00  0.00     0.125 A 
ENDBRANCH  16  17
ENDBRANCH  15  16
ENDBRANCH  11  15
ENDBRANCH   6   8
ENDBRANCH   5   6
ENDBRANCH   3   5
BRANCH   4  23
HETATM   23  N2  UNL     1      25.674   2.495  50.753  1.00  0.00    -0.281 NA
HETATM   24  C4  UNL     1      25.504   3.360  49.821  1.00  0.00     0.322 C 
HETATM   25 BR1  UNL     1      26.677   4.712  49.197  1.00  0.00    -0.172 Br
ENDBRANCH   4  23
TORSDOF 7
ENDMDL
MODEL 5
REMARK VINA RESULT:      -6.7      4.135      9.490
REMARK  7 active torsions:
REMARK  status: ('A' for Active; 'I' for Inactive)
REMARK    1  A    between atoms: C2_3  and  C5_8 
REMARK    2  A    between atoms: C3_4  and  N2_5 
REMARK    3  A    between atoms: C5_8  and  N3_9 
REMARK    4  A    between atoms: N3_9  and  C6_10 
REMARK    5  A    between atoms: C9_13  and  O1_14 
REMARK    6  A    between atoms: O1_14  and  C10_15 
REMARK    7  A    between atoms: C10_15  and  C11_16 
ROOT
HETATM    1  N1  UNL     1      15.580  -2.267  52.339  1.00  0.00    -0.192 NA
HETATM    2  C1  UNL     1      16.272  -1.366  52.118  1.00  0.00     0.098 C 
HETATM    3  C2  UNL     1      17.118  -0.247  51.824  1.00  0.00     0.057 C 
HETATM    4  C3  UNL     1      16.526   0.934  51.572  1.00  0.00     0.131 C 
ENDROOT
BRANCH   3   5
HETATM    5  C5  UNL     1      18.579  -0.340  51.788  1.00  0.00     0.171 C 
BRANCH   5   6
HETATM    6  N3  UNL     1      19.210  -0.074  53.049  1.00  0.00    -0.385 N 
HETATM    7  H5  UNL     1      18.585   0.098  53.867  1.00  0.00     0.160 HD
BRANCH   6   8
HETATM    8  C6  UNL     1      20.625  -0.045  53.199  1.00  0.00     0.029 A 
HETATM    9  C7  UNL     1      21.192  -0.778  54.236  1.00  0.00     0.032 A 
HETATM   10  C8  UNL     1      22.587  -0.701  54.319  1.00  0.00     0.041 A 
HETATM   11  C9  UNL     1      23.382   0.036  53.453  1.00  0.00     0.091 A 
HETATM   12  C16 UNL     1      22.756   0.737  52.449  1.00  0.00     0.069 A 
HETATM   13 CL1  UNL     1      23.718   1.683  51.331  1.00  0.00    -0.081 Cl
HETATM   14  C17 UNL     1      21.385   0.698  52.320  1.00  0.00     0.056 A 
BRANCH  11  15
HETATM   15  O1  UNL     1      24.753   0.054  53.610  1.00  0.00    -0.345 OA
BRANCH  15  16
HETATM   16  C10 UNL     1      25.614  -0.941  53.090  1.00  0.00     0.215 C 
BRANCH  16  17
HETATM   17  C11 UNL     1      27.023  -0.584  53.386  1.00  0.00    -0.017 A 
HETATM   18  C12 UNL     1      27.329   0.602  54.054  1.00  0.00     0.012 A 
HETATM   19  C13 UNL     1      28.618   1.011  54.370  1.00  0.00     0.020 A 
HETATM   20  C14 UNL     1      29.650   0.158  53.980  1.00  0.00     0.116 A 
HETATM   21  N4  UNL     1      29.375  -1.000  53.330  1.00  0.00    -0.272 NA
HETATM   22  C15 UNL     1      28.109  -1.363  53.040  1.00  0.00     0.125 A 
ENDBRANCH  16  17
ENDBRANCH  15  16
ENDBRANCH  11  15
ENDBRANCH   6   8
ENDBRANCH   5   6
ENDBRANCH   3   5
BRANCH   4  23
HETATM   23  N2  UNL     1      17.309   2.080  51.274  1.00  0.00    -0.281 NA
HETATM   24  C4  UNL     1      16.993   3.281  51.595  1.00  0.00     0.322 C 
HETATM   25 BR1  UNL     1      15.471   3.922  52.526  1.00  0.00    -0.172 Br
ENDBRANCH   4  23
TORSDOF 7
ENDMDL
MODEL 6
REMARK VINA RESULT:      -6.7      5.341      9.556
REMARK  7 active torsions:
REMARK  status: ('A' for Active; 'I' for Inactive)
REMARK    1  A    between atoms: C2_3  and  C5_8 
REMARK    2  A    between atoms: C3_4  and  N2_5 
REMARK    3  A    between atoms: C5_8  and  N3_9 
REMARK    4  A    between atoms: N3_9  and  C6_10 
REMARK    5  A    between atoms: C9_13  and  O1_14 
REMARK    6  A    between atoms: O1_14  and  C10_15 
REMARK    7  A    between atoms: C10_15  and  C11_16 
ROOT
HETATM    1  N1  UNL     1      23.506  -0.510  53.312  1.00  0.00    -0.192 NA
HETATM    2  C1  UNL     1      24.508   0.032  53.512  1.00  0.00     0.098 C 
HETATM    3  C2  UNL     1      25.745   0.704  53.784  1.00  0.00     0.057 C 
HETATM    4  C3  UNL     1      26.604   0.113  54.631  1.00  0.00     0.131 C 
ENDROOT
BRANCH   3   5
HETATM    5  C5  UNL     1      26.102   1.991  53.182  1.00  0.00     0.171 C 
BRANCH   5   6
HETATM    6  N3  UNL     1      26.216   1.953  51.752  1.00  0.00    -0.385 N 
HETATM    7  H5  UNL     1      26.606   1.081  51.329  1.00  0.00     0.160 HD
BRANCH   6   8
HETATM    8  C6  UNL     1      25.819   3.044  50.929  1.00  0.00     0.029 A 
HETATM    9  C7  UNL     1      26.682   3.453  49.918  1.00  0.00     0.032 A 
HETATM   10  C8  UNL     1      26.222   4.530  49.151  1.00  0.00     0.041 A 
HETATM   11  C9  UNL     1      25.006   5.168  49.348  1.00  0.00     0.091 A 
HETATM   12  C16 UNL     1      24.201   4.711  50.366  1.00  0.00     0.069 A 
HETATM   13 CL1  UNL     1      22.656   5.485  50.654  1.00  0.00    -0.081 Cl
HETATM   14  C17 UNL     1      24.603   3.654  51.153  1.00  0.00     0.056 A 
BRANCH  11  15
HETATM   15  O1  UNL     1      24.634   6.224  48.541  1.00  0.00    -0.345 OA
BRANCH  15  16
HETATM   16  C10 UNL     1      24.824   7.581  48.890  1.00  0.00     0.215 C 
BRANCH  16  17
HETATM   17  C11 UNL     1      26.234   7.968  48.638  1.00  0.00    -0.017 A 
HETATM   18  C12 UNL     1      26.800   7.799  47.374  1.00  0.00     0.012 A 
HETATM   19  C13 UNL     1      28.109   8.134  47.053  1.00  0.00     0.020 A 
HETATM   20  C14 UNL     1      28.880   8.670  48.084  1.00  0.00     0.116 A 
HETATM   21  N4  UNL     1      28.350   8.842  49.321  1.00  0.00    -0.272 NA
HETATM   22  C15 UNL     1      27.073   8.504  49.593  1.00  0.00     0.125 A 
ENDBRANCH  16  17
ENDBRANCH  15  16
ENDBRANCH  11  15
ENDBRANCH   6   8
ENDBRANCH   5   6
ENDBRANCH   3   5
BRANCH   4  23
HETATM   23  N2  UNL     1      27.845   0.728  54.942  1.00  0.00    -0.281 NA
HETATM   24  C4  UNL     1      28.987   0.304  54.539  1.00  0.00     0.322 C 
HETATM   25 BR1  UNL     1      29.409  -1.193  53.455  1.00  0.00    -0.172 Br
ENDBRANCH   4  23
TORSDOF 7
ENDMDL
MODEL 7
REMARK VINA RESULT:      -6.6      5.842      8.411
REMARK  7 active torsions:
REMARK  status: ('A' for Active; 'I' for Inactive)
REMARK    1  A    between atoms: C2_3  and  C5_8 
REMARK    2  A    between atoms: C3_4  and  N2_5 
REMARK    3  A    between atoms: C5_8  and  N3_9 
REMARK    4  A    between atoms: N3_9  and  C6_10 
REMARK    5  A    between atoms: C9_13  and  O1_14 
REMARK    6  A    between atoms: O1_14  and  C10_15 
REMARK    7  A    between atoms: C10_15  and  C11_16 
ROOT
HETATM    1  N1  UNL     1      31.612   5.568  49.507  1.00  0.00    -0.192 NA
HETATM    2  C1  UNL     1      31.000   6.365  48.935  1.00  0.00     0.098 C 
HETATM    3  C2  UNL     1      30.235   7.364  48.248  1.00  0.00     0.057 C 
HETATM    4  C3  UNL     1      30.598   8.648  48.409  1.00  0.00     0.131 C 
ENDROOT
BRANCH   3   5
HETATM    5  C5  UNL     1      29.093   7.044  47.391  1.00  0.00     0.171 C 
BRANCH   5   6
HETATM    6  N3  UNL     1      27.818   7.295  48.000  1.00  0.00    -0.385 N 
HETATM    7  H5  UNL     1      27.427   8.259  47.903  1.00  0.00     0.160 HD
BRANCH   6   8
HETATM    8  C6  UNL     1      27.102   6.289  48.707  1.00  0.00     0.029 A 
HETATM    9  C7  UNL     1      27.532   4.972  48.593  1.00  0.00     0.032 A 
HETATM   10  C8  UNL     1      26.779   4.040  49.317  1.00  0.00     0.041 A 
HETATM   11  C9  UNL     1      25.681   4.363  50.102  1.00  0.00     0.091 A 
HETATM   12  C16 UNL     1      25.310   5.686  50.170  1.00  0.00     0.069 A 
HETATM   13 CL1  UNL     1      23.930   6.142  51.148  1.00  0.00    -0.081 Cl
HETATM   14  C17 UNL     1      26.015   6.646  49.478  1.00  0.00     0.056 A 
BRANCH  11  15
HETATM   15  O1  UNL     1      24.997   3.377  50.782  1.00  0.00    -0.345 OA
BRANCH  15  16
HETATM   16  C10 UNL     1      23.803   2.784  50.311  1.00  0.00     0.215 C 
BRANCH  16  17
HETATM   17  C11 UNL     1      23.386   1.700  51.235  1.00  0.00    -0.017 A 
HETATM   18  C12 UNL     1      24.259   1.231  52.216  1.00  0.00     0.012 A 
HETATM   19  C13 UNL     1      23.949   0.223  53.120  1.00  0.00     0.020 A 
HETATM   20  C14 UNL     1      22.676  -0.335  53.011  1.00  0.00     0.116 A 
HETATM   21  N4  UNL     1      21.812   0.106  52.063  1.00  0.00    -0.272 NA
HETATM   22  C15 UNL     1      22.149   1.088  51.203  1.00  0.00     0.125 A 
ENDBRANCH  16  17
ENDBRANCH  15  16
ENDBRANCH  11  15
ENDBRANCH   6   8
ENDBRANCH   5   6
ENDBRANCH   3   5
BRANCH   4  23
HETATM   23  N2  UNL     1      29.881   9.685  47.755  1.00  0.00    -0.281 NA
HETATM   24  C4  UNL     1      30.418  10.739  47.257  1.00  0.00     0.322 C 
HETATM   25 BR1  UNL     1      32.239  11.262  47.211  1.00  0.00    -0.172 Br
ENDBRANCH   4  23
TORSDOF 7
ENDMDL
MODEL 8
REMARK VINA RESULT:      -6.6      4.547      8.986
REMARK  7 active torsions:
REMARK  status: ('A' for Active; 'I' for Inactive)
REMARK    1  A    between atoms: C2_3  and  C5_8 
REMARK    2  A    between atoms: C3_4  and  N2_5 
REMARK    3  A    between atoms: C5_8  and  N3_9 
REMARK    4  A    between atoms: N3_9  and  C6_10 
REMARK    5  A    between atoms: C9_13  and  O1_14 
REMARK    6  A    between atoms: O1_14  and  C10_15 
REMARK    7  A    between atoms: C10_15  and  C11_16 
ROOT
HETATM    1  N1  UNL     1      22.123  -1.664  55.397  1.00  0.00    -0.192 NA
HETATM    2  C1  UNL     1      22.709  -1.088  54.583  1.00  0.00     0.098 C 
HETATM    3  C2  UNL     1      23.450  -0.363  53.592  1.00  0.00     0.057 C 
HETATM    4  C3  UNL     1      24.782  -0.534  53.560  1.00  0.00     0.131 C 
ENDROOT
BRANCH   3   5
HETATM    5  C5  UNL     1      22.818   0.541  52.629  1.00  0.00     0.171 C 
BRANCH   5   6
HETATM    6  N3  UNL     1      23.167   1.922  52.811  1.00  0.00    -0.385 N 
HETATM    7  H5  UNL     1      23.336   2.244  53.790  1.00  0.00     0.160 HD
BRANCH   6   8
HETATM    8  C6  UNL     1      23.284   2.826  51.719  1.00  0.00     0.029 A 
HETATM    9  C7  UNL     1      23.663   4.137  51.988  1.00  0.00     0.032 A 
HETATM   10  C8  UNL     1      23.758   4.966  50.864  1.00  0.00     0.041 A 
HETATM   11  C9  UNL     1      23.504   4.553  49.564  1.00  0.00     0.091 A 
HETATM   12  C16 UNL     1      23.133   3.242  49.370  1.00  0.00     0.069 A 
HETATM   13 CL1  UNL     1      22.801   2.674  47.746  1.00  0.00    -0.081 Cl
HETATM   14  C17 UNL     1      23.024   2.381  50.440  1.00  0.00     0.056 A 
BRANCH  11  15
HETATM   15  O1  UNL     1      23.623   5.441  48.515  1.00  0.00    -0.345 OA
BRANCH  15  16
HETATM   16  C10 UNL     1      23.970   6.803  48.676  1.00  0.00     0.215 C 
BRANCH  16  17
HETATM   17  C11 UNL     1      25.364   7.019  48.218  1.00  0.00    -0.017 A 
HETATM   18  C12 UNL     1      26.420   6.328  48.810  1.00  0.00     0.012 A 
HETATM   19  C13 UNL     1      27.752   6.471  48.442  1.00  0.00     0.020 A 
HETATM   20  C14 UNL     1      28.015   7.372  47.411  1.00  0.00     0.116 A 
HETATM   21  N4  UNL     1      27.003   8.055  46.821  1.00  0.00    -0.272 NA
HETATM   22  C15 UNL     1      25.721   7.889  47.207  1.00  0.00     0.125 A 
ENDBRANCH  16  17
ENDBRANCH  15  16
ENDBRANCH  11  15
ENDBRANCH   6   8
ENDBRANCH   5   6
ENDBRANCH   3   5
BRANCH   4  23
HETATM   23  N2  UNL     1      25.572   0.155  52.602  1.00  0.00    -0.281 NA
HETATM   24  C4  UNL     1      26.754   0.603  52.821  1.00  0.00     0.322 C 
HETATM   25 BR1  UNL     1      27.810   0.512  54.392  1.00  0.00    -0.172 Br
ENDBRANCH   4  23
TORSDOF 7
ENDMDL
MODEL 9
REMARK VINA RESULT:      -6.5      6.844      9.393
REMARK  7 active torsions:
REMARK  status: ('A' for Active; 'I' for Inactive)
REMARK    1  A    between atoms: C2_3  and  C5_8 
REMARK    2  A    between atoms: C3_4  and  N2_5 
REMARK    3  A    between atoms: C5_8  and  N3_9 
REMARK    4  A    between atoms: N3_9  and  C6_10 
REMARK    5  A    between atoms: C9_13  and  O1_14 
REMARK    6  A    between atoms: O1_14  and  C10_15 
REMARK    7  A    between atoms: C10_15  and  C11_16 
ROOT
HETATM    1  N1  UNL     1      26.679  10.980  49.019  1.00  0.00    -0.192 NA
HETATM    2  C1  UNL     1      27.572  10.279  48.796  1.00  0.00     0.098 C 
HETATM    3  C2  UNL     1      28.686   9.426  48.502  1.00  0.00     0.057 C 
HETATM    4  C3  UNL     1      29.919   9.917  48.709  1.00  0.00     0.131 C 
ENDROOT
BRANCH   3   5
HETATM    5  C5  UNL     1      28.533   8.061  47.993  1.00  0.00     0.171 C 
BRANCH   5   6
HETATM    6  N3  UNL     1      27.179   7.586  47.998  1.00  0.00    -0.385 N 
HETATM    7  H5  UNL     1      26.478   8.141  47.457  1.00  0.00     0.160 HD
BRANCH   6   8
HETATM    8  C6  UNL     1      26.787   6.412  48.700  1.00  0.00     0.029 A 
HETATM    9  C7  UNL     1      27.550   5.261  48.533  1.00  0.00     0.032 A 
HETATM   10  C8  UNL     1      27.104   4.148  49.256  1.00  0.00     0.041 A 
HETATM   11  C9  UNL     1      25.993   4.150  50.087  1.00  0.00     0.091 A 
HETATM   12  C16 UNL     1      25.284   5.323  50.207  1.00  0.00     0.069 A 
HETATM   13 CL1  UNL     1      23.874   5.374  51.245  1.00  0.00    -0.081 Cl
HETATM   14  C17 UNL     1      25.678   6.450  49.519  1.00  0.00     0.056 A 
BRANCH  11  15
HETATM   15  O1  UNL     1      25.626   3.004  50.763  1.00  0.00    -0.345 OA
BRANCH  15  16
HETATM   16  C10 UNL     1      26.432   1.843  50.832  1.00  0.00     0.215 C 
BRANCH  16  17
HETATM   17  C11 UNL     1      26.435   1.321  52.220  1.00  0.00    -0.017 A 
HETATM   18  C12 UNL     1      25.957   0.040  52.497  1.00  0.00     0.012 A 
HETATM   19  C13 UNL     1      25.924  -0.525  53.765  1.00  0.00     0.020 A 
HETATM   20  C14 UNL     1      26.407   0.266  54.807  1.00  0.00     0.116 A 
HETATM   21  N4  UNL     1      26.876   1.514  54.561  1.00  0.00    -0.272 NA
HETATM   22  C15 UNL     1      26.891   2.029  53.314  1.00  0.00     0.125 A 
ENDBRANCH  16  17
ENDBRANCH  15  16
ENDBRANCH  11  15
ENDBRANCH   6   8
ENDBRANCH   5   6
ENDBRANCH   3   5
BRANCH   4  23
HETATM   23  N2  UNL     1      31.064   9.122  48.438  1.00  0.00    -0.281 NA
HETATM   24  C4  UNL     1      32.086   9.522  47.772  1.00  0.00     0.322 C 
HETATM   25 BR1  UNL     1      32.421  11.204  46.965  1.00  0.00    -0.172 Br
ENDBRANCH   4  23
TORSDOF 7
ENDMDL
