MODEL 1
REMARK VINA RESULT:      -7.4      0.000      0.000
REMARK  7 active torsions:
REMARK  status: ('A' for Active; 'I' for Inactive)
REMARK    1  A    between atoms: C2_2  and  C3_3 
REMARK    2  A    between atoms: C3_3  and  C4_4 
REMARK    3  A    between atoms: C5_5  and  C6_6 
REMARK    4  A    between atoms: C7_8  and  C8_9 
REMARK    5  A    between atoms: C10_11  and  N2_12 
REMARK    6  A    between atoms: C14_16  and  O1_17 
REMARK    7  A    between atoms: C16_19  and  O2_20 
ROOT
HETATM    1  C6  UNL     1      26.737   2.046  53.252  1.00  0.00     0.137 C 
HETATM    2  N1  UNL     1      25.589   1.145  53.456  1.00  0.00    -0.379 N 
HETATM    3  C7  UNL     1      24.590   1.589  52.545  1.00  0.00     0.028 C 
HETATM    4  C15 UNL     1      25.240   2.141  51.502  1.00  0.00     0.036 C 
HETATM    5  C16 UNL     1      26.702   2.067  51.715  1.00  0.00     0.169 C 
HETATM    6  H11 UNL     1      25.692   0.399  54.164  1.00  0.00     0.160 HD
ENDROOT
BRANCH   3   7
HETATM    7  C8  UNL     1      23.165   1.434  52.784  1.00  0.00     0.041 C 
HETATM    8  C9  UNL     1      22.439   0.416  53.203  1.00  0.00     0.002 A 
HETATM    9  C10 UNL     1      20.994   0.732  53.295  1.00  0.00     0.035 A 
HETATM   10  C14 UNL     1      22.925  -0.933  53.571  1.00  0.00     0.176 A 
HETATM   11  C11 UNL     1      20.088  -0.127  53.703  1.00  0.00     0.029 A 
HETATM   12  C12 UNL     1      20.442  -1.480  54.101  1.00  0.00     0.001 A 
HETATM   13  C13 UNL     1      21.733  -1.735  54.005  1.00  0.00     0.009 A 
BRANCH   9  14
HETATM   14  N2  UNL     1      20.415   1.998  52.955  1.00  0.00    -0.399 N 
HETATM   15  H13 UNL     1      20.756   2.890  53.370  1.00  0.00     0.156 HD
HETATM   16  H14 UNL     1      19.631   2.173  52.290  1.00  0.00     0.156 HD
ENDBRANCH   9  14
BRANCH  10  17
HETATM   17  O1  UNL     1      23.745  -0.879  54.697  1.00  0.00    -0.387 OA
HETATM   18  H19 UNL     1      23.141  -1.068  55.477  1.00  0.00     0.210 HD
ENDBRANCH  10  17
ENDBRANCH   3   7
BRANCH   1  19
HETATM   19  C5  UNL     1      28.009   1.469  53.697  1.00  0.00    -0.003 C 
HETATM   20  C4  UNL     1      28.511   0.281  53.398  1.00  0.00    -0.029 C 
BRANCH  20  21
HETATM   21  C3  UNL     1      29.727  -0.548  53.686  1.00  0.00     0.026 C 
BRANCH  21  22
HETATM   22  C2  UNL     1      29.427  -2.007  53.326  1.00  0.00    -0.001 C 
HETATM   23  C1  UNL     1      28.009  -2.215  52.895  1.00  0.00     0.005 C 
ENDBRANCH  21  22
ENDBRANCH  20  21
ENDBRANCH   1  19
BRANCH   5  24
HETATM   24  O2  UNL     1      27.357   3.199  51.235  1.00  0.00    -0.389 OA
HETATM   25  H22 UNL     1      27.485   3.037  50.263  1.00  0.00     0.210 HD
ENDBRANCH   5  24
TORSDOF 7
ENDMDL
MODEL 2
REMARK VINA RESULT:      -7.4      2.008      7.263
REMARK  7 active torsions:
REMARK  status: ('A' for Active; 'I' for Inactive)
REMARK    1  A    between atoms: C2_2  and  C3_3 
REMARK    2  A    between atoms: C3_3  and  C4_4 
REMARK    3  A    between atoms: C5_5  and  C6_6 
REMARK    4  A    between atoms: C7_8  and  C8_9 
REMARK    5  A    between atoms: C10_11  and  N2_12 
REMARK    6  A    between atoms: C14_16  and  O1_17 
REMARK    7  A    between atoms: C16_19  and  O2_20 
ROOT
HETATM    1  C6  UNL     1      21.933   0.213  53.208  1.00  0.00     0.137 C 
HETATM    2  N1  UNL     1      23.261   0.412  52.601  1.00  0.00    -0.379 N 
HETATM    3  C7  UNL     1      24.198   0.117  53.630  1.00  0.00     0.028 C 
HETATM    4  C15 UNL     1      23.607  -0.781  54.442  1.00  0.00     0.036 C 
HETATM    5  C16 UNL     1      22.248  -1.095  53.950  1.00  0.00     0.169 C 
HETATM    6  H11 UNL     1      23.290   0.703  51.609  1.00  0.00     0.160 HD
ENDROOT
BRANCH   3   7
HETATM    7  C8  UNL     1      25.517   0.722  53.707  1.00  0.00     0.041 C 
HETATM    8  C9  UNL     1      26.733   0.221  53.607  1.00  0.00     0.002 A 
HETATM    9  C10 UNL     1      27.796   1.243  53.756  1.00  0.00     0.035 A 
HETATM   10  C14 UNL     1      27.096  -1.193  53.367  1.00  0.00     0.176 A 
HETATM   11  C11 UNL     1      29.079   0.972  53.676  1.00  0.00     0.029 A 
HETATM   12  C12 UNL     1      29.560  -0.378  53.434  1.00  0.00     0.001 A 
HETATM   13  C13 UNL     1      28.594  -1.268  53.311  1.00  0.00     0.009 A 
BRANCH   9  14
HETATM   14  N2  UNL     1      27.558   2.634  54.000  1.00  0.00    -0.399 N 
HETATM   15  H13 UNL     1      27.582   3.341  53.235  1.00  0.00     0.156 HD
HETATM   16  H14 UNL     1      27.344   3.085  54.915  1.00  0.00     0.156 HD
ENDBRANCH   9  14
BRANCH  10  17
HETATM   17  O1  UNL     1      26.672  -1.612  52.106  1.00  0.00    -0.387 OA
HETATM   18  H19 UNL     1      25.682  -1.439  52.086  1.00  0.00     0.210 HD
ENDBRANCH  10  17
ENDBRANCH   3   7
BRANCH   1  19
HETATM   19  C5  UNL     1      20.878  -0.033  52.220  1.00  0.00    -0.003 C 
HETATM   20  C4  UNL     1      19.568   0.043  52.394  1.00  0.00    -0.029 C 
BRANCH  20  21
HETATM   21  C3  UNL     1      18.301  -0.143  51.613  1.00  0.00     0.026 C 
BRANCH  21  22
HETATM   22  C2  UNL     1      17.311  -0.948  52.462  1.00  0.00    -0.001 C 
HETATM   23  C1  UNL     1      17.992  -1.893  53.401  1.00  0.00     0.005 C 
ENDBRANCH  21  22
ENDBRANCH  20  21
ENDBRANCH   1  19
BRANCH   5  24
HETATM   24  O2  UNL     1      21.345  -1.285  54.994  1.00  0.00    -0.389 OA
HETATM   25  H22 UNL     1      21.275  -2.270  55.107  1.00  0.00     0.210 HD
ENDBRANCH   5  24
TORSDOF 7
ENDMDL
MODEL 3
REMARK VINA RESULT:      -7.3      2.241      6.645
REMARK  7 active torsions:
REMARK  status: ('A' for Active; 'I' for Inactive)
REMARK    1  A    between atoms: C2_2  and  C3_3 
REMARK    2  A    between atoms: C3_3  and  C4_4 
REMARK    3  A    between atoms: C5_5  and  C6_6 
REMARK    4  A    between atoms: C7_8  and  C8_9 
REMARK    5  A    between atoms: C10_11  and  N2_12 
REMARK    6  A    between atoms: C14_16  and  O1_17 
REMARK    7  A    between atoms: C16_19  and  O2_20 
ROOT
HETATM    1  C6  UNL     1      23.572   1.452  52.959  1.00  0.00     0.137 C 
HETATM    2  N1  UNL     1      24.683   0.788  52.257  1.00  0.00    -0.379 N 
HETATM    3  C7  UNL     1      24.893  -0.437  52.950  1.00  0.00     0.028 C 
HETATM    4  C15 UNL     1      23.704  -0.790  53.475  1.00  0.00     0.036 C 
HETATM    5  C16 UNL     1      22.676   0.215  53.129  1.00  0.00     0.169 C 
HETATM    6  H11 UNL     1      25.089   1.277  51.441  1.00  0.00     0.160 HD
ENDROOT
BRANCH   3   7
HETATM    7  C8  UNL     1      26.184  -1.102  53.023  1.00  0.00     0.041 C 
HETATM    8  C9  UNL     1      27.404  -0.655  53.240  1.00  0.00     0.002 A 
HETATM    9  C10 UNL     1      28.428  -1.726  53.222  1.00  0.00     0.035 A 
HETATM   10  C14 UNL     1      27.808   0.747  53.492  1.00  0.00     0.176 A 
HETATM   11  C11 UNL     1      29.707  -1.512  53.431  1.00  0.00     0.029 A 
HETATM   12  C12 UNL     1      30.224  -0.179  53.698  1.00  0.00     0.001 A 
HETATM   13  C13 UNL     1      29.293   0.755  53.703  1.00  0.00     0.009 A 
BRANCH   9  14
HETATM   14  N2  UNL     1      28.152  -3.111  52.980  1.00  0.00    -0.399 N 
HETATM   15  H13 UNL     1      27.457  -3.419  52.267  1.00  0.00     0.156 HD
HETATM   16  H14 UNL     1      28.585  -3.932  53.454  1.00  0.00     0.156 HD
ENDBRANCH   9  14
BRANCH  10  17
HETATM   17  O1  UNL     1      27.275   1.213  54.694  1.00  0.00    -0.387 OA
HETATM   18  H19 UNL     1      27.870   1.973  54.973  1.00  0.00     0.210 HD
ENDBRANCH  10  17
ENDBRANCH   3   7
BRANCH   1  19
HETATM   19  C5  UNL     1      22.876   2.442  52.131  1.00  0.00    -0.003 C 
HETATM   20  C4  UNL     1      23.289   2.988  50.998  1.00  0.00    -0.029 C 
BRANCH  20  21
HETATM   21  C3  UNL     1      22.823   3.979  49.974  1.00  0.00     0.026 C 
BRANCH  21  22
HETATM   22  C2  UNL     1      24.029   4.439  49.147  1.00  0.00    -0.001 C 
HETATM   23  C1  UNL     1      25.290   3.725  49.519  1.00  0.00     0.005 C 
ENDBRANCH  21  22
ENDBRANCH  20  21
ENDBRANCH   1  19
BRANCH   5  24
HETATM   24  O2  UNL     1      21.771   0.416  54.170  1.00  0.00    -0.389 OA
HETATM   25  H22 UNL     1      22.314   0.756  54.930  1.00  0.00     0.210 HD
ENDBRANCH   5  24
TORSDOF 7
ENDMDL
MODEL 4
REMARK VINA RESULT:      -7.2      1.910      6.331
REMARK  7 active torsions:
REMARK  status: ('A' for Active; 'I' for Inactive)
REMARK    1  A    between atoms: C2_2  and  C3_3 
REMARK    2  A    between atoms: C3_3  and  C4_4 
REMARK    3  A    between atoms: C5_5  and  C6_6 
REMARK    4  A    between atoms: C7_8  and  C8_9 
REMARK    5  A    between atoms: C10_11  and  N2_12 
REMARK    6  A    between atoms: C14_16  and  O1_17 
REMARK    7  A    between atoms: C16_19  and  O2_20 
ROOT
HETATM    1  C6  UNL     1      23.411   1.497  51.924  1.00  0.00     0.137 C 
HETATM    2  N1  UNL     1      24.435   0.942  52.826  1.00  0.00    -0.379 N 
HETATM    3  C7  UNL     1      25.322   2.020  53.104  1.00  0.00     0.028 C 
HETATM    4  C15 UNL     1      24.594   3.150  53.011  1.00  0.00     0.036 C 
HETATM    5  C16 UNL     1      23.193   2.826  52.664  1.00  0.00     0.169 C 
HETATM    6  H11 UNL     1      24.345  -0.053  53.090  1.00  0.00     0.160 HD
ENDROOT
BRANCH   3   7
HETATM    7  C8  UNL     1      26.730   1.836  53.416  1.00  0.00     0.041 C 
HETATM    8  C9  UNL     1      27.513   0.775  53.402  1.00  0.00     0.002 A 
HETATM    9  C10 UNL     1      28.906   1.077  53.806  1.00  0.00     0.035 A 
HETATM   10  C14 UNL     1      27.134  -0.607  53.031  1.00  0.00     0.176 A 
HETATM   11  C11 UNL     1      29.861   0.175  53.850  1.00  0.00     0.029 A 
HETATM   12  C12 UNL     1      29.615  -1.214  53.500  1.00  0.00     0.001 A 
HETATM   13  C13 UNL     1      28.366  -1.456  53.148  1.00  0.00     0.009 A 
BRANCH   9  14
HETATM   14  N2  UNL     1      29.378   2.373  54.193  1.00  0.00    -0.399 N 
HETATM   15  H13 UNL     1      29.288   2.725  55.170  1.00  0.00     0.156 HD
HETATM   16  H14 UNL     1      29.844   3.081  53.586  1.00  0.00     0.156 HD
ENDBRANCH   9  14
BRANCH  10  17
HETATM   17  O1  UNL     1      26.777  -0.683  51.685  1.00  0.00    -0.387 OA
HETATM   18  H19 UNL     1      26.163   0.096  51.527  1.00  0.00     0.210 HD
ENDBRANCH  10  17
ENDBRANCH   3   7
BRANCH   1  19
HETATM   19  C5  UNL     1      22.161   0.731  51.929  1.00  0.00    -0.003 C 
HETATM   20  C4  UNL     1      21.458   0.331  52.977  1.00  0.00    -0.029 C 
BRANCH  20  21
HETATM   21  C3  UNL     1      20.203  -0.430  53.285  1.00  0.00     0.026 C 
BRANCH  21  22
HETATM   22  C2  UNL     1      20.551  -1.602  54.209  1.00  0.00    -0.001 C 
HETATM   23  C1  UNL     1      21.918  -1.483  54.804  1.00  0.00     0.005 C 
ENDBRANCH  21  22
ENDBRANCH  20  21
ENDBRANCH   1  19
BRANCH   5  24
HETATM   24  O2  UNL     1      22.637   3.770  51.804  1.00  0.00    -0.389 OA
HETATM   25  H22 UNL     1      23.390   4.089  51.239  1.00  0.00     0.210 HD
ENDBRANCH   5  24
TORSDOF 7
ENDMDL
MODEL 5
REMARK VINA RESULT:      -7.1      3.327      6.679
REMARK  7 active torsions:
REMARK  status: ('A' for Active; 'I' for Inactive)
REMARK    1  A    between atoms: C2_2  and  C3_3 
REMARK    2  A    between atoms: C3_3  and  C4_4 
REMARK    3  A    between atoms: C5_5  and  C6_6 
REMARK    4  A    between atoms: C7_8  and  C8_9 
REMARK    5  A    between atoms: C10_11  and  N2_12 
REMARK    6  A    between atoms: C14_16  and  O1_17 
REMARK    7  A    between atoms: C16_19  and  O2_20 
ROOT
HETATM    1  C6  UNL     1      24.679   4.138  51.012  1.00  0.00     0.137 C 
HETATM    2  N1  UNL     1      24.879   2.685  50.874  1.00  0.00    -0.379 N 
HETATM    3  C7  UNL     1      25.054   2.198  52.199  1.00  0.00     0.028 C 
HETATM    4  C15 UNL     1      24.368   3.029  53.008  1.00  0.00     0.036 C 
HETATM    5  C16 UNL     1      23.720   4.094  52.212  1.00  0.00     0.169 C 
HETATM    6  H11 UNL     1      24.856   2.291  49.918  1.00  0.00     0.160 HD
ENDROOT
BRANCH   3   7
HETATM    7  C8  UNL     1      25.843   1.020  52.520  1.00  0.00     0.041 C 
HETATM    8  C9  UNL     1      27.096   0.865  52.899  1.00  0.00     0.002 A 
HETATM    9  C10 UNL     1      27.467  -0.553  53.114  1.00  0.00     0.035 A 
HETATM   10  C14 UNL     1      28.099   1.932  53.118  1.00  0.00     0.176 A 
HETATM   11  C11 UNL     1      28.659  -0.940  53.509  1.00  0.00     0.029 A 
HETATM   12  C12 UNL     1      29.725   0.014  53.766  1.00  0.00     0.001 A 
HETATM   13  C13 UNL     1      29.369   1.268  53.562  1.00  0.00     0.009 A 
BRANCH   9  14
HETATM   14  N2  UNL     1      26.582  -1.664  52.923  1.00  0.00    -0.399 N 
HETATM   15  H13 UNL     1      26.036  -1.790  52.044  1.00  0.00     0.156 HD
HETATM   16  H14 UNL     1      26.387  -2.437  53.595  1.00  0.00     0.156 HD
ENDBRANCH   9  14
BRANCH  10  17
HETATM   17  O1  UNL     1      27.733   2.750  54.187  1.00  0.00    -0.387 OA
HETATM   18  H19 UNL     1      27.213   2.158  54.811  1.00  0.00     0.210 HD
ENDBRANCH  10  17
ENDBRANCH   3   7
BRANCH   1  19
HETATM   19  C5  UNL     1      23.989   4.736  49.865  1.00  0.00    -0.003 C 
HETATM   20  C4  UNL     1      23.317   4.116  48.907  1.00  0.00    -0.029 C 
BRANCH  20  21
HETATM   21  C3  UNL     1      22.543   4.441  47.664  1.00  0.00     0.026 C 
BRANCH  21  22
HETATM   22  C2  UNL     1      21.941   3.146  47.106  1.00  0.00    -0.001 C 
HETATM   23  C1  UNL     1      22.369   1.934  47.871  1.00  0.00     0.005 C 
ENDBRANCH  21  22
ENDBRANCH  20  21
ENDBRANCH   1  19
BRANCH   5  24
HETATM   24  O2  UNL     1      23.725   5.318  52.876  1.00  0.00    -0.389 OA
HETATM   25  H22 UNL     1      23.398   5.981  52.212  1.00  0.00     0.210 HD
ENDBRANCH   5  24
TORSDOF 7
ENDMDL
MODEL 6
REMARK VINA RESULT:      -7.0      2.455      6.791
REMARK  7 active torsions:
REMARK  status: ('A' for Active; 'I' for Inactive)
REMARK    1  A    between atoms: C2_2  and  C3_3 
REMARK    2  A    between atoms: C3_3  and  C4_4 
REMARK    3  A    between atoms: C5_5  and  C6_6 
REMARK    4  A    between atoms: C7_8  and  C8_9 
REMARK    5  A    between atoms: C10_11  and  N2_12 
REMARK    6  A    between atoms: C14_16  and  O1_17 
REMARK    7  A    between atoms: C16_19  and  O2_20 
ROOT
HETATM    1  C6  UNL     1      22.519   0.978  52.602  1.00  0.00     0.137 C 
HETATM    2  N1  UNL     1      23.916   1.015  52.133  1.00  0.00    -0.379 N 
HETATM    3  C7  UNL     1      24.691   0.492  53.205  1.00  0.00     0.028 C 
HETATM    4  C15 UNL     1      23.895  -0.365  53.873  1.00  0.00     0.036 C 
HETATM    5  C16 UNL     1      22.560  -0.420  53.237  1.00  0.00     0.169 C 
HETATM    6  H11 UNL     1      24.087   1.378  51.180  1.00  0.00     0.160 HD
ENDROOT
BRANCH   3   7
HETATM    7  C8  UNL     1      26.072   0.874  53.454  1.00  0.00     0.041 C 
HETATM    8  C9  UNL     1      27.198   0.190  53.450  1.00  0.00     0.002 A 
HETATM    9  C10 UNL     1      28.383   1.020  53.768  1.00  0.00     0.035 A 
HETATM   10  C14 UNL     1      27.362  -1.254  53.165  1.00  0.00     0.176 A 
HETATM   11  C11 UNL     1      29.610   0.551  53.805  1.00  0.00     0.029 A 
HETATM   12  C12 UNL     1      29.900  -0.848  53.534  1.00  0.00     0.001 A 
HETATM   13  C13 UNL     1      28.827  -1.565  53.259  1.00  0.00     0.009 A 
BRANCH   9  14
HETATM   14  N2  UNL     1      28.339   2.420  54.068  1.00  0.00    -0.399 N 
HETATM   15  H13 UNL     1      29.187   2.950  54.362  1.00  0.00     0.156 HD
HETATM   16  H14 UNL     1      27.505   3.046  54.031  1.00  0.00     0.156 HD
ENDBRANCH   9  14
BRANCH  10  17
HETATM   17  O1  UNL     1      27.022  -1.545  51.844  1.00  0.00    -0.387 OA
HETATM   18  H19 UNL     1      26.521  -2.415  51.884  1.00  0.00     0.210 HD
ENDBRANCH  10  17
ENDBRANCH   3   7
BRANCH   1  19
HETATM   19  C5  UNL     1      21.544   0.983  51.507  1.00  0.00    -0.003 C 
HETATM   20  C4  UNL     1      21.775   1.140  50.213  1.00  0.00    -0.029 C 
BRANCH  20  21
HETATM   21  C3  UNL     1      21.021   1.189  48.918  1.00  0.00     0.026 C 
BRANCH  21  22
HETATM   22  C2  UNL     1      21.771   2.104  47.944  1.00  0.00    -0.001 C 
HETATM   23  C1  UNL     1      22.957   2.766  48.571  1.00  0.00     0.005 C 
ENDBRANCH  21  22
ENDBRANCH  20  21
ENDBRANCH   1  19
BRANCH   5  24
HETATM   24  O2  UNL     1      21.540  -0.551  54.177  1.00  0.00    -0.389 OA
HETATM   25  H22 UNL     1      20.850   0.114  53.912  1.00  0.00     0.210 HD
ENDBRANCH   5  24
TORSDOF 7
ENDMDL
MODEL 7
REMARK VINA RESULT:      -6.6      9.989     11.663
REMARK  7 active torsions:
REMARK  status: ('A' for Active; 'I' for Inactive)
REMARK    1  A    between atoms: C2_2  and  C3_3 
REMARK    2  A    between atoms: C3_3  and  C4_4 
REMARK    3  A    between atoms: C5_5  and  C6_6 
REMARK    4  A    between atoms: C7_8  and  C8_9 
REMARK    5  A    between atoms: C10_11  and  N2_12 
REMARK    6  A    between atoms: C14_16  and  O1_17 
REMARK    7  A    between atoms: C16_19  and  O2_20 
ROOT
HETATM    1  C6  UNL     1      31.015   5.922  48.320  1.00  0.00     0.137 C 
HETATM    2  N1  UNL     1      31.473   7.150  47.647  1.00  0.00    -0.379 N 
HETATM    3  C7  UNL     1      31.588   8.127  48.675  1.00  0.00     0.028 C 
HETATM    4  C15 UNL     1      31.868   7.458  49.811  1.00  0.00     0.036 C 
HETATM    5  C16 UNL     1      31.944   6.006  49.541  1.00  0.00     0.169 C 
HETATM    6  H11 UNL     1      31.628   7.102  46.626  1.00  0.00     0.160 HD
ENDROOT
BRANCH   3   7
HETATM    7  C8  UNL     1      31.415   9.552  48.446  1.00  0.00     0.041 C 
HETATM    8  C9  UNL     1      30.369  10.347  48.539  1.00  0.00     0.002 A 
HETATM    9  C10 UNL     1      30.678  11.757  48.201  1.00  0.00     0.035 A 
HETATM   10  C14 UNL     1      28.994   9.968  48.936  1.00  0.00     0.176 A 
HETATM   11  C11 UNL     1      29.790  12.725  48.240  1.00  0.00     0.029 A 
HETATM   12  C12 UNL     1      28.410  12.479  48.624  1.00  0.00     0.001 A 
HETATM   13  C13 UNL     1      28.161  11.216  48.915  1.00  0.00     0.009 A 
BRANCH   9  14
HETATM   14  N2  UNL     1      31.968  12.231  47.796  1.00  0.00    -0.399 N 
HETATM   15  H13 UNL     1      32.845  11.730  48.048  1.00  0.00     0.156 HD
HETATM   16  H14 UNL     1      32.177  13.083  47.231  1.00  0.00     0.156 HD
ENDBRANCH   9  14
BRANCH  10  17
HETATM   17  O1  UNL     1      28.957   9.539  50.262  1.00  0.00    -0.387 OA
HETATM   18  H19 UNL     1      29.338  10.298  50.799  1.00  0.00     0.210 HD
ENDBRANCH  10  17
ENDBRANCH   3   7
BRANCH   1  19
HETATM   19  C5  UNL     1      31.319   4.703  47.565  1.00  0.00    -0.003 C 
HETATM   20  C4  UNL     1      32.502   4.140  47.373  1.00  0.00    -0.029 C 
BRANCH  20  21
HETATM   21  C3  UNL     1      33.101   2.951  46.682  1.00  0.00     0.026 C 
BRANCH  21  22
HETATM   22  C2  UNL     1      32.804   1.697  47.511  1.00  0.00    -0.001 C 
HETATM   23  C1  UNL     1      32.095   0.640  46.726  1.00  0.00     0.005 C 
ENDBRANCH  21  22
ENDBRANCH  20  21
ENDBRANCH   1  19
BRANCH   5  24
HETATM   24  O2  UNL     1      31.425   5.252  50.592  1.00  0.00    -0.389 OA
HETATM   25  H22 UNL     1      30.843   5.876  51.102  1.00  0.00     0.210 HD
ENDBRANCH   5  24
TORSDOF 7
ENDMDL
MODEL 8
REMARK VINA RESULT:      -6.6      1.914      2.368
REMARK  7 active torsions:
REMARK  status: ('A' for Active; 'I' for Inactive)
REMARK    1  A    between atoms: C2_2  and  C3_3 
REMARK    2  A    between atoms: C3_3  and  C4_4 
REMARK    3  A    between atoms: C5_5  and  C6_6 
REMARK    4  A    between atoms: C7_8  and  C8_9 
REMARK    5  A    between atoms: C10_11  and  N2_12 
REMARK    6  A    between atoms: C14_16  and  O1_17 
REMARK    7  A    between atoms: C16_19  and  O2_20 
ROOT
HETATM    1  C6  UNL     1      26.189   0.629  54.628  1.00  0.00     0.137 C 
HETATM    2  N1  UNL     1      25.200  -0.349  54.141  1.00  0.00    -0.379 N 
HETATM    3  C7  UNL     1      24.099   0.422  53.676  1.00  0.00     0.028 C 
HETATM    4  C15 UNL     1      24.602   1.605  53.271  1.00  0.00     0.036 C 
HETATM    5  C16 UNL     1      26.067   1.629  53.467  1.00  0.00     0.169 C 
HETATM    6  H11 UNL     1      25.451  -1.350  54.207  1.00  0.00     0.160 HD
ENDROOT
BRANCH   3   7
HETATM    7  C8  UNL     1      22.727  -0.060  53.680  1.00  0.00     0.041 C 
HETATM    8  C9  UNL     1      21.663   0.280  52.980  1.00  0.00     0.002 A 
HETATM    9  C10 UNL     1      20.458  -0.504  53.339  1.00  0.00     0.035 A 
HETATM   10  C14 UNL     1      21.584   1.316  51.925  1.00  0.00     0.176 A 
HETATM   11  C11 UNL     1      19.289  -0.344  52.759  1.00  0.00     0.029 A 
HETATM   12  C12 UNL     1      19.088   0.635  51.703  1.00  0.00     0.001 A 
HETATM   13  C13 UNL     1      20.175   1.321  51.408  1.00  0.00     0.009 A 
BRANCH   9  14
HETATM   14  N2  UNL     1      20.418  -1.520  54.348  1.00  0.00    -0.399 N 
HETATM   15  H13 UNL     1      21.028  -1.484  55.192  1.00  0.00     0.156 HD
HETATM   16  H14 UNL     1      19.812  -2.368  54.364  1.00  0.00     0.156 HD
ENDBRANCH   9  14
BRANCH  10  17
HETATM   17  O1  UNL     1      22.366   0.969  50.824  1.00  0.00    -0.387 OA
HETATM   18  H19 UNL     1      23.315   1.146  51.104  1.00  0.00     0.210 HD
ENDBRANCH  10  17
ENDBRANCH   3   7
BRANCH   1  19
HETATM   19  C5  UNL     1      27.555   0.098  54.666  1.00  0.00    -0.003 C 
HETATM   20  C4  UNL     1      28.462   0.119  53.703  1.00  0.00    -0.029 C 
BRANCH  20  21
HETATM   21  C3  UNL     1      29.875  -0.322  53.457  1.00  0.00     0.026 C 
BRANCH  21  22
HETATM   22  C2  UNL     1      29.987  -1.816  53.776  1.00  0.00    -0.001 C 
HETATM   23  C1  UNL     1      28.968  -2.639  53.055  1.00  0.00     0.005 C 
ENDBRANCH  21  22
ENDBRANCH  20  21
ENDBRANCH   1  19
BRANCH   5  24
HETATM   24  O2  UNL     1      26.520   2.885  53.864  1.00  0.00    -0.389 OA
HETATM   25  H22 UNL     1      25.866   3.198  54.543  1.00  0.00     0.210 HD
ENDBRANCH   5  24
TORSDOF 7
ENDMDL
MODEL 9
REMARK VINA RESULT:      -6.6      2.699      6.266
REMARK  7 active torsions:
REMARK  status: ('A' for Active; 'I' for Inactive)
REMARK    1  A    between atoms: C2_2  and  C3_3 
REMARK    2  A    between atoms: C3_3  and  C4_4 
REMARK    3  A    between atoms: C5_5  and  C6_6 
REMARK    4  A    between atoms: C7_8  and  C8_9 
REMARK    5  A    between atoms: C10_11  and  N2_12 
REMARK    6  A    between atoms: C14_16  and  O1_17 
REMARK    7  A    between atoms: C16_19  and  O2_20 
ROOT
HETATM    1  C6  UNL     1      25.179   0.435  53.450  1.00  0.00     0.137 C 
HETATM    2  N1  UNL     1      24.964   1.018  52.114  1.00  0.00    -0.379 N 
HETATM    3  C7  UNL     1      26.230   1.530  51.714  1.00  0.00     0.028 C 
HETATM    4  C15 UNL     1      27.161   0.770  52.323  1.00  0.00     0.036 C 
HETATM    5  C16 UNL     1      26.510  -0.271  53.147  1.00  0.00     0.169 C 
HETATM    6  H11 UNL     1      24.011   0.959  51.718  1.00  0.00     0.160 HD
ENDROOT
BRANCH   3   7
HETATM    7  C8  UNL     1      26.387   2.663  50.817  1.00  0.00     0.041 C 
HETATM    8  C9  UNL     1      25.586   3.659  50.494  1.00  0.00     0.002 A 
HETATM    9  C10 UNL     1      26.189   4.595  49.516  1.00  0.00     0.035 A 
HETATM   10  C14 UNL     1      24.218   3.903  51.003  1.00  0.00     0.176 A 
HETATM   11  C11 UNL     1      25.578   5.667  49.065  1.00  0.00     0.029 A 
HETATM   12  C12 UNL     1      24.235   6.019  49.498  1.00  0.00     0.001 A 
HETATM   13  C13 UNL     1      23.720   5.166  50.363  1.00  0.00     0.009 A 
BRANCH   9  14
HETATM   14  N2  UNL     1      27.498   4.450  48.952  1.00  0.00    -0.399 N 
HETATM   15  H13 UNL     1      28.236   5.175  49.074  1.00  0.00     0.156 HD
HETATM   16  H14 UNL     1      27.854   3.651  48.385  1.00  0.00     0.156 HD
ENDBRANCH   9  14
BRANCH  10  17
HETATM   17  O1  UNL     1      24.235   4.181  52.370  1.00  0.00    -0.387 OA
HETATM   18  H19 UNL     1      24.602   5.113  52.448  1.00  0.00     0.210 HD
ENDBRANCH  10  17
ENDBRANCH   3   7
BRANCH   1  19
HETATM   19  C5  UNL     1      24.171  -0.567  53.810  1.00  0.00    -0.003 C 
HETATM   20  C4  UNL     1      22.860  -0.406  53.898  1.00  0.00    -0.029 C 
BRANCH  20  21
HETATM   21  C3  UNL     1      21.633  -1.204  54.226  1.00  0.00     0.026 C 
BRANCH  21  22
HETATM   22  C2  UNL     1      20.415  -0.517  53.599  1.00  0.00    -0.001 C 
HETATM   23  C1  UNL     1      20.789   0.439  52.510  1.00  0.00     0.005 C 
ENDBRANCH  21  22
ENDBRANCH  20  21
ENDBRANCH   1  19
BRANCH   5  24
HETATM   24  O2  UNL     1      27.206  -0.512  54.330  1.00  0.00    -0.389 OA
HETATM   25  H22 UNL     1      28.165  -0.545  54.070  1.00  0.00     0.210 HD
ENDBRANCH   5  24
TORSDOF 7
ENDMDL
