MODEL 1
REMARK VINA RESULT:      -8.0      0.000      0.000
REMARK  4 active torsions:
REMARK  status: ('A' for Active; 'I' for Inactive)
REMARK    1  A    between atoms: C3_3  and  S1_4 
REMARK    2  A    between atoms: C7_9  and  N1_10 
REMARK    3  A    between atoms: C8_13  and  C9_14 
REMARK    4  A    between atoms: C10_15  and  C11_16 
ROOT
HETATM    1  C1  UNL     1      26.288   1.641  52.140  1.00  0.00     0.044 C 
HETATM    2  C2  UNL     1      24.976   1.529  51.931  1.00  0.00     0.116 A 
HETATM    3  C3  UNL     1      25.103   0.589  53.049  1.00  0.00     0.067 C 
HETATM    4  C4  UNL     1      23.760   0.462  52.969  1.00  0.00     0.059 C 
HETATM    5  C5  UNL     1      22.398  -0.044  53.318  1.00  0.00    -0.005 C 
HETATM    6 BR1  UNL     1      21.609  -1.328  54.555  1.00  0.00    -0.056 Br
HETATM    7  C6  UNL     1      21.482   0.580  52.542  1.00  0.00     0.045 C 
HETATM    8  C7  UNL     1      21.460   1.604  51.472  1.00  0.00     0.356 C 
HETATM    9  N2  UNL     1      22.686   1.711  50.760  1.00  0.00    -0.297 N 
HETATM   10  N3  UNL     1      23.976   1.829  51.172  1.00  0.00    -0.278 N 
HETATM   11  C8  UNL     1      24.956   2.479  50.831  1.00  0.00     0.061 A 
HETATM   12  H9  UNL     1      22.748   1.713  49.708  1.00  0.00     0.183 HD
ENDROOT
BRANCH  11  13
HETATM   13  C9  UNL     1      25.973   3.333  50.277  1.00  0.00     0.030 C 
HETATM   14  C10 UNL     1      25.531   4.299  49.525  1.00  0.00     0.013 C 
BRANCH  14  15
HETATM   15  C11 UNL     1      26.483   5.206  48.924  1.00  0.00    -0.036 A 
HETATM   16  C12 UNL     1      27.776   4.766  48.734  1.00  0.00     0.011 A 
HETATM   17  C13 UNL     1      28.761   5.551  48.177  1.00  0.00     0.001 A 
HETATM   18  C14 UNL     1      28.463   6.841  47.783  1.00  0.00     0.000 A 
HETATM   19  C15 UNL     1      27.177   7.361  47.941  1.00  0.00     0.001 A 
HETATM   20  C16 UNL     1      26.282   6.492  48.504  1.00  0.00     0.011 A 
ENDBRANCH  14  15
ENDBRANCH  11  13
BRANCH   3  21
HETATM   21  S1  UNL     1      26.428  -0.107  54.087  1.00  0.00    -0.167 SA
HETATM   22  H3  UNL     1      27.665   0.336  53.592  1.00  0.00     0.102 HD
ENDBRANCH   3  21
BRANCH   8  23
HETATM   23  N1  UNL     1      21.234   2.879  52.175  1.00  0.00     0.106 N 
HETATM   24  H7  UNL     1      22.024   3.521  52.059  1.00  0.00     0.316 HD
HETATM   25  H8  UNL     1      20.376   3.337  51.807  1.00  0.00     0.316 HD
ENDBRANCH   8  23
TORSDOF 4
ENDMDL
MODEL 2
REMARK VINA RESULT:      -7.8      4.158      5.602
REMARK  4 active torsions:
REMARK  status: ('A' for Active; 'I' for Inactive)
REMARK    1  A    between atoms: C3_3  and  S1_4 
REMARK    2  A    between atoms: C7_9  and  N1_10 
REMARK    3  A    between atoms: C8_13  and  C9_14 
REMARK    4  A    between atoms: C10_15  and  C11_16 
ROOT
HETATM    1  C1  UNL     1      22.630   0.057  53.370  1.00  0.00     0.044 C 
HETATM    2  C2  UNL     1      22.472   1.220  52.740  1.00  0.00     0.116 A 
HETATM    3  C3  UNL     1      21.059   0.870  52.914  1.00  0.00     0.067 C 
HETATM    4  C4  UNL     1      20.792   2.069  52.352  1.00  0.00     0.059 C 
HETATM    5  C5  UNL     1      19.958   3.190  51.822  1.00  0.00    -0.005 C 
HETATM    6 BR1  UNL     1      18.066   3.583  51.559  1.00  0.00    -0.056 Br
HETATM    7  C6  UNL     1      20.771   4.194  51.418  1.00  0.00     0.045 C 
HETATM    8  C7  UNL     1      22.223   4.480  51.365  1.00  0.00     0.356 C 
HETATM    9  N2  UNL     1      23.034   3.313  51.341  1.00  0.00    -0.297 N 
HETATM   10  N3  UNL     1      23.044   2.190  52.107  1.00  0.00    -0.278 N 
HETATM   11  C8  UNL     1      23.898   1.476  52.617  1.00  0.00     0.061 A 
HETATM   12  H9  UNL     1      23.813   3.161  50.648  1.00  0.00     0.183 HD
ENDROOT
BRANCH  11  13
HETATM   13  C9  UNL     1      25.049   0.780  53.129  1.00  0.00     0.030 C 
HETATM   14  C10 UNL     1      26.118   0.870  52.394  1.00  0.00     0.013 C 
BRANCH  14  15
HETATM   15  C11 UNL     1      27.323   0.200  52.830  1.00  0.00    -0.036 A 
HETATM   16  C12 UNL     1      28.366   0.970  53.301  1.00  0.00     0.011 A 
HETATM   17  C13 UNL     1      29.558   0.435  53.734  1.00  0.00     0.001 A 
HETATM   18  C14 UNL     1      29.740  -0.935  53.706  1.00  0.00     0.000 A 
HETATM   19  C15 UNL     1      28.732  -1.783  53.244  1.00  0.00     0.001 A 
HETATM   20  C16 UNL     1      27.594  -1.140  52.841  1.00  0.00     0.011 A 
ENDBRANCH  14  15
ENDBRANCH  11  13
BRANCH   3  21
HETATM   21  S1  UNL     1      20.082  -0.516  53.576  1.00  0.00    -0.167 SA
HETATM   22  H3  UNL     1      19.171  -0.933  52.592  1.00  0.00     0.102 HD
ENDBRANCH   3  21
BRANCH   8  23
HETATM   23  N1  UNL     1      22.511   5.203  52.616  1.00  0.00     0.106 N 
HETATM   24  H7  UNL     1      23.426   5.662  52.586  1.00  0.00     0.316 HD
HETATM   25  H8  UNL     1      21.782   5.925  52.781  1.00  0.00     0.316 HD
ENDBRANCH   8  23
TORSDOF 4
ENDMDL
MODEL 3
REMARK VINA RESULT:      -7.5      4.053      6.292
REMARK  4 active torsions:
REMARK  status: ('A' for Active; 'I' for Inactive)
REMARK    1  A    between atoms: C3_3  and  S1_4 
REMARK    2  A    between atoms: C7_9  and  N1_10 
REMARK    3  A    between atoms: C8_13  and  C9_14 
REMARK    4  A    between atoms: C10_15  and  C11_16 
ROOT
HETATM    1  C1  UNL     1      23.349   2.132  50.468  1.00  0.00     0.044 C 
HETATM    2  C2  UNL     1      23.672   3.425  50.481  1.00  0.00     0.116 A 
HETATM    3  C3  UNL     1      22.280   3.549  50.037  1.00  0.00     0.067 C 
HETATM    4  C4  UNL     1      22.482   4.884  50.091  1.00  0.00     0.059 C 
HETATM    5  C5  UNL     1      22.153   6.336  49.967  1.00  0.00    -0.005 C 
HETATM    6 BR1  UNL     1      20.646   7.431  49.392  1.00  0.00    -0.056 Br
HETATM    7  C6  UNL     1      23.218   7.067  50.372  1.00  0.00     0.045 C 
HETATM    8  C7  UNL     1      24.582   6.827  50.895  1.00  0.00     0.356 C 
HETATM    9  N2  UNL     1      25.116   5.559  50.536  1.00  0.00    -0.297 N 
HETATM   10  N3  UNL     1      24.612   4.300  50.610  1.00  0.00    -0.278 N 
HETATM   11  C8  UNL     1      25.037   3.195  50.925  1.00  0.00     0.061 A 
HETATM   12  H9  UNL     1      26.077   5.430  50.123  1.00  0.00     0.183 HD
ENDROOT
BRANCH  11  13
HETATM   13  C9  UNL     1      25.727   2.002  51.337  1.00  0.00     0.030 C 
HETATM   14  C10 UNL     1      26.705   2.195  52.175  1.00  0.00     0.013 C 
BRANCH  14  15
HETATM   15  C11 UNL     1      27.458   1.052  52.643  1.00  0.00    -0.036 A 
HETATM   16  C12 UNL     1      28.660   1.276  53.279  1.00  0.00     0.011 A 
HETATM   17  C13 UNL     1      29.458   0.260  53.756  1.00  0.00     0.001 A 
HETATM   18  C14 UNL     1      29.054  -1.052  53.603  1.00  0.00     0.000 A 
HETATM   19  C15 UNL     1      27.848  -1.362  52.970  1.00  0.00     0.001 A 
HETATM   20  C16 UNL     1      27.141  -0.274  52.538  1.00  0.00     0.011 A 
ENDBRANCH  14  15
ENDBRANCH  11  13
BRANCH   3  21
HETATM   21  S1  UNL     1      20.895   2.448  49.606  1.00  0.00    -0.167 SA
HETATM   22  H3  UNL     1      20.156   2.181  50.770  1.00  0.00     0.102 HD
ENDBRANCH   3  21
BRANCH   8  23
HETATM   23  N1  UNL     1      24.435   6.855  52.361  1.00  0.00     0.106 N 
HETATM   24  H7  UNL     1      25.012   6.140  52.814  1.00  0.00     0.316 HD
HETATM   25  H8  UNL     1      24.712   7.788  52.726  1.00  0.00     0.316 HD
ENDBRANCH   8  23
TORSDOF 4
ENDMDL
MODEL 4
REMARK VINA RESULT:      -7.5      4.871      8.329
REMARK  4 active torsions:
REMARK  status: ('A' for Active; 'I' for Inactive)
REMARK    1  A    between atoms: C3_3  and  S1_4 
REMARK    2  A    between atoms: C7_9  and  N1_10 
REMARK    3  A    between atoms: C8_13  and  C9_14 
REMARK    4  A    between atoms: C10_15  and  C11_16 
ROOT
HETATM    1  C1  UNL     1      25.111   5.708  49.212  1.00  0.00     0.044 C 
HETATM    2  C2  UNL     1      26.366   5.745  48.765  1.00  0.00     0.116 A 
HETATM    3  C3  UNL     1      25.919   7.055  48.280  1.00  0.00     0.067 C 
HETATM    4  C4  UNL     1      27.191   7.223  47.853  1.00  0.00     0.059 C 
HETATM    5  C5  UNL     1      28.352   7.909  47.209  1.00  0.00    -0.005 C 
HETATM    6 BR1  UNL     1      28.695   9.572  46.251  1.00  0.00    -0.056 Br
HETATM    7  C6  UNL     1      29.453   7.134  47.343  1.00  0.00     0.045 C 
HETATM    8  C7  UNL     1      29.815   5.830  47.943  1.00  0.00     0.356 C 
HETATM    9  N2  UNL     1      28.715   4.938  48.075  1.00  0.00    -0.297 N 
HETATM   10  N3  UNL     1      27.467   5.095  48.588  1.00  0.00    -0.278 N 
HETATM   11  C8  UNL     1      26.710   4.433  49.286  1.00  0.00     0.061 A 
HETATM   12  H9  UNL     1      28.740   3.935  47.753  1.00  0.00     0.183 HD
ENDROOT
BRANCH  11  13
HETATM   13  C9  UNL     1      25.985   3.505  50.114  1.00  0.00     0.030 C 
HETATM   14  C10 UNL     1      26.720   2.621  50.723  1.00  0.00     0.013 C 
BRANCH  14  15
HETATM   15  C11 UNL     1      26.076   1.646  51.575  1.00  0.00    -0.036 A 
HETATM   16  C12 UNL     1      24.807   1.921  52.041  1.00  0.00     0.011 A 
HETATM   17  C13 UNL     1      24.108   1.065  52.863  1.00  0.00     0.001 A 
HETATM   18  C14 UNL     1      24.684  -0.129  53.250  1.00  0.00     0.000 A 
HETATM   19  C15 UNL     1      25.965  -0.481  52.821  1.00  0.00     0.001 A 
HETATM   20  C16 UNL     1      26.562   0.444  52.010  1.00  0.00     0.011 A 
ENDBRANCH  14  15
ENDBRANCH  11  13
BRANCH   3  21
HETATM   21  S1  UNL     1      24.385   8.034  48.249  1.00  0.00    -0.167 SA
HETATM   22  H3  UNL     1      24.496   9.072  49.188  1.00  0.00     0.102 HD
ENDBRANCH   3  21
BRANCH   8  23
HETATM   23  N1  UNL     1      30.294   6.156  49.297  1.00  0.00     0.106 N 
HETATM   24  H7  UNL     1      29.631   5.855  50.017  1.00  0.00     0.316 HD
HETATM   25  H8  UNL     1      31.207   5.692  49.469  1.00  0.00     0.316 HD
ENDBRANCH   8  23
TORSDOF 4
ENDMDL
MODEL 5
REMARK VINA RESULT:      -7.5      4.446      6.794
REMARK  4 active torsions:
REMARK  status: ('A' for Active; 'I' for Inactive)
REMARK    1  A    between atoms: C3_3  and  S1_4 
REMARK    2  A    between atoms: C7_9  and  N1_10 
REMARK    3  A    between atoms: C8_13  and  C9_14 
REMARK    4  A    between atoms: C10_15  and  C11_16 
ROOT
HETATM    1  C1  UNL     1      23.832   2.828  49.173  1.00  0.00     0.044 C 
HETATM    2  C2  UNL     1      24.209   4.073  49.461  1.00  0.00     0.116 A 
HETATM    3  C3  UNL     1      23.118   4.381  48.531  1.00  0.00     0.067 C 
HETATM    4  C4  UNL     1      23.371   5.678  48.815  1.00  0.00     0.059 C 
HETATM    5  C5  UNL     1      23.215   7.163  48.744  1.00  0.00    -0.005 C 
HETATM    6 BR1  UNL     1      22.135   8.455  47.763  1.00  0.00    -0.056 Br
HETATM    7  C6  UNL     1      24.079   7.739  49.612  1.00  0.00     0.045 C 
HETATM    8  C7  UNL     1      25.106   7.314  50.590  1.00  0.00     0.356 C 
HETATM    9  N2  UNL     1      25.652   6.029  50.320  1.00  0.00    -0.297 N 
HETATM   10  N3  UNL     1      25.077   4.829  50.045  1.00  0.00    -0.278 N 
HETATM   11  C8  UNL     1      25.268   3.664  50.368  1.00  0.00     0.061 A 
HETATM   12  H9  UNL     1      26.687   5.832  50.298  1.00  0.00     0.183 HD
ENDROOT
BRANCH  11  13
HETATM   13  C9  UNL     1      25.658   2.374  50.874  1.00  0.00     0.030 C 
HETATM   14  C10 UNL     1      26.673   2.386  51.688  1.00  0.00     0.013 C 
BRANCH  14  15
HETATM   15  C11 UNL     1      27.136   1.134  52.244  1.00  0.00    -0.036 A 
HETATM   16  C12 UNL     1      28.253   1.151  53.053  1.00  0.00     0.011 A 
HETATM   17  C13 UNL     1      28.780   0.016  53.627  1.00  0.00     0.001 A 
HETATM   18  C14 UNL     1      28.179  -1.207  53.396  1.00  0.00     0.000 A 
HETATM   19  C15 UNL     1      27.045  -1.308  52.588  1.00  0.00     0.001 A 
HETATM   20  C16 UNL     1      26.611  -0.117  52.074  1.00  0.00     0.011 A 
ENDBRANCH  14  15
ENDBRANCH  11  13
BRANCH   3  21
HETATM   21  S1  UNL     1      21.946   3.474  47.473  1.00  0.00    -0.167 SA
HETATM   22  H3  UNL     1      20.643   3.901  47.778  1.00  0.00     0.102 HD
ENDBRANCH   3  21
BRANCH   8  23
HETATM   23  N1  UNL     1      24.392   7.237  51.877  1.00  0.00     0.106 N 
HETATM   24  H7  UNL     1      25.040   7.239  52.670  1.00  0.00     0.316 HD
HETATM   25  H8  UNL     1      23.748   8.048  51.971  1.00  0.00     0.316 HD
ENDBRANCH   8  23
TORSDOF 4
ENDMDL
MODEL 6
REMARK VINA RESULT:      -7.3      2.152      3.038
REMARK  4 active torsions:
REMARK  status: ('A' for Active; 'I' for Inactive)
REMARK    1  A    between atoms: C3_3  and  S1_4 
REMARK    2  A    between atoms: C7_9  and  N1_10 
REMARK    3  A    between atoms: C8_13  and  C9_14 
REMARK    4  A    between atoms: C10_15  and  C11_16 
ROOT
HETATM    1  C1  UNL     1      23.473   3.346  49.363  1.00  0.00     0.044 C 
HETATM    2  C2  UNL     1      23.991   2.913  50.512  1.00  0.00     0.116 A 
HETATM    3  C3  UNL     1      22.886   1.957  50.393  1.00  0.00     0.067 C 
HETATM    4  C4  UNL     1      23.378   1.394  51.519  1.00  0.00     0.059 C 
HETATM    5  C5  UNL     1      23.460   0.433  52.660  1.00  0.00    -0.005 C 
HETATM    6 BR1  UNL     1      22.431  -1.068  53.359  1.00  0.00    -0.056 Br
HETATM    7  C6  UNL     1      24.564   0.709  53.393  1.00  0.00     0.045 C 
HETATM    8  C7  UNL     1      25.686   1.675  53.371  1.00  0.00     0.356 C 
HETATM    9  N2  UNL     1      25.388   2.881  52.679  1.00  0.00    -0.297 N 
HETATM   10  N3  UNL     1      24.844   3.124  51.458  1.00  0.00    -0.278 N 
HETATM   11  C8  UNL     1      25.053   3.904  50.538  1.00  0.00     0.061 A 
HETATM   12  H9  UNL     1      25.574   3.839  53.076  1.00  0.00     0.183 HD
ENDROOT
BRANCH  11  13
HETATM   13  C9  UNL     1      25.469   4.896  49.581  1.00  0.00     0.030 C 
HETATM   14  C10 UNL     1      26.757   5.046  49.468  1.00  0.00     0.013 C 
BRANCH  14  15
HETATM   15  C11 UNL     1      27.265   6.023  48.531  1.00  0.00    -0.036 A 
HETATM   16  C12 UNL     1      28.600   5.968  48.189  1.00  0.00     0.011 A 
HETATM   17  C13 UNL     1      29.187   6.853  47.313  1.00  0.00     0.001 A 
HETATM   18  C14 UNL     1      28.423   7.850  46.736  1.00  0.00     0.000 A 
HETATM   19  C15 UNL     1      27.063   7.972  47.031  1.00  0.00     0.001 A 
HETATM   20  C16 UNL     1      26.590   7.039  47.912  1.00  0.00     0.011 A 
ENDBRANCH  14  15
ENDBRANCH  11  13
BRANCH   3  21
HETATM   21  S1  UNL     1      21.488   1.639  49.271  1.00  0.00    -0.167 SA
HETATM   22  H3  UNL     1      20.846   0.457  49.678  1.00  0.00     0.102 HD
ENDBRANCH   3  21
BRANCH   8  23
HETATM   23  N1  UNL     1      26.761   0.988  52.633  1.00  0.00     0.106 N 
HETATM   24  H7  UNL     1      26.570  -0.013  52.528  1.00  0.00     0.316 HD
HETATM   25  H8  UNL     1      26.864   1.408  51.688  1.00  0.00     0.316 HD
ENDBRANCH   8  23
TORSDOF 4
ENDMDL
MODEL 7
REMARK VINA RESULT:      -7.2      3.943      5.692
REMARK  4 active torsions:
REMARK  status: ('A' for Active; 'I' for Inactive)
REMARK    1  A    between atoms: C3_3  and  S1_4 
REMARK    2  A    between atoms: C7_9  and  N1_10 
REMARK    3  A    between atoms: C8_13  and  C9_14 
REMARK    4  A    between atoms: C10_15  and  C11_16 
ROOT
HETATM    1  C1  UNL     1      24.484   3.443  51.982  1.00  0.00     0.044 C 
HETATM    2  C2  UNL     1      23.390   2.736  52.266  1.00  0.00     0.116 A 
HETATM    3  C3  UNL     1      22.747   3.896  51.642  1.00  0.00     0.067 C 
HETATM    4  C4  UNL     1      21.587   3.226  51.817  1.00  0.00     0.059 C 
HETATM    5  C5  UNL     1      20.114   2.978  51.762  1.00  0.00    -0.005 C 
HETATM    6 BR1  UNL     1      18.509   3.935  51.208  1.00  0.00    -0.056 Br
HETATM    7  C6  UNL     1      19.857   1.737  52.239  1.00  0.00     0.045 C 
HETATM    8  C7  UNL     1      20.616   0.587  52.781  1.00  0.00     0.356 C 
HETATM    9  N2  UNL     1      21.875   0.945  53.336  1.00  0.00    -0.297 N 
HETATM   10  N3  UNL     1      22.900   1.703  52.866  1.00  0.00    -0.278 N 
HETATM   11  C8  UNL     1      24.123   1.633  52.867  1.00  0.00     0.061 A 
HETATM   12  H9  UNL     1      22.200   0.630  54.288  1.00  0.00     0.183 HD
ENDROOT
BRANCH  11  13
HETATM   13  C9  UNL     1      25.531   1.357  52.974  1.00  0.00     0.030 C 
HETATM   14  C10 UNL     1      25.834   0.102  53.136  1.00  0.00     0.013 C 
BRANCH  14  15
HETATM   15  C11 UNL     1      27.227  -0.269  53.255  1.00  0.00    -0.036 A 
HETATM   16  C12 UNL     1      28.139   0.711  53.586  1.00  0.00     0.011 A 
HETATM   17  C13 UNL     1      29.488   0.467  53.718  1.00  0.00     0.001 A 
HETATM   18  C14 UNL     1      29.972  -0.811  53.515  1.00  0.00     0.000 A 
HETATM   19  C15 UNL     1      29.113  -1.858  53.176  1.00  0.00     0.001 A 
HETATM   20  C16 UNL     1      27.797  -1.498  53.074  1.00  0.00     0.011 A 
ENDBRANCH  14  15
ENDBRANCH  11  13
BRANCH   3  21
HETATM   21  S1  UNL     1      23.242   5.503  50.944  1.00  0.00    -0.167 SA
HETATM   22  H3  UNL     1      22.167   6.019  50.200  1.00  0.00     0.102 HD
ENDBRANCH   3  21
BRANCH   8  23
HETATM   23  N1  UNL     1      20.868  -0.280  51.618  1.00  0.00     0.106 N 
HETATM   24  H7  UNL     1      20.647   0.192  50.736  1.00  0.00     0.316 HD
HETATM   25  H8  UNL     1      21.868  -0.565  51.601  1.00  0.00     0.316 HD
ENDBRANCH   8  23
TORSDOF 4
ENDMDL
MODEL 8
REMARK VINA RESULT:      -7.0      5.691      9.028
REMARK  4 active torsions:
REMARK  status: ('A' for Active; 'I' for Inactive)
REMARK    1  A    between atoms: C3_3  and  S1_4 
REMARK    2  A    between atoms: C7_9  and  N1_10 
REMARK    3  A    between atoms: C8_13  and  C9_14 
REMARK    4  A    between atoms: C10_15  and  C11_16 
ROOT
HETATM    1  C1  UNL     1      27.062   7.342  48.060  1.00  0.00     0.044 C 
HETATM    2  C2  UNL     1      28.317   6.894  48.080  1.00  0.00     0.116 A 
HETATM    3  C3  UNL     1      28.581   8.276  47.665  1.00  0.00     0.067 C 
HETATM    4  C4  UNL     1      29.889   7.943  47.728  1.00  0.00     0.059 C 
HETATM    5  C5  UNL     1      31.368   8.131  47.625  1.00  0.00    -0.005 C 
HETATM    6 BR1  UNL     1      32.611   9.535  47.091  1.00  0.00    -0.056 Br
HETATM    7  C6  UNL     1      31.987   6.992  48.015  1.00  0.00     0.045 C 
HETATM    8  C7  UNL     1      31.610   5.648  48.508  1.00  0.00     0.356 C 
HETATM    9  N2  UNL     1      30.300   5.247  48.126  1.00  0.00    -0.297 N 
HETATM   10  N3  UNL     1      29.095   5.871  48.198  1.00  0.00    -0.278 N 
HETATM   11  C8  UNL     1      27.951   5.550  48.493  1.00  0.00     0.061 A 
HETATM   12  H9  UNL     1      30.083   4.312  47.692  1.00  0.00     0.183 HD
ENDROOT
BRANCH  11  13
HETATM   13  C9  UNL     1      26.691   4.971  48.880  1.00  0.00     0.030 C 
HETATM   14  C10 UNL     1      26.781   3.873  49.574  1.00  0.00     0.013 C 
BRANCH  14  15
HETATM   15  C11 UNL     1      25.565   3.220  50.005  1.00  0.00    -0.036 A 
HETATM   16  C12 UNL     1      25.612   2.428  51.133  1.00  0.00     0.011 A 
HETATM   17  C13 UNL     1      24.516   1.757  51.625  1.00  0.00     0.001 A 
HETATM   18  C14 UNL     1      23.301   1.867  50.975  1.00  0.00     0.000 A 
HETATM   19  C15 UNL     1      23.171   2.649  49.826  1.00  0.00     0.001 A 
HETATM   20  C16 UNL     1      24.325   3.269  49.431  1.00  0.00     0.011 A 
ENDBRANCH  14  15
ENDBRANCH  11  13
BRANCH   3  21
HETATM   21  S1  UNL     1      27.626   9.769  47.252  1.00  0.00    -0.167 SA
HETATM   22  H3  UNL     1      27.953  10.780  48.171  1.00  0.00     0.102 HD
ENDBRANCH   3  21
BRANCH   8  23
HETATM   23  N1  UNL     1      31.634   5.764  49.977  1.00  0.00     0.106 N 
HETATM   24  H7  UNL     1      32.149   6.595  50.283  1.00  0.00     0.316 HD
HETATM   25  H8  UNL     1      30.663   5.820  50.342  1.00  0.00     0.316 HD
ENDBRANCH   8  23
TORSDOF 4
ENDMDL
MODEL 9
REMARK VINA RESULT:      -7.0      3.737      6.182
REMARK  4 active torsions:
REMARK  status: ('A' for Active; 'I' for Inactive)
REMARK    1  A    between atoms: C3_3  and  S1_4 
REMARK    2  A    between atoms: C7_9  and  N1_10 
REMARK    3  A    between atoms: C8_13  and  C9_14 
REMARK    4  A    between atoms: C10_15  and  C11_16 
ROOT
HETATM    1  C1  UNL     1      26.411   4.139  49.971  1.00  0.00     0.044 C 
HETATM    2  C2  UNL     1      25.123   3.798  49.941  1.00  0.00     0.116 A 
HETATM    3  C3  UNL     1      25.048   5.019  49.132  1.00  0.00     0.067 C 
HETATM    4  C4  UNL     1      23.739   4.719  48.976  1.00  0.00     0.059 C 
HETATM    5  C5  UNL     1      22.331   4.886  48.501  1.00  0.00    -0.005 C 
HETATM    6 BR1  UNL     1      21.296   6.187  47.484  1.00  0.00    -0.056 Br
HETATM    7  C6  UNL     1      21.599   3.824  48.910  1.00  0.00     0.045 C 
HETATM    8  C7  UNL     1      21.805   2.573  49.674  1.00  0.00     0.356 C 
HETATM    9  N2  UNL     1      22.914   2.624  50.563  1.00  0.00    -0.297 N 
HETATM   10  N3  UNL     1      24.205   3.012  50.395  1.00  0.00    -0.278 N 
HETATM   11  C8  UNL     1      25.303   2.606  50.753  1.00  0.00     0.061 A 
HETATM   12  H9  UNL     1      22.860   2.333  51.575  1.00  0.00     0.183 HD
ENDROOT
BRANCH  11  13
HETATM   13  C9  UNL     1      26.482   1.962  51.270  1.00  0.00     0.030 C 
HETATM   14  C10 UNL     1      26.255   0.977  52.089  1.00  0.00     0.013 C 
BRANCH  14  15
HETATM   15  C11 UNL     1      27.382   0.272  52.661  1.00  0.00    -0.036 A 
HETATM   16  C12 UNL     1      28.417   1.014  53.190  1.00  0.00     0.011 A 
HETATM   17  C13 UNL     1      29.538   0.443  53.750  1.00  0.00     0.001 A 
HETATM   18  C14 UNL     1      29.651  -0.933  53.797  1.00  0.00     0.000 A 
HETATM   19  C15 UNL     1      28.645  -1.754  53.283  1.00  0.00     0.001 A 
HETATM   20  C16 UNL     1      27.582  -1.077  52.752  1.00  0.00     0.011 A 
ENDBRANCH  14  15
ENDBRANCH  11  13
BRANCH   3  21
HETATM   21  S1  UNL     1      26.167   6.341  48.572  1.00  0.00    -0.167 SA
HETATM   22  H3  UNL     1      25.406   7.329  47.926  1.00  0.00     0.102 HD
ENDBRANCH   3  21
BRANCH   8  23
HETATM   23  N1  UNL     1      22.095   1.550  48.653  1.00  0.00     0.106 N 
HETATM   24  H7  UNL     1      22.516   1.960  47.814  1.00  0.00     0.316 HD
HETATM   25  H8  UNL     1      22.748   0.841  49.041  1.00  0.00     0.316 HD
ENDBRANCH   8  23
TORSDOF 4
ENDMDL
