MODEL 1
REMARK VINA RESULT:      -8.0      0.000      0.000
REMARK  12 active torsions:
REMARK  status: ('A' for Active; 'I' for Inactive)
REMARK    1  A    between atoms: O1_2  and  C2_3 
REMARK    2  A    between atoms: C5_6  and  C6_7 
REMARK    3  A    between atoms: C6_7  and  C7_8 
REMARK    4  A    between atoms: C7_8  and  C8_9 
REMARK    5  A    between atoms: C8_9  and  N1_10 
REMARK    6  A    between atoms: C11_13  and  C12_14 
REMARK    7  A    between atoms: C12_14  and  C13_15 
REMARK    8  A    between atoms: C13_15  and  O2_16 
REMARK    9  A    between atoms: O2_16  and  C14_17 
REMARK   10  A    between atoms: C14_17  and  C15_18 
REMARK   11  A    between atoms: C15_18  and  C16_19 
REMARK   12  A    between atoms: C19_22  and  O3_23 
ROOT
HETATM    1  N1  UNL     1      20.896   2.489  50.548  1.00  0.00    -0.380 N 
HETATM    2  C9  UNL     1      21.652   3.503  50.864  1.00  0.00     0.073 A 
HETATM    3  C10 UNL     1      22.424   2.938  49.771  1.00  0.00     0.035 A 
HETATM    4  C11 UNL     1      23.189   2.624  48.909  1.00  0.00     0.020 A 
HETATM    5  C22 UNL     1      21.991   2.359  49.592  1.00  0.00     0.048 A 
HETATM    6  C23 UNL     1      21.505   1.226  48.912  1.00  0.00    -0.019 A 
HETATM    7  C24 UNL     1      21.842   2.505  48.256  1.00  0.00     0.071 A 
ENDROOT
BRANCH   4   8
HETATM    8  C12 UNL     1      24.385   3.290  49.308  1.00  0.00     0.030 C 
BRANCH   8   9
HETATM    9  C13 UNL     1      25.488   3.816  50.115  1.00  0.00     0.173 C 
BRANCH   9  10
HETATM   10  O2  UNL     1      25.626   3.195  51.329  1.00  0.00    -0.390 OA
BRANCH  10  11
HETATM   11  C14 UNL     1      26.369   2.061  51.374  1.00  0.00     0.172 C 
BRANCH  11  12
HETATM   12  C15 UNL     1      27.326   1.889  52.495  1.00  0.00     0.064 C 
BRANCH  12  13
HETATM   13  C16 UNL     1      27.759   0.518  52.769  1.00  0.00    -0.056 A 
HETATM   14  C17 UNL     1      28.898   0.107  53.435  1.00  0.00     0.010 A 
HETATM   15  C18 UNL     1      29.189  -1.223  53.621  1.00  0.00     0.037 A 
HETATM   16  C19 UNL     1      28.376  -2.232  53.162  1.00  0.00     0.065 A 
HETATM   17  C20 UNL     1      27.228  -1.868  52.491  1.00  0.00     0.037 A 
HETATM   18  C21 UNL     1      26.949  -0.528  52.312  1.00  0.00     0.010 A 
BRANCH  16  19
HETATM   19  O3  UNL     1      28.685  -3.571  53.357  1.00  0.00    -0.361 OA
HETATM   20  H22 UNL     1      28.353  -4.236  52.667  1.00  0.00     0.217 HD
ENDBRANCH  16  19
ENDBRANCH  12  13
ENDBRANCH  11  12
ENDBRANCH  10  11
ENDBRANCH   9  10
ENDBRANCH   8   9
ENDBRANCH   4   8
BRANCH   1  21
HETATM   21  C8  UNL     1      19.696   2.284  51.297  1.00  0.00     0.123 C 
BRANCH  21  22
HETATM   22  C7  UNL     1      20.016   1.567  52.583  1.00  0.00     0.024 C 
BRANCH  22  23
HETATM   23  C6  UNL     1      20.229   0.112  52.418  1.00  0.00     0.040 C 
BRANCH  23  24
HETATM   24  C5  UNL     1      21.531  -0.199  53.132  1.00  0.00    -0.058 A 
HETATM   25  C4  UNL     1      21.539  -0.896  54.316  1.00  0.00     0.010 A 
HETATM   26  C3  UNL     1      22.705  -1.184  55.001  1.00  0.00     0.037 A 
HETATM   27  C2  UNL     1      23.903  -0.736  54.441  1.00  0.00     0.068 A 
HETATM   28  C26 UNL     1      23.848  -0.048  53.262  1.00  0.00     0.037 A 
HETATM   29  C25 UNL     1      22.715   0.263  52.545  1.00  0.00     0.010 A 
BRANCH  27  30
HETATM   30  O1  UNL     1      25.034  -1.054  55.172  1.00  0.00    -0.356 OA
HETATM   31  C1  UNL     1      24.924  -1.140  56.573  1.00  0.00     0.210 C 
ENDBRANCH  27  30
ENDBRANCH  23  24
ENDBRANCH  22  23
ENDBRANCH  21  22
ENDBRANCH   1  21
TORSDOF 12
ENDMDL
MODEL 2
REMARK VINA RESULT:      -7.7      2.650      6.402
REMARK  12 active torsions:
REMARK  status: ('A' for Active; 'I' for Inactive)
REMARK    1  A    between atoms: O1_2  and  C2_3 
REMARK    2  A    between atoms: C5_6  and  C6_7 
REMARK    3  A    between atoms: C6_7  and  C7_8 
REMARK    4  A    between atoms: C7_8  and  C8_9 
REMARK    5  A    between atoms: C8_9  and  N1_10 
REMARK    6  A    between atoms: C11_13  and  C12_14 
REMARK    7  A    between atoms: C12_14  and  C13_15 
REMARK    8  A    between atoms: C13_15  and  O2_16 
REMARK    9  A    between atoms: O2_16  and  C14_17 
REMARK   10  A    between atoms: C14_17  and  C15_18 
REMARK   11  A    between atoms: C15_18  and  C16_19 
REMARK   12  A    between atoms: C19_22  and  O3_23 
ROOT
HETATM    1  N1  UNL     1      22.669   4.713  50.978  1.00  0.00    -0.380 N 
HETATM    2  C9  UNL     1      22.677   4.314  52.219  1.00  0.00     0.073 A 
HETATM    3  C10 UNL     1      22.675   3.032  51.537  1.00  0.00     0.035 A 
HETATM    4  C11 UNL     1      22.672   1.898  51.162  1.00  0.00     0.020 A 
HETATM    5  C22 UNL     1      22.669   3.262  50.829  1.00  0.00     0.048 A 
HETATM    6  C23 UNL     1      22.693   3.225  49.421  1.00  0.00    -0.019 A 
HETATM    7  C24 UNL     1      23.692   2.564  50.285  1.00  0.00     0.071 A 
ENDROOT
BRANCH   4   8
HETATM    8  C12 UNL     1      22.207   1.199  52.314  1.00  0.00     0.030 C 
BRANCH   8   9
HETATM    9  C13 UNL     1      21.339   0.537  53.290  1.00  0.00     0.173 C 
BRANCH   9  10
HETATM   10  O2  UNL     1      22.019  -0.219  54.209  1.00  0.00    -0.390 OA
BRANCH  10  11
HETATM   11  C14 UNL     1      23.027  -1.004  53.755  1.00  0.00     0.172 C 
BRANCH  11  12
HETATM   12  C15 UNL     1      24.372  -0.846  54.362  1.00  0.00     0.064 C 
BRANCH  12  13
HETATM   13  C16 UNL     1      25.225   0.190  53.776  1.00  0.00    -0.056 A 
HETATM   14  C17 UNL     1      25.561   1.415  54.319  1.00  0.00     0.010 A 
HETATM   15  C18 UNL     1      26.375   2.302  53.657  1.00  0.00     0.037 A 
HETATM   16  C19 UNL     1      26.909   2.038  52.418  1.00  0.00     0.065 A 
HETATM   17  C20 UNL     1      26.599   0.826  51.838  1.00  0.00     0.037 A 
HETATM   18  C21 UNL     1      25.781  -0.055  52.515  1.00  0.00     0.010 A 
BRANCH  16  19
HETATM   19  O3  UNL     1      27.729   2.946  51.762  1.00  0.00    -0.361 OA
HETATM   20  H22 UNL     1      27.374   3.370  50.911  1.00  0.00     0.217 HD
ENDBRANCH  16  19
ENDBRANCH  12  13
ENDBRANCH  11  12
ENDBRANCH  10  11
ENDBRANCH   9  10
ENDBRANCH   8   9
ENDBRANCH   4   8
BRANCH   1  21
HETATM   21  C8  UNL     1      22.660   6.120  50.723  1.00  0.00     0.123 C 
BRANCH  21  22
HETATM   22  C7  UNL     1      24.045   6.575  50.341  1.00  0.00     0.024 C 
BRANCH  22  23
HETATM   23  C6  UNL     1      24.296   6.560  48.882  1.00  0.00     0.040 C 
BRANCH  23  24
HETATM   24  C5  UNL     1      25.746   6.143  48.718  1.00  0.00    -0.058 A 
HETATM   25  C4  UNL     1      26.685   7.024  48.239  1.00  0.00     0.010 A 
HETATM   26  C3  UNL     1      28.010   6.674  48.063  1.00  0.00     0.037 A 
HETATM   27  C2  UNL     1      28.377   5.368  48.394  1.00  0.00     0.068 A 
HETATM   28  C26 UNL     1      27.411   4.526  48.868  1.00  0.00     0.037 A 
HETATM   29  C25 UNL     1      26.081   4.827  49.059  1.00  0.00     0.010 A 
BRANCH  27  30
HETATM   30  O1  UNL     1      29.715   5.078  48.196  1.00  0.00    -0.356 OA
HETATM   31  C1  UNL     1      30.621   6.149  48.074  1.00  0.00     0.210 C 
ENDBRANCH  27  30
ENDBRANCH  23  24
ENDBRANCH  22  23
ENDBRANCH  21  22
ENDBRANCH   1  21
TORSDOF 12
ENDMDL
MODEL 3
REMARK VINA RESULT:      -7.6      2.283      6.118
REMARK  12 active torsions:
REMARK  status: ('A' for Active; 'I' for Inactive)
REMARK    1  A    between atoms: O1_2  and  C2_3 
REMARK    2  A    between atoms: C5_6  and  C6_7 
REMARK    3  A    between atoms: C6_7  and  C7_8 
REMARK    4  A    between atoms: C7_8  and  C8_9 
REMARK    5  A    between atoms: C8_9  and  N1_10 
REMARK    6  A    between atoms: C11_13  and  C12_14 
REMARK    7  A    between atoms: C12_14  and  C13_15 
REMARK    8  A    between atoms: C13_15  and  O2_16 
REMARK    9  A    between atoms: O2_16  and  C14_17 
REMARK   10  A    between atoms: C14_17  and  C15_18 
REMARK   11  A    between atoms: C15_18  and  C16_19 
REMARK   12  A    between atoms: C19_22  and  O3_23 
ROOT
HETATM    1  N1  UNL     1      22.063   2.984  51.413  1.00  0.00    -0.380 N 
HETATM    2  C9  UNL     1      22.593   2.623  52.547  1.00  0.00     0.073 A 
HETATM    3  C10 UNL     1      21.859   1.416  52.211  1.00  0.00     0.035 A 
HETATM    4  C11 UNL     1      21.327   0.351  52.111  1.00  0.00     0.020 A 
HETATM    5  C22 UNL     1      21.556   1.624  51.564  1.00  0.00     0.048 A 
HETATM    6  C23 UNL     1      20.836   1.563  50.355  1.00  0.00    -0.019 A 
HETATM    7  C24 UNL     1      21.890   0.604  50.742  1.00  0.00     0.071 A 
ENDROOT
BRANCH   4   8
HETATM    8  C12 UNL     1      21.344  -0.125  53.454  1.00  0.00     0.030 C 
BRANCH   8   9
HETATM    9  C13 UNL     1      21.790  -0.682  54.733  1.00  0.00     0.173 C 
BRANCH   9  10
HETATM   10  O2  UNL     1      22.979  -1.358  54.654  1.00  0.00    -0.390 OA
BRANCH  10  11
HETATM   11  C14 UNL     1      24.116  -0.624  54.570  1.00  0.00     0.172 C 
BRANCH  11  12
HETATM   12  C15 UNL     1      24.905  -0.687  53.314  1.00  0.00     0.064 C 
BRANCH  12  13
HETATM   13  C16 UNL     1      25.980   0.298  53.178  1.00  0.00    -0.056 A 
HETATM   14  C17 UNL     1      26.059   1.344  52.279  1.00  0.00     0.010 A 
HETATM   15  C18 UNL     1      27.134   2.199  52.255  1.00  0.00     0.037 A 
HETATM   16  C19 UNL     1      28.199   2.076  53.115  1.00  0.00     0.065 A 
HETATM   17  C20 UNL     1      28.163   1.045  54.030  1.00  0.00     0.037 A 
HETATM   18  C21 UNL     1      27.076   0.195  54.042  1.00  0.00     0.010 A 
BRANCH  16  19
HETATM   19  O3  UNL     1      29.279   2.948  53.077  1.00  0.00    -0.361 OA
HETATM   20  H22 UNL     1      29.151   3.873  53.475  1.00  0.00     0.217 HD
ENDBRANCH  16  19
ENDBRANCH  12  13
ENDBRANCH  11  12
ENDBRANCH  10  11
ENDBRANCH   9  10
ENDBRANCH   8   9
ENDBRANCH   4   8
BRANCH   1  21
HETATM   21  C8  UNL     1      22.340   4.300  50.928  1.00  0.00     0.123 C 
BRANCH  21  22
HETATM   22  C7  UNL     1      23.078   4.213  49.617  1.00  0.00     0.024 C 
BRANCH  22  23
HETATM   23  C6  UNL     1      24.321   3.411  49.684  1.00  0.00     0.040 C 
BRANCH  23  24
HETATM   24  C5  UNL     1      25.438   4.344  49.258  1.00  0.00    -0.058 A 
HETATM   25  C4  UNL     1      25.178   5.650  48.920  1.00  0.00     0.010 A 
HETATM   26  C3  UNL     1      26.169   6.524  48.514  1.00  0.00     0.037 A 
HETATM   27  C2  UNL     1      27.474   6.029  48.456  1.00  0.00     0.068 A 
HETATM   28  C26 UNL     1      27.686   4.725  48.801  1.00  0.00     0.037 A 
HETATM   29  C25 UNL     1      26.734   3.818  49.210  1.00  0.00     0.010 A 
BRANCH  27  30
HETATM   30  O1  UNL     1      28.420   6.950  48.042  1.00  0.00    -0.356 OA
HETATM   31  C1  UNL     1      29.775   6.568  48.051  1.00  0.00     0.210 C 
ENDBRANCH  27  30
ENDBRANCH  23  24
ENDBRANCH  22  23
ENDBRANCH  21  22
ENDBRANCH   1  21
TORSDOF 12
ENDMDL
MODEL 4
REMARK VINA RESULT:      -7.6      2.903      8.076
REMARK  12 active torsions:
REMARK  status: ('A' for Active; 'I' for Inactive)
REMARK    1  A    between atoms: O1_2  and  C2_3 
REMARK    2  A    between atoms: C5_6  and  C6_7 
REMARK    3  A    between atoms: C6_7  and  C7_8 
REMARK    4  A    between atoms: C7_8  and  C8_9 
REMARK    5  A    between atoms: C8_9  and  N1_10 
REMARK    6  A    between atoms: C11_13  and  C12_14 
REMARK    7  A    between atoms: C12_14  and  C13_15 
REMARK    8  A    between atoms: C13_15  and  O2_16 
REMARK    9  A    between atoms: O2_16  and  C14_17 
REMARK   10  A    between atoms: C14_17  and  C15_18 
REMARK   11  A    between atoms: C15_18  and  C16_19 
REMARK   12  A    between atoms: C19_22  and  O3_23 
ROOT
HETATM    1  N1  UNL     1      25.917   1.376  52.405  1.00  0.00    -0.380 N 
HETATM    2  C9  UNL     1      24.916   1.967  52.994  1.00  0.00     0.073 A 
HETATM    3  C10 UNL     1      24.635   0.584  53.335  1.00  0.00     0.035 A 
HETATM    4  C11 UNL     1      24.241  -0.480  53.711  1.00  0.00     0.020 A 
HETATM    5  C22 UNL     1      25.207   0.247  52.998  1.00  0.00     0.048 A 
HETATM    6  C23 UNL     1      26.090  -0.765  52.573  1.00  0.00    -0.019 A 
HETATM    7  C24 UNL     1      25.717  -0.526  53.982  1.00  0.00     0.071 A 
ENDROOT
BRANCH   4   8
HETATM    8  C12 UNL     1      22.873  -0.209  54.008  1.00  0.00     0.030 C 
BRANCH   8   9
HETATM    9  C13 UNL     1      21.413  -0.300  54.068  1.00  0.00     0.173 C 
BRANCH   9  10
HETATM   10  O2  UNL     1      20.836  -0.683  52.885  1.00  0.00    -0.390 OA
BRANCH  10  11
HETATM   11  C14 UNL     1      20.458   0.294  52.024  1.00  0.00     0.172 C 
BRANCH  11  12
HETATM   12  C15 UNL     1      21.424   0.729  50.984  1.00  0.00     0.064 C 
BRANCH  12  13
HETATM   13  C16 UNL     1      21.802   2.143  51.007  1.00  0.00    -0.056 A 
HETATM   14  C17 UNL     1      22.457   2.859  50.024  1.00  0.00     0.010 A 
HETATM   15  C18 UNL     1      22.756   4.192  50.175  1.00  0.00     0.037 A 
HETATM   16  C19 UNL     1      22.431   4.902  51.307  1.00  0.00     0.065 A 
HETATM   17  C20 UNL     1      21.776   4.226  52.315  1.00  0.00     0.037 A 
HETATM   18  C21 UNL     1      21.481   2.889  52.148  1.00  0.00     0.010 A 
BRANCH  16  19
HETATM   19  O3  UNL     1      22.742   6.247  51.445  1.00  0.00    -0.361 OA
HETATM   20  H22 UNL     1      22.635   6.841  50.629  1.00  0.00     0.217 HD
ENDBRANCH  16  19
ENDBRANCH  12  13
ENDBRANCH  11  12
ENDBRANCH  10  11
ENDBRANCH   9  10
ENDBRANCH   8   9
ENDBRANCH   4   8
BRANCH   1  21
HETATM   21  C8  UNL     1      26.854   2.188  51.693  1.00  0.00     0.123 C 
BRANCH  21  22
HETATM   22  C7  UNL     1      26.116   3.219  50.878  1.00  0.00     0.024 C 
BRANCH  22  23
HETATM   23  C6  UNL     1      26.493   3.230  49.447  1.00  0.00     0.040 C 
BRANCH  23  24
HETATM   24  C5  UNL     1      26.844   4.670  49.123  1.00  0.00    -0.058 A 
HETATM   25  C4  UNL     1      25.977   5.693  49.423  1.00  0.00     0.010 A 
HETATM   26  C3  UNL     1      26.258   7.015  49.130  1.00  0.00     0.037 A 
HETATM   27  C2  UNL     1      27.477   7.286  48.506  1.00  0.00     0.068 A 
HETATM   28  C26 UNL     1      28.308   6.239  48.228  1.00  0.00     0.037 A 
HETATM   29  C25 UNL     1      28.073   4.909  48.499  1.00  0.00     0.010 A 
BRANCH  27  30
HETATM   30  O1  UNL     1      27.700   8.626  48.238  1.00  0.00    -0.356 OA
HETATM   31  C1  UNL     1      28.066   9.470  49.304  1.00  0.00     0.210 C 
ENDBRANCH  27  30
ENDBRANCH  23  24
ENDBRANCH  22  23
ENDBRANCH  21  22
ENDBRANCH   1  21
TORSDOF 12
ENDMDL
MODEL 5
REMARK VINA RESULT:      -7.6      3.424      5.609
REMARK  12 active torsions:
REMARK  status: ('A' for Active; 'I' for Inactive)
REMARK    1  A    between atoms: O1_2  and  C2_3 
REMARK    2  A    between atoms: C5_6  and  C6_7 
REMARK    3  A    between atoms: C6_7  and  C7_8 
REMARK    4  A    between atoms: C7_8  and  C8_9 
REMARK    5  A    between atoms: C8_9  and  N1_10 
REMARK    6  A    between atoms: C11_13  and  C12_14 
REMARK    7  A    between atoms: C12_14  and  C13_15 
REMARK    8  A    between atoms: C13_15  and  O2_16 
REMARK    9  A    between atoms: O2_16  and  C14_17 
REMARK   10  A    between atoms: C14_17  and  C15_18 
REMARK   11  A    between atoms: C15_18  and  C16_19 
REMARK   12  A    between atoms: C19_22  and  O3_23 
ROOT
HETATM    1  N1  UNL     1      20.292  -0.118  52.860  1.00  0.00    -0.380 N 
HETATM    2  C9  UNL     1      20.919   0.403  51.843  1.00  0.00     0.073 A 
HETATM    3  C10 UNL     1      22.010   0.304  52.795  1.00  0.00     0.035 A 
HETATM    4  C11 UNL     1      23.021   0.307  53.432  1.00  0.00     0.020 A 
HETATM    5  C22 UNL     1      21.651   0.008  53.376  1.00  0.00     0.048 A 
HETATM    6  C23 UNL     1      21.415  -0.552  54.646  1.00  0.00    -0.019 A 
HETATM    7  C24 UNL     1      22.432  -1.048  53.698  1.00  0.00     0.071 A 
ENDROOT
BRANCH   4   8
HETATM    8  C12 UNL     1      23.816   1.264  52.736  1.00  0.00     0.030 C 
BRANCH   8   9
HETATM    9  C13 UNL     1      24.549   2.484  52.391  1.00  0.00     0.173 C 
BRANCH   9  10
HETATM   10  O2  UNL     1      25.230   2.400  51.204  1.00  0.00    -0.390 OA
BRANCH  10  11
HETATM   11  C14 UNL     1      26.562   2.153  51.259  1.00  0.00     0.172 C 
BRANCH  11  12
HETATM   12  C15 UNL     1      27.175   1.885  52.583  1.00  0.00     0.064 C 
BRANCH  12  13
HETATM   13  C16 UNL     1      27.641   0.516  52.813  1.00  0.00    -0.056 A 
HETATM   14  C17 UNL     1      28.835   0.113  53.380  1.00  0.00     0.010 A 
HETATM   15  C18 UNL     1      29.151  -1.215  53.535  1.00  0.00     0.037 A 
HETATM   16  C19 UNL     1      28.311  -2.229  53.141  1.00  0.00     0.065 A 
HETATM   17  C20 UNL     1      27.108  -1.873  52.570  1.00  0.00     0.037 A 
HETATM   18  C21 UNL     1      26.804  -0.535  52.421  1.00  0.00     0.010 A 
BRANCH  16  19
HETATM   19  O3  UNL     1      28.646  -3.567  53.304  1.00  0.00    -0.361 OA
HETATM   20  H22 UNL     1      28.586  -4.169  52.489  1.00  0.00     0.217 HD
ENDBRANCH  16  19
ENDBRANCH  12  13
ENDBRANCH  11  12
ENDBRANCH  10  11
ENDBRANCH   9  10
ENDBRANCH   8   9
ENDBRANCH   4   8
BRANCH   1  21
HETATM   21  C8  UNL     1      18.894  -0.387  52.724  1.00  0.00     0.123 C 
BRANCH  21  22
HETATM   22  C7  UNL     1      18.407   0.123  51.392  1.00  0.00     0.024 C 
BRANCH  22  23
HETATM   23  C6  UNL     1      16.975  -0.152  51.135  1.00  0.00     0.040 C 
BRANCH  23  24
HETATM   24  C5  UNL     1      16.220   1.042  51.689  1.00  0.00    -0.058 A 
HETATM   25  C4  UNL     1      16.646   2.324  51.442  1.00  0.00     0.010 A 
HETATM   26  C3  UNL     1      15.991   3.434  51.942  1.00  0.00     0.037 A 
HETATM   27  C2  UNL     1      14.856   3.209  52.723  1.00  0.00     0.068 A 
HETATM   28  C26 UNL     1      14.468   1.918  52.942  1.00  0.00     0.037 A 
HETATM   29  C25 UNL     1      15.086   0.783  52.468  1.00  0.00     0.010 A 
BRANCH  27  30
HETATM   30  O1  UNL     1      14.245   4.358  53.195  1.00  0.00    -0.356 OA
HETATM   31  C1  UNL     1      13.079   4.226  53.972  1.00  0.00     0.210 C 
ENDBRANCH  27  30
ENDBRANCH  23  24
ENDBRANCH  22  23
ENDBRANCH  21  22
ENDBRANCH   1  21
TORSDOF 12
ENDMDL
MODEL 6
REMARK VINA RESULT:      -7.4      2.489      5.819
REMARK  12 active torsions:
REMARK  status: ('A' for Active; 'I' for Inactive)
REMARK    1  A    between atoms: O1_2  and  C2_3 
REMARK    2  A    between atoms: C5_6  and  C6_7 
REMARK    3  A    between atoms: C6_7  and  C7_8 
REMARK    4  A    between atoms: C7_8  and  C8_9 
REMARK    5  A    between atoms: C8_9  and  N1_10 
REMARK    6  A    between atoms: C11_13  and  C12_14 
REMARK    7  A    between atoms: C12_14  and  C13_15 
REMARK    8  A    between atoms: C13_15  and  O2_16 
REMARK    9  A    between atoms: O2_16  and  C14_17 
REMARK   10  A    between atoms: C14_17  and  C15_18 
REMARK   11  A    between atoms: C15_18  and  C16_19 
REMARK   12  A    between atoms: C19_22  and  O3_23 
ROOT
HETATM    1  N1  UNL     1      22.049   1.241  52.067  1.00  0.00    -0.380 N 
HETATM    2  C9  UNL     1      21.769   0.628  50.951  1.00  0.00     0.073 A 
HETATM    3  C10 UNL     1      22.519   1.762  50.441  1.00  0.00     0.035 A 
HETATM    4  C11 UNL     1      23.099   2.615  49.839  1.00  0.00     0.020 A 
HETATM    5  C22 UNL     1      22.677   2.112  51.079  1.00  0.00     0.048 A 
HETATM    6  C23 UNL     1      23.217   3.049  51.981  1.00  0.00    -0.019 A 
HETATM    7  C24 UNL     1      24.013   2.301  50.988  1.00  0.00     0.071 A 
ENDROOT
BRANCH   4   8
HETATM    8  C12 UNL     1      22.571   2.471  48.523  1.00  0.00     0.030 C 
BRANCH   8   9
HETATM    9  C13 UNL     1      21.762   2.652  47.315  1.00  0.00     0.173 C 
BRANCH   9  10
HETATM   10  O2  UNL     1      22.156   3.713  46.542  1.00  0.00    -0.390 OA
BRANCH  10  11
HETATM   11  C14 UNL     1      21.766   4.953  46.929  1.00  0.00     0.172 C 
BRANCH  11  12
HETATM   12  C15 UNL     1      22.808   5.990  47.128  1.00  0.00     0.064 C 
BRANCH  12  13
HETATM   13  C16 UNL     1      23.328   6.128  48.490  1.00  0.00    -0.056 A 
HETATM   14  C17 UNL     1      24.600   5.834  48.944  1.00  0.00     0.010 A 
HETATM   15  C18 UNL     1      24.958   6.008  50.259  1.00  0.00     0.037 A 
HETATM   16  C19 UNL     1      24.085   6.480  51.210  1.00  0.00     0.065 A 
HETATM   17  C20 UNL     1      22.804   6.785  50.802  1.00  0.00     0.037 A 
HETATM   18  C21 UNL     1      22.459   6.607  49.478  1.00  0.00     0.010 A 
BRANCH  16  19
HETATM   19  O3  UNL     1      24.462   6.648  52.535  1.00  0.00    -0.361 OA
HETATM   20  H22 UNL     1      25.208   6.060  52.891  1.00  0.00     0.217 HD
ENDBRANCH  16  19
ENDBRANCH  12  13
ENDBRANCH  11  12
ENDBRANCH  10  11
ENDBRANCH   9  10
ENDBRANCH   8   9
ENDBRANCH   4   8
BRANCH   1  21
HETATM   21  C8  UNL     1      21.576   0.666  53.288  1.00  0.00     0.123 C 
BRANCH  21  22
HETATM   22  C7  UNL     1      22.727   0.040  54.033  1.00  0.00     0.024 C 
BRANCH  22  23
HETATM   23  C6  UNL     1      23.526  -0.901  53.216  1.00  0.00     0.040 C 
BRANCH  23  24
HETATM   24  C5  UNL     1      24.976  -0.518  53.444  1.00  0.00    -0.058 A 
HETATM   25  C4  UNL     1      25.427  -0.172  54.694  1.00  0.00     0.010 A 
HETATM   26  C3  UNL     1      26.738   0.196  54.935  1.00  0.00     0.037 A 
HETATM   27  C2  UNL     1      27.611   0.205  53.846  1.00  0.00     0.068 A 
HETATM   28  C26 UNL     1      27.119  -0.148  52.621  1.00  0.00     0.037 A 
HETATM   29  C25 UNL     1      25.825  -0.520  52.331  1.00  0.00     0.010 A 
BRANCH  27  30
HETATM   30  O1  UNL     1      28.907   0.582  54.150  1.00  0.00    -0.356 OA
HETATM   31  C1  UNL     1      29.968  -0.170  53.610  1.00  0.00     0.210 C 
ENDBRANCH  27  30
ENDBRANCH  23  24
ENDBRANCH  22  23
ENDBRANCH  21  22
ENDBRANCH   1  21
TORSDOF 12
ENDMDL
MODEL 7
REMARK VINA RESULT:      -7.4      2.612      6.534
REMARK  12 active torsions:
REMARK  status: ('A' for Active; 'I' for Inactive)
REMARK    1  A    between atoms: O1_2  and  C2_3 
REMARK    2  A    between atoms: C5_6  and  C6_7 
REMARK    3  A    between atoms: C6_7  and  C7_8 
REMARK    4  A    between atoms: C7_8  and  C8_9 
REMARK    5  A    between atoms: C8_9  and  N1_10 
REMARK    6  A    between atoms: C11_13  and  C12_14 
REMARK    7  A    between atoms: C12_14  and  C13_15 
REMARK    8  A    between atoms: C13_15  and  O2_16 
REMARK    9  A    between atoms: O2_16  and  C14_17 
REMARK   10  A    between atoms: C14_17  and  C15_18 
REMARK   11  A    between atoms: C15_18  and  C16_19 
REMARK   12  A    between atoms: C19_22  and  O3_23 
ROOT
HETATM    1  N1  UNL     1      23.494   3.508  51.453  1.00  0.00    -0.380 N 
HETATM    2  C9  UNL     1      24.178   3.325  52.547  1.00  0.00     0.073 A 
HETATM    3  C10 UNL     1      25.139   2.859  51.563  1.00  0.00     0.035 A 
HETATM    4  C11 UNL     1      26.048   2.438  50.913  1.00  0.00     0.020 A 
HETATM    5  C22 UNL     1      24.747   2.963  50.939  1.00  0.00     0.048 A 
HETATM    6  C23 UNL     1      24.419   3.015  49.570  1.00  0.00    -0.019 A 
HETATM    7  C24 UNL     1      25.606   3.662  50.164  1.00  0.00     0.071 A 
ENDROOT
BRANCH   4   8
HETATM    8  C12 UNL     1      26.799   1.707  51.880  1.00  0.00     0.030 C 
BRANCH   8   9
HETATM    9  C13 UNL     1      27.604   1.363  53.054  1.00  0.00     0.173 C 
BRANCH   9  10
HETATM   10  O2  UNL     1      26.888   0.761  54.056  1.00  0.00    -0.390 OA
BRANCH  10  11
HETATM   11  C14 UNL     1      26.107  -0.297  53.723  1.00  0.00     0.172 C 
BRANCH  11  12
HETATM   12  C15 UNL     1      25.109  -0.775  54.711  1.00  0.00     0.064 C 
BRANCH  12  13
HETATM   13  C16 UNL     1      23.706  -0.692  54.301  1.00  0.00    -0.056 A 
HETATM   14  C17 UNL     1      22.596  -1.147  54.987  1.00  0.00     0.010 A 
HETATM   15  C18 UNL     1      21.325  -1.007  54.483  1.00  0.00     0.037 A 
HETATM   16  C19 UNL     1      21.068  -0.412  53.271  1.00  0.00     0.065 A 
HETATM   17  C20 UNL     1      22.147   0.057  52.552  1.00  0.00     0.037 A 
HETATM   18  C21 UNL     1      23.417  -0.089  53.071  1.00  0.00     0.010 A 
BRANCH  16  19
HETATM   19  O3  UNL     1      19.779  -0.280  52.776  1.00  0.00    -0.361 OA
HETATM   20  H22 UNL     1      19.043  -0.047  53.435  1.00  0.00     0.217 HD
ENDBRANCH  16  19
ENDBRANCH  12  13
ENDBRANCH  11  12
ENDBRANCH  10  11
ENDBRANCH   9  10
ENDBRANCH   8   9
ENDBRANCH   4   8
BRANCH   1  21
HETATM   21  C8  UNL     1      22.172   4.041  51.565  1.00  0.00     0.123 C 
BRANCH  21  22
HETATM   22  C7  UNL     1      22.243   5.524  51.820  1.00  0.00     0.024 C 
BRANCH  22  23
HETATM   23  C6  UNL     1      22.002   6.349  50.615  1.00  0.00     0.040 C 
BRANCH  23  24
HETATM   24  C5  UNL     1      23.374   6.647  50.037  1.00  0.00    -0.058 A 
HETATM   25  C4  UNL     1      24.405   7.064  50.843  1.00  0.00     0.010 A 
HETATM   26  C3  UNL     1      25.662   7.357  50.349  1.00  0.00     0.037 A 
HETATM   27  C2  UNL     1      25.859   7.214  48.974  1.00  0.00     0.068 A 
HETATM   28  C26 UNL     1      24.806   6.795  48.211  1.00  0.00     0.037 A 
HETATM   29  C25 UNL     1      23.538   6.493  48.656  1.00  0.00     0.010 A 
BRANCH  27  30
HETATM   30  O1  UNL     1      27.136   7.523  48.540  1.00  0.00    -0.356 OA
HETATM   31  C1  UNL     1      28.035   6.466  48.300  1.00  0.00     0.210 C 
ENDBRANCH  27  30
ENDBRANCH  23  24
ENDBRANCH  22  23
ENDBRANCH  21  22
ENDBRANCH   1  21
TORSDOF 12
ENDMDL
MODEL 8
REMARK VINA RESULT:      -7.4      4.024      6.026
REMARK  12 active torsions:
REMARK  status: ('A' for Active; 'I' for Inactive)
REMARK    1  A    between atoms: O1_2  and  C2_3 
REMARK    2  A    between atoms: C5_6  and  C6_7 
REMARK    3  A    between atoms: C6_7  and  C7_8 
REMARK    4  A    between atoms: C7_8  and  C8_9 
REMARK    5  A    between atoms: C8_9  and  N1_10 
REMARK    6  A    between atoms: C11_13  and  C12_14 
REMARK    7  A    between atoms: C12_14  and  C13_15 
REMARK    8  A    between atoms: C13_15  and  O2_16 
REMARK    9  A    between atoms: O2_16  and  C14_17 
REMARK   10  A    between atoms: C14_17  and  C15_18 
REMARK   11  A    between atoms: C15_18  and  C16_19 
REMARK   12  A    between atoms: C19_22  and  O3_23 
ROOT
HETATM    1  N1  UNL     1      24.628   3.441  51.103  1.00  0.00    -0.380 N 
HETATM    2  C9  UNL     1      24.085   4.331  50.322  1.00  0.00     0.073 A 
HETATM    3  C10 UNL     1      25.461   4.391  49.863  1.00  0.00     0.035 A 
HETATM    4  C11 UNL     1      26.526   4.584  49.358  1.00  0.00     0.020 A 
HETATM    5  C22 UNL     1      25.770   3.883  50.311  1.00  0.00     0.048 A 
HETATM    6  C23 UNL     1      26.731   3.029  50.885  1.00  0.00    -0.019 A 
HETATM    7  C24 UNL     1      26.432   3.088  49.440  1.00  0.00     0.071 A 
ENDROOT
BRANCH   4   8
HETATM    8  C12 UNL     1      26.352   5.865  48.759  1.00  0.00     0.030 C 
BRANCH   8   9
HETATM    9  C13 UNL     1      25.743   7.077  48.206  1.00  0.00     0.173 C 
BRANCH   9  10
HETATM   10  O2  UNL     1      26.585   8.158  48.188  1.00  0.00    -0.390 OA
BRANCH  10  11
HETATM   11  C14 UNL     1      27.631   8.155  49.052  1.00  0.00     0.172 C 
BRANCH  11  12
HETATM   12  C15 UNL     1      28.979   8.484  48.527  1.00  0.00     0.064 C 
BRANCH  12  13
HETATM   13  C16 UNL     1      29.936   7.377  48.470  1.00  0.00    -0.056 A 
HETATM   14  C17 UNL     1      29.795   6.171  47.812  1.00  0.00     0.010 A 
HETATM   15  C18 UNL     1      30.777   5.209  47.842  1.00  0.00     0.037 A 
HETATM   16  C19 UNL     1      31.959   5.377  48.523  1.00  0.00     0.065 A 
HETATM   17  C20 UNL     1      32.143   6.567  49.195  1.00  0.00     0.037 A 
HETATM   18  C21 UNL     1      31.148   7.523  49.155  1.00  0.00     0.010 A 
BRANCH  16  19
HETATM   19  O3  UNL     1      32.940   4.396  48.545  1.00  0.00    -0.361 OA
HETATM   20  H22 UNL     1      33.812   4.591  48.065  1.00  0.00     0.217 HD
ENDBRANCH  16  19
ENDBRANCH  12  13
ENDBRANCH  11  12
ENDBRANCH  10  11
ENDBRANCH   9  10
ENDBRANCH   8   9
ENDBRANCH   4   8
BRANCH   1  21
HETATM   21  C8  UNL     1      23.789   2.776  52.052  1.00  0.00     0.123 C 
BRANCH  21  22
HETATM   22  C7  UNL     1      23.715   1.307  51.721  1.00  0.00     0.024 C 
BRANCH  22  23
HETATM   23  C6  UNL     1      23.674   0.429  52.912  1.00  0.00     0.040 C 
BRANCH  23  24
HETATM   24  C5  UNL     1      25.122   0.179  53.291  1.00  0.00    -0.058 A 
HETATM   25  C4  UNL     1      25.569   0.412  54.568  1.00  0.00     0.010 A 
HETATM   26  C3  UNL     1      26.883   0.209  54.945  1.00  0.00     0.037 A 
HETATM   27  C2  UNL     1      27.765  -0.252  53.965  1.00  0.00     0.068 A 
HETATM   28  C26 UNL     1      27.277  -0.472  52.708  1.00  0.00     0.037 A 
HETATM   29  C25 UNL     1      25.980  -0.284  52.286  1.00  0.00     0.010 A 
BRANCH  27  30
HETATM   30  O1  UNL     1      29.065  -0.435  54.402  1.00  0.00    -0.356 OA
HETATM   31  C1  UNL     1      30.085  -0.556  53.438  1.00  0.00     0.210 C 
ENDBRANCH  27  30
ENDBRANCH  23  24
ENDBRANCH  22  23
ENDBRANCH  21  22
ENDBRANCH   1  21
TORSDOF 12
ENDMDL
MODEL 9
REMARK VINA RESULT:      -7.3      3.312      7.118
REMARK  12 active torsions:
REMARK  status: ('A' for Active; 'I' for Inactive)
REMARK    1  A    between atoms: O1_2  and  C2_3 
REMARK    2  A    between atoms: C5_6  and  C6_7 
REMARK    3  A    between atoms: C6_7  and  C7_8 
REMARK    4  A    between atoms: C7_8  and  C8_9 
REMARK    5  A    between atoms: C8_9  and  N1_10 
REMARK    6  A    between atoms: C11_13  and  C12_14 
REMARK    7  A    between atoms: C12_14  and  C13_15 
REMARK    8  A    between atoms: C13_15  and  O2_16 
REMARK    9  A    between atoms: O2_16  and  C14_17 
REMARK   10  A    between atoms: C14_17  and  C15_18 
REMARK   11  A    between atoms: C15_18  and  C16_19 
REMARK   12  A    between atoms: C19_22  and  O3_23 
ROOT
HETATM    1  N1  UNL     1      24.997   2.960  51.305  1.00  0.00    -0.380 N 
HETATM    2  C9  UNL     1      24.481   1.780  51.105  1.00  0.00     0.073 A 
HETATM    3  C10 UNL     1      23.381   2.428  51.797  1.00  0.00     0.035 A 
HETATM    4  C11 UNL     1      22.381   2.783  52.346  1.00  0.00     0.020 A 
HETATM    5  C22 UNL     1      23.677   3.101  51.911  1.00  0.00     0.048 A 
HETATM    6  C23 UNL     1      23.799   4.450  52.299  1.00  0.00    -0.019 A 
HETATM    7  C24 UNL     1      22.719   3.929  51.437  1.00  0.00     0.071 A 
ENDROOT
BRANCH   4   8
HETATM    8  C12 UNL     1      21.775   1.543  52.702  1.00  0.00     0.030 C 
BRANCH   8   9
HETATM    9  C13 UNL     1      21.235   0.424  53.479  1.00  0.00     0.173 C 
BRANCH   9  10
HETATM   10  O2  UNL     1      22.173  -0.216  54.247  1.00  0.00    -0.390 OA
BRANCH  10  11
HETATM   11  C14 UNL     1      23.289  -0.672  53.627  1.00  0.00     0.172 C 
BRANCH  11  12
HETATM   12  C15 UNL     1      24.503  -0.910  54.446  1.00  0.00     0.064 C 
BRANCH  12  13
HETATM   13  C16 UNL     1      25.673  -0.093  54.117  1.00  0.00    -0.056 A 
HETATM   14  C17 UNL     1      25.874   1.246  54.394  1.00  0.00     0.010 A 
HETATM   15  C18 UNL     1      27.026   1.897  54.023  1.00  0.00     0.037 A 
HETATM   16  C19 UNL     1      28.051   1.271  53.356  1.00  0.00     0.065 A 
HETATM   17  C20 UNL     1      27.893  -0.067  53.060  1.00  0.00     0.037 A 
HETATM   18  C21 UNL     1      26.732  -0.707  53.438  1.00  0.00     0.010 A 
BRANCH  16  19
HETATM   19  O3  UNL     1      29.208   1.943  52.988  1.00  0.00    -0.361 OA
HETATM   20  H22 UNL     1      29.230   2.373  52.069  1.00  0.00     0.217 HD
ENDBRANCH  16  19
ENDBRANCH  12  13
ENDBRANCH  11  12
ENDBRANCH  10  11
ENDBRANCH   9  10
ENDBRANCH   8   9
ENDBRANCH   4   8
BRANCH   1  21
HETATM   21  C8  UNL     1      26.326   3.203  50.836  1.00  0.00     0.123 C 
BRANCH  21  22
HETATM   22  C7  UNL     1      26.288   3.590  49.380  1.00  0.00     0.024 C 
BRANCH  22  23
HETATM   23  C6  UNL     1      25.787   4.962  49.141  1.00  0.00     0.040 C 
BRANCH  23  24
HETATM   24  C5  UNL     1      26.981   5.758  48.649  1.00  0.00    -0.058 A 
HETATM   25  C4  UNL     1      26.873   7.101  48.381  1.00  0.00     0.010 A 
HETATM   26  C3  UNL     1      27.937   7.854  47.918  1.00  0.00     0.037 A 
HETATM   27  C2  UNL     1      29.153   7.194  47.727  1.00  0.00     0.068 A 
HETATM   28  C26 UNL     1      29.214   5.859  48.007  1.00  0.00     0.037 A 
HETATM   29  C25 UNL     1      28.185   5.068  48.468  1.00  0.00     0.010 A 
BRANCH  27  30
HETATM   30  O1  UNL     1      30.177   8.000  47.262  1.00  0.00    -0.356 OA
HETATM   31  C1  UNL     1      31.483   7.476  47.239  1.00  0.00     0.210 C 
ENDBRANCH  27  30
ENDBRANCH  23  24
ENDBRANCH  22  23
ENDBRANCH  21  22
ENDBRANCH   1  21
TORSDOF 12
ENDMDL
