MODEL 1
REMARK VINA RESULT:      -8.0      0.000      0.000
REMARK  4 active torsions:
REMARK  status: ('A' for Active; 'I' for Inactive)
REMARK    1  A    between atoms: O1_2  and  C2_3 
REMARK    2  A    between atoms: C7_9  and  N2_10 
REMARK    3  A    between atoms: N2_10  and  C8_11 
REMARK    4  A    between atoms: C17_21  and  O2_22 
ROOT
HETATM    1  C8  UNL     1      27.113   1.755  53.248  1.00  0.00     0.034 A 
HETATM    2  C9  UNL     1      28.188   2.487  53.710  1.00  0.00     0.029 A 
HETATM    3  C10 UNL     1      29.334   1.779  54.000  1.00  0.00     0.004 A 
HETATM    4  C11 UNL     1      29.485   0.411  53.866  1.00  0.00     0.023 A 
HETATM    5  C12 UNL     1      28.389  -0.298  53.400  1.00  0.00     0.046 A 
HETATM    6  C13 UNL     1      28.486  -1.727  53.240  1.00  0.00     0.099 C 
HETATM    7  N3  UNL     1      28.553  -2.875  53.096  1.00  0.00    -0.191 NA
HETATM    8  C14 UNL     1      27.240   0.389  53.107  1.00  0.00     0.052 A 
ENDROOT
BRANCH   1   9
HETATM    9  N2  UNL     1      25.922   2.446  52.950  1.00  0.00    -0.355 N 
HETATM   10  H7  UNL     1      25.520   3.155  53.602  1.00  0.00     0.166 HD
BRANCH   9  11
HETATM   11  C7  UNL     1      24.995   2.450  51.874  1.00  0.00     0.046 A 
HETATM   12  C6  UNL     1      25.275   3.103  50.668  1.00  0.00     0.049 A 
HETATM   13  C5  UNL     1      24.432   3.153  49.582  1.00  0.00     0.119 A 
HETATM   14  N1  UNL     1      23.256   2.515  49.719  1.00  0.00    -0.260 NA
HETATM   15  C4  UNL     1      22.884   1.858  50.828  1.00  0.00     0.071 A 
HETATM   16  C3  UNL     1      21.664   1.219  50.906  1.00  0.00     0.072 A 
HETATM   17  C15 UNL     1      23.763   1.843  51.877  1.00  0.00     0.022 A 
HETATM   18  C2  UNL     1      21.256   0.533  52.029  1.00  0.00     0.103 A 
HETATM   19  C17 UNL     1      22.159   0.530  53.074  1.00  0.00     0.102 A 
HETATM   20  C16 UNL     1      23.376   1.161  53.011  1.00  0.00     0.055 A 
BRANCH  18  21
HETATM   21  O1  UNL     1      20.054  -0.118  52.157  1.00  0.00    -0.353 OA
HETATM   22  C1  UNL     1      18.962   0.242  51.368  1.00  0.00     0.210 C 
ENDBRANCH  18  21
BRANCH  19  23
HETATM   23  O2  UNL     1      21.796  -0.148  54.231  1.00  0.00    -0.353 OA
HETATM   24  C18 UNL     1      22.680  -1.097  54.829  1.00  0.00     0.210 C 
ENDBRANCH  19  23
ENDBRANCH   9  11
ENDBRANCH   1   9
TORSDOF 4
ENDMDL
MODEL 2
REMARK VINA RESULT:      -7.9      2.343      3.915
REMARK  4 active torsions:
REMARK  status: ('A' for Active; 'I' for Inactive)
REMARK    1  A    between atoms: O1_2  and  C2_3 
REMARK    2  A    between atoms: C7_9  and  N2_10 
REMARK    3  A    between atoms: N2_10  and  C8_11 
REMARK    4  A    between atoms: C17_21  and  O2_22 
ROOT
HETATM    1  C8  UNL     1      26.322  -0.220  52.980  1.00  0.00     0.034 A 
HETATM    2  C9  UNL     1      26.868  -1.446  52.660  1.00  0.00     0.029 A 
HETATM    3  C10 UNL     1      28.192  -1.635  52.992  1.00  0.00     0.004 A 
HETATM    4  C11 UNL     1      29.002  -0.702  53.612  1.00  0.00     0.023 A 
HETATM    5  C12 UNL     1      28.427   0.521  53.922  1.00  0.00     0.046 A 
HETATM    6  C13 UNL     1      29.223   1.534  54.569  1.00  0.00     0.099 C 
HETATM    7  N3  UNL     1      29.847   2.353  55.099  1.00  0.00    -0.191 NA
HETATM    8  C14 UNL     1      27.111   0.728  53.599  1.00  0.00     0.052 A 
ENDROOT
BRANCH   1   9
HETATM    9  N2  UNL     1      24.973   0.012  52.647  1.00  0.00    -0.355 N 
HETATM   10  H7  UNL     1      24.690   0.349  51.701  1.00  0.00     0.166 HD
BRANCH   9  11
HETATM   11  C7  UNL     1      23.728  -0.100  53.323  1.00  0.00     0.046 A 
HETATM   12  C6  UNL     1      23.521  -1.055  54.324  1.00  0.00     0.049 A 
HETATM   13  C5  UNL     1      22.348  -1.225  55.023  1.00  0.00     0.119 A 
HETATM   14  N1  UNL     1      21.342  -0.395  54.697  1.00  0.00    -0.260 NA
HETATM   15  C4  UNL     1      21.429   0.555  53.755  1.00  0.00     0.071 A 
HETATM   16  C3  UNL     1      20.361   1.380  53.467  1.00  0.00     0.072 A 
HETATM   17  C15 UNL     1      22.621   0.678  53.092  1.00  0.00     0.022 A 
HETATM   18  C2  UNL     1      20.422   2.367  52.509  1.00  0.00     0.103 A 
HETATM   19  C17 UNL     1      21.632   2.473  51.853  1.00  0.00     0.102 A 
HETATM   20  C16 UNL     1      22.704   1.660  52.128  1.00  0.00     0.055 A 
BRANCH  18  21
HETATM   21  O1  UNL     1      19.389   3.211  52.186  1.00  0.00    -0.353 OA
HETATM   22  C1  UNL     1      18.274   2.741  51.493  1.00  0.00     0.210 C 
ENDBRANCH  18  21
BRANCH  19  23
HETATM   23  O2  UNL     1      21.747   3.454  50.876  1.00  0.00    -0.353 OA
HETATM   24  C18 UNL     1      21.658   3.118  49.490  1.00  0.00     0.210 C 
ENDBRANCH  19  23
ENDBRANCH   9  11
ENDBRANCH   1   9
TORSDOF 4
ENDMDL
MODEL 3
REMARK VINA RESULT:      -7.8      2.906      6.229
REMARK  4 active torsions:
REMARK  status: ('A' for Active; 'I' for Inactive)
REMARK    1  A    between atoms: O1_2  and  C2_3 
REMARK    2  A    between atoms: C7_9  and  N2_10 
REMARK    3  A    between atoms: N2_10  and  C8_11 
REMARK    4  A    between atoms: C17_21  and  O2_22 
ROOT
HETATM    1  C8  UNL     1      23.706   4.049  50.909  1.00  0.00     0.034 A 
HETATM    2  C9  UNL     1      22.745   4.734  50.195  1.00  0.00     0.029 A 
HETATM    3  C10 UNL     1      23.180   5.426  49.086  1.00  0.00     0.004 A 
HETATM    4  C11 UNL     1      24.488   5.485  48.643  1.00  0.00     0.023 A 
HETATM    5  C12 UNL     1      25.432   4.787  49.379  1.00  0.00     0.046 A 
HETATM    6  C13 UNL     1      26.813   4.811  48.966  1.00  0.00     0.099 C 
HETATM    7  N3  UNL     1      27.924   4.812  48.638  1.00  0.00    -0.191 NA
HETATM    8  C14 UNL     1      25.018   4.093  50.486  1.00  0.00     0.052 A 
ENDROOT
BRANCH   1   9
HETATM    9  N2  UNL     1      23.298   3.337  52.055  1.00  0.00    -0.355 N 
HETATM   10  H7  UNL     1      22.836   3.812  52.862  1.00  0.00     0.166 HD
BRANCH   9  11
HETATM   11  C7  UNL     1      23.342   1.981  52.476  1.00  0.00     0.046 A 
HETATM   12  C6  UNL     1      22.269   1.110  52.256  1.00  0.00     0.049 A 
HETATM   13  C5  UNL     1      22.235  -0.213  52.632  1.00  0.00     0.119 A 
HETATM   14  N1  UNL     1      23.334  -0.676  53.256  1.00  0.00    -0.260 NA
HETATM   15  C4  UNL     1      24.418   0.068  53.517  1.00  0.00     0.071 A 
HETATM   16  C3  UNL     1      25.517  -0.467  54.157  1.00  0.00     0.072 A 
HETATM   17  C15 UNL     1      24.395   1.378  53.120  1.00  0.00     0.022 A 
HETATM   18  C2  UNL     1      26.646   0.271  54.434  1.00  0.00     0.103 A 
HETATM   19  C17 UNL     1      26.601   1.589  54.025  1.00  0.00     0.102 A 
HETATM   20  C16 UNL     1      25.515   2.135  53.387  1.00  0.00     0.055 A 
BRANCH  18  21
HETATM   21  O1  UNL     1      27.764  -0.214  55.068  1.00  0.00    -0.353 OA
HETATM   22  C1  UNL     1      28.858  -0.670  54.333  1.00  0.00     0.210 C 
ENDBRANCH  18  21
BRANCH  19  23
HETATM   23  O2  UNL     1      27.716   2.378  54.281  1.00  0.00    -0.353 OA
HETATM   24  C18 UNL     1      28.739   2.537  53.298  1.00  0.00     0.210 C 
ENDBRANCH  19  23
ENDBRANCH   9  11
ENDBRANCH   1   9
TORSDOF 4
ENDMDL
MODEL 4
REMARK VINA RESULT:      -7.7      2.268      3.271
REMARK  4 active torsions:
REMARK  status: ('A' for Active; 'I' for Inactive)
REMARK    1  A    between atoms: O1_2  and  C2_3 
REMARK    2  A    between atoms: C7_9  and  N2_10 
REMARK    3  A    between atoms: N2_10  and  C8_11 
REMARK    4  A    between atoms: C17_21  and  O2_22 
ROOT
HETATM    1  C8  UNL     1      26.505   1.226  52.882  1.00  0.00     0.034 A 
HETATM    2  C9  UNL     1      27.251   2.338  53.215  1.00  0.00     0.029 A 
HETATM    3  C10 UNL     1      28.552   2.111  53.607  1.00  0.00     0.004 A 
HETATM    4  C11 UNL     1      29.157   0.871  53.691  1.00  0.00     0.023 A 
HETATM    5  C12 UNL     1      28.385  -0.228  53.349  1.00  0.00     0.046 A 
HETATM    6  C13 UNL     1      28.961  -1.548  53.417  1.00  0.00     0.099 C 
HETATM    7  N3  UNL     1      29.415  -2.613  53.455  1.00  0.00    -0.191 NA
HETATM    8  C14 UNL     1      27.088  -0.022  52.957  1.00  0.00     0.052 A 
ENDROOT
BRANCH   1   9
HETATM    9  N2  UNL     1      25.168   1.420  52.485  1.00  0.00    -0.355 N 
HETATM   10  H7  UNL     1      24.909   2.103  51.739  1.00  0.00     0.166 HD
BRANCH   9  11
HETATM   11  C7  UNL     1      23.909   0.879  52.861  1.00  0.00     0.046 A 
HETATM   12  C6  UNL     1      23.802  -0.391  53.439  1.00  0.00     0.049 A 
HETATM   13  C5  UNL     1      22.623  -0.984  53.830  1.00  0.00     0.119 A 
HETATM   14  N1  UNL     1      21.506  -0.262  53.629  1.00  0.00    -0.260 NA
HETATM   15  C4  UNL     1      21.492   0.963  53.084  1.00  0.00     0.071 A 
HETATM   16  C3  UNL     1      20.312   1.656  52.907  1.00  0.00     0.072 A 
HETATM   17  C15 UNL     1      22.695   1.502  52.714  1.00  0.00     0.022 A 
HETATM   18  C2  UNL     1      20.266   2.916  52.355  1.00  0.00     0.103 A 
HETATM   19  C17 UNL     1      21.491   3.440  51.989  1.00  0.00     0.102 A 
HETATM   20  C16 UNL     1      22.673   2.764  52.159  1.00  0.00     0.055 A 
BRANCH  18  21
HETATM   21  O1  UNL     1      19.120   3.645  52.157  1.00  0.00    -0.353 OA
HETATM   22  C1  UNL     1      18.277   3.371  51.081  1.00  0.00     0.210 C 
ENDBRANCH  18  21
BRANCH  19  23
HETATM   23  O2  UNL     1      21.501   4.711  51.426  1.00  0.00    -0.353 OA
HETATM   24  C18 UNL     1      22.650   5.551  51.541  1.00  0.00     0.210 C 
ENDBRANCH  19  23
ENDBRANCH   9  11
ENDBRANCH   1   9
TORSDOF 4
ENDMDL
MODEL 5
REMARK VINA RESULT:      -7.6      2.840      7.236
REMARK  4 active torsions:
REMARK  status: ('A' for Active; 'I' for Inactive)
REMARK    1  A    between atoms: O1_2  and  C2_3 
REMARK    2  A    between atoms: C7_9  and  N2_10 
REMARK    3  A    between atoms: N2_10  and  C8_11 
REMARK    4  A    between atoms: C17_21  and  O2_22 
ROOT
HETATM    1  C8  UNL     1      20.603   0.125  51.982  1.00  0.00     0.034 A 
HETATM    2  C9  UNL     1      20.321  -0.463  53.198  1.00  0.00     0.029 A 
HETATM    3  C10 UNL     1      19.022  -0.877  53.395  1.00  0.00     0.004 A 
HETATM    4  C11 UNL     1      17.995  -0.749  52.479  1.00  0.00     0.023 A 
HETATM    5  C12 UNL     1      18.306  -0.156  51.266  1.00  0.00     0.046 A 
HETATM    6  C13 UNL     1      17.276   0.005  50.270  1.00  0.00     0.099 C 
HETATM    7  N3  UNL     1      16.460   0.130  49.457  1.00  0.00    -0.191 NA
HETATM    8  C14 UNL     1      19.593   0.264  51.052  1.00  0.00     0.052 A 
ENDROOT
BRANCH   1   9
HETATM    9  N2  UNL     1      21.919   0.569  51.750  1.00  0.00    -0.355 N 
HETATM   10  H7  UNL     1      22.564   0.064  51.104  1.00  0.00     0.166 HD
BRANCH   9  11
HETATM   11  C7  UNL     1      22.720   1.650  52.206  1.00  0.00     0.046 A 
HETATM   12  C6  UNL     1      22.300   2.979  52.076  1.00  0.00     0.049 A 
HETATM   13  C5  UNL     1      23.016   4.078  52.491  1.00  0.00     0.119 A 
HETATM   14  N1  UNL     1      24.206   3.824  53.063  1.00  0.00    -0.260 NA
HETATM   15  C4  UNL     1      24.707   2.593  53.239  1.00  0.00     0.071 A 
HETATM   16  C3  UNL     1      25.934   2.396  53.838  1.00  0.00     0.072 A 
HETATM   17  C15 UNL     1      23.950   1.537  52.806  1.00  0.00     0.022 A 
HETATM   18  C2  UNL     1      26.472   1.144  54.036  1.00  0.00     0.103 A 
HETATM   19  C17 UNL     1      25.692   0.094  53.591  1.00  0.00     0.102 A 
HETATM   20  C16 UNL     1      24.469   0.274  52.995  1.00  0.00     0.055 A 
BRANCH  18  21
HETATM   21  O1  UNL     1      27.687   0.896  54.625  1.00  0.00    -0.353 OA
HETATM   22  C1  UNL     1      28.875   1.218  53.969  1.00  0.00     0.210 C 
ENDBRANCH  18  21
BRANCH  19  23
HETATM   23  O2  UNL     1      26.189  -1.191  53.767  1.00  0.00    -0.353 OA
HETATM   24  C18 UNL     1      26.837  -1.876  52.695  1.00  0.00     0.210 C 
ENDBRANCH  19  23
ENDBRANCH   9  11
ENDBRANCH   1   9
TORSDOF 4
ENDMDL
MODEL 6
REMARK VINA RESULT:      -7.5      2.731      5.136
REMARK  4 active torsions:
REMARK  status: ('A' for Active; 'I' for Inactive)
REMARK    1  A    between atoms: O1_2  and  C2_3 
REMARK    2  A    between atoms: C7_9  and  N2_10 
REMARK    3  A    between atoms: N2_10  and  C8_11 
REMARK    4  A    between atoms: C17_21  and  O2_22 
ROOT
HETATM    1  C8  UNL     1      25.777   4.368  49.419  1.00  0.00     0.034 A 
HETATM    2  C9  UNL     1      25.052   5.510  49.150  1.00  0.00     0.029 A 
HETATM    3  C10 UNL     1      25.741   6.554  48.572  1.00  0.00     0.004 A 
HETATM    4  C11 UNL     1      27.084   6.542  48.247  1.00  0.00     0.023 A 
HETATM    5  C12 UNL     1      27.788   5.381  48.528  1.00  0.00     0.046 A 
HETATM    6  C13 UNL     1      29.192   5.310  48.211  1.00  0.00     0.099 C 
HETATM    7  N3  UNL     1      30.319   5.234  47.951  1.00  0.00    -0.191 NA
HETATM    8  C14 UNL     1      27.119   4.332  49.104  1.00  0.00     0.052 A 
ENDROOT
BRANCH   1   9
HETATM    9  N2  UNL     1      25.106   3.283  50.018  1.00  0.00    -0.355 N 
HETATM   10  H7  UNL     1      24.184   2.944  49.665  1.00  0.00     0.166 HD
BRANCH   9  11
HETATM   11  C7  UNL     1      25.363   2.409  51.108  1.00  0.00     0.046 A 
HETATM   12  C6  UNL     1      26.630   2.322  51.694  1.00  0.00     0.049 A 
HETATM   13  C5  UNL     1      26.958   1.502  52.749  1.00  0.00     0.119 A 
HETATM   14  N1  UNL     1      25.963   0.738  53.233  1.00  0.00    -0.260 NA
HETATM   15  C4  UNL     1      24.712   0.741  52.749  1.00  0.00     0.071 A 
HETATM   16  C3  UNL     1      23.732  -0.064  53.293  1.00  0.00     0.072 A 
HETATM   17  C15 UNL     1      24.444   1.576  51.699  1.00  0.00     0.022 A 
HETATM   18  C2  UNL     1      22.438  -0.080  52.820  1.00  0.00     0.103 A 
HETATM   19  C17 UNL     1      22.191   0.771  51.761  1.00  0.00     0.102 A 
HETATM   20  C16 UNL     1      23.155   1.577  51.211  1.00  0.00     0.055 A 
BRANCH  18  21
HETATM   21  O1  UNL     1      21.429  -0.861  53.325  1.00  0.00    -0.353 OA
HETATM   22  C1  UNL     1      21.575  -1.511  54.550  1.00  0.00     0.210 C 
ENDBRANCH  18  21
BRANCH  19  23
HETATM   23  O2  UNL     1      20.900   0.793  51.246  1.00  0.00    -0.353 OA
HETATM   24  C18 UNL     1      19.994   1.841  51.594  1.00  0.00     0.210 C 
ENDBRANCH  19  23
ENDBRANCH   9  11
ENDBRANCH   1   9
TORSDOF 4
ENDMDL
MODEL 7
REMARK VINA RESULT:      -7.5      2.380      3.692
REMARK  4 active torsions:
REMARK  status: ('A' for Active; 'I' for Inactive)
REMARK    1  A    between atoms: O1_2  and  C2_3 
REMARK    2  A    between atoms: C7_9  and  N2_10 
REMARK    3  A    between atoms: N2_10  and  C8_11 
REMARK    4  A    between atoms: C17_21  and  O2_22 
ROOT
HETATM    1  C8  UNL     1      26.761   1.273  53.577  1.00  0.00     0.034 A 
HETATM    2  C9  UNL     1      27.751   2.218  53.744  1.00  0.00     0.029 A 
HETATM    3  C10 UNL     1      29.045   1.748  53.812  1.00  0.00     0.004 A 
HETATM    4  C11 UNL     1      29.418   0.420  53.726  1.00  0.00     0.023 A 
HETATM    5  C12 UNL     1      28.403  -0.508  53.558  1.00  0.00     0.046 A 
HETATM    6  C13 UNL     1      28.731  -1.908  53.463  1.00  0.00     0.099 C 
HETATM    7  N3  UNL     1      28.981  -3.036  53.373  1.00  0.00    -0.191 NA
HETATM    8  C14 UNL     1      27.109  -0.059  53.489  1.00  0.00     0.052 A 
ENDROOT
BRANCH   1   9
HETATM    9  N2  UNL     1      25.425   1.717  53.513  1.00  0.00    -0.355 N 
HETATM   10  H7  UNL     1      25.092   2.537  54.066  1.00  0.00     0.166 HD
BRANCH   9  11
HETATM   11  C7  UNL     1      24.254   1.313  52.818  1.00  0.00     0.046 A 
HETATM   12  C6  UNL     1      23.402   0.329  53.331  1.00  0.00     0.049 A 
HETATM   13  C5  UNL     1      22.251  -0.117  52.721  1.00  0.00     0.119 A 
HETATM   14  N1  UNL     1      21.950   0.457  51.542  1.00  0.00    -0.260 NA
HETATM   15  C4  UNL     1      22.694   1.408  50.959  1.00  0.00     0.071 A 
HETATM   16  C3  UNL     1      22.329   1.962  49.749  1.00  0.00     0.072 A 
HETATM   17  C15 UNL     1      23.827   1.811  51.612  1.00  0.00     0.022 A 
HETATM   18  C2  UNL     1      23.070   2.942  49.128  1.00  0.00     0.103 A 
HETATM   19  C17 UNL     1      24.209   3.334  49.804  1.00  0.00     0.102 A 
HETATM   20  C16 UNL     1      24.584   2.793  51.008  1.00  0.00     0.055 A 
BRANCH  18  21
HETATM   21  O1  UNL     1      22.751   3.524  47.926  1.00  0.00    -0.353 OA
HETATM   22  C1  UNL     1      21.608   3.135  47.227  1.00  0.00     0.210 C 
ENDBRANCH  18  21
BRANCH  19  23
HETATM   23  O2  UNL     1      24.993   4.321  49.220  1.00  0.00    -0.353 OA
HETATM   24  C18 UNL     1      24.877   5.684  49.632  1.00  0.00     0.210 C 
ENDBRANCH  19  23
ENDBRANCH   9  11
ENDBRANCH   1   9
TORSDOF 4
ENDMDL
MODEL 8
REMARK VINA RESULT:      -7.4      2.885      7.013
REMARK  4 active torsions:
REMARK  status: ('A' for Active; 'I' for Inactive)
REMARK    1  A    between atoms: O1_2  and  C2_3 
REMARK    2  A    between atoms: C7_9  and  N2_10 
REMARK    3  A    between atoms: N2_10  and  C8_11 
REMARK    4  A    between atoms: C17_21  and  O2_22 
ROOT
HETATM    1  C8  UNL     1      22.125   2.084  50.592  1.00  0.00     0.034 A 
HETATM    2  C9  UNL     1      21.710   1.052  49.776  1.00  0.00     0.029 A 
HETATM    3  C10 UNL     1      21.693   1.307  48.422  1.00  0.00     0.004 A 
HETATM    4  C11 UNL     1      22.056   2.502  47.830  1.00  0.00     0.023 A 
HETATM    5  C12 UNL     1      22.469   3.521  48.673  1.00  0.00     0.046 A 
HETATM    6  C13 UNL     1      22.859   4.790  48.113  1.00  0.00     0.099 C 
HETATM    7  N3  UNL     1      23.187   5.812  47.675  1.00  0.00    -0.191 NA
HETATM    8  C14 UNL     1      22.491   3.286  50.023  1.00  0.00     0.052 A 
ENDROOT
BRANCH   1   9
HETATM    9  N2  UNL     1      22.145   1.861  51.983  1.00  0.00    -0.355 N 
HETATM   10  H7  UNL     1      21.631   2.481  52.647  1.00  0.00     0.166 HD
BRANCH   9  11
HETATM   11  C7  UNL     1      22.745   0.907  52.849  1.00  0.00     0.046 A 
HETATM   12  C6  UNL     1      21.974   0.059  53.651  1.00  0.00     0.049 A 
HETATM   13  C5  UNL     1      22.478  -0.888  54.512  1.00  0.00     0.119 A 
HETATM   14  N1  UNL     1      23.818  -0.983  54.565  1.00  0.00    -0.260 NA
HETATM   15  C4  UNL     1      24.653  -0.222  53.841  1.00  0.00     0.071 A 
HETATM   16  C3  UNL     1      26.021  -0.370  53.936  1.00  0.00     0.072 A 
HETATM   17  C15 UNL     1      24.094   0.703  53.001  1.00  0.00     0.022 A 
HETATM   18  C2  UNL     1      26.903   0.393  53.203  1.00  0.00     0.103 A 
HETATM   19  C17 UNL     1      26.318   1.320  52.363  1.00  0.00     0.102 A 
HETATM   20  C16 UNL     1      24.959   1.478  52.258  1.00  0.00     0.055 A 
BRANCH  18  21
HETATM   21  O1  UNL     1      28.270   0.285  53.262  1.00  0.00    -0.353 OA
HETATM   22  C1  UNL     1      28.929   0.239  54.490  1.00  0.00     0.210 C 
ENDBRANCH  18  21
BRANCH  19  23
HETATM   23  O2  UNL     1      27.164   2.116  51.600  1.00  0.00    -0.353 OA
HETATM   24  C18 UNL     1      26.635   3.034  50.642  1.00  0.00     0.210 C 
ENDBRANCH  19  23
ENDBRANCH   9  11
ENDBRANCH   1   9
TORSDOF 4
ENDMDL
MODEL 9
REMARK VINA RESULT:      -7.4      1.798      2.001
REMARK  4 active torsions:
REMARK  status: ('A' for Active; 'I' for Inactive)
REMARK    1  A    between atoms: O1_2  and  C2_3 
REMARK    2  A    between atoms: C7_9  and  N2_10 
REMARK    3  A    between atoms: N2_10  and  C8_11 
REMARK    4  A    between atoms: C17_21  and  O2_22 
ROOT
HETATM    1  C8  UNL     1      26.818   1.280  52.217  1.00  0.00     0.034 A 
HETATM    2  C9  UNL     1      27.487   2.310  52.846  1.00  0.00     0.029 A 
HETATM    3  C10 UNL     1      28.564   1.955  53.628  1.00  0.00     0.004 A 
HETATM    4  C11 UNL     1      29.017   0.665  53.828  1.00  0.00     0.023 A 
HETATM    5  C12 UNL     1      28.326  -0.350  53.184  1.00  0.00     0.046 A 
HETATM    6  C13 UNL     1      28.752  -1.716  53.355  1.00  0.00     0.099 C 
HETATM    7  N3  UNL     1      29.090  -2.818  53.473  1.00  0.00    -0.191 NA
HETATM    8  C14 UNL     1      27.251  -0.016  52.402  1.00  0.00     0.052 A 
ENDROOT
BRANCH   1   9
HETATM    9  N2  UNL     1      25.705   1.605  51.416  1.00  0.00    -0.355 N 
HETATM   10  H7  UNL     1      25.188   0.879  50.874  1.00  0.00     0.166 HD
BRANCH   9  11
HETATM   11  C7  UNL     1      24.999   2.796  51.097  1.00  0.00     0.046 A 
HETATM   12  C6  UNL     1      25.613   3.852  50.415  1.00  0.00     0.049 A 
HETATM   13  C5  UNL     1      24.998   5.034  50.070  1.00  0.00     0.119 A 
HETATM   14  N1  UNL     1      23.707   5.153  50.429  1.00  0.00    -0.260 NA
HETATM   15  C4  UNL     1      23.020   4.205  51.083  1.00  0.00     0.071 A 
HETATM   16  C3  UNL     1      21.694   4.385  51.420  1.00  0.00     0.072 A 
HETATM   17  C15 UNL     1      23.684   3.050  51.400  1.00  0.00     0.022 A 
HETATM   18  C2  UNL     1      20.962   3.429  52.087  1.00  0.00     0.103 A 
HETATM   19  C17 UNL     1      21.651   2.273  52.397  1.00  0.00     0.102 A 
HETATM   20  C16 UNL     1      22.969   2.079  52.069  1.00  0.00     0.055 A 
BRANCH  18  21
HETATM   21  O1  UNL     1      19.643   3.559  52.445  1.00  0.00    -0.353 OA
HETATM   22  C1  UNL     1      18.631   3.430  51.494  1.00  0.00     0.210 C 
ENDBRANCH  18  21
BRANCH  19  23
HETATM   23  O2  UNL     1      20.957   1.275  53.071  1.00  0.00    -0.353 OA
HETATM   24  C18 UNL     1      20.676   0.026  52.438  1.00  0.00     0.210 C 
ENDBRANCH  19  23
ENDBRANCH   9  11
ENDBRANCH   1   9
TORSDOF 4
ENDMDL
