MODEL 1
REMARK VINA RESULT:      -8.3      0.000      0.000
REMARK  6 active torsions:
REMARK  status: ('A' for Active; 'I' for Inactive)
REMARK    1  A    between atoms: C2_2  and  N2_10 
REMARK    2  A    between atoms: C3_3  and  C4_4 
REMARK    3  A    between atoms: C5_5  and  C6_7 
REMARK    4  A    between atoms: N2_10  and  C8_11 
REMARK    5  A    between atoms: C12_17  and  O1_18 
REMARK    6  A    between atoms: O1_18  and  C13_19 
ROOT
HETATM    1  C6  UNL     1      29.122  -0.092  53.543  1.00  0.00     0.194 C 
HETATM    2  C7  UNL     1      29.263   1.177  54.275  1.00  0.00     0.066 C 
HETATM    3  N1  UNL     1      29.369   2.174  54.861  1.00  0.00    -0.197 NA
ENDROOT
BRANCH   1   4
HETATM    4  C5  UNL     1      27.719  -0.209  53.131  1.00  0.00     0.106 C 
HETATM    5  C4  UNL     1      27.018   0.709  52.516  1.00  0.00     0.041 C 
HETATM    6  F1  UNL     1      27.154  -1.407  53.449  1.00  0.00    -0.210 F 
BRANCH   5   7
HETATM    7  C3  UNL     1      25.628   0.465  52.165  1.00  0.00     0.027 C 
HETATM    8  C2  UNL     1      24.646   1.265  52.542  1.00  0.00     0.007 C 
HETATM    9  C1  UNL     1      24.904   2.489  53.366  1.00  0.00     0.068 C 
BRANCH   8  10
HETATM   10  N2  UNL     1      23.294   1.003  52.188  1.00  0.00    -0.344 N 
HETATM   11  H8  UNL     1      23.403   1.596  51.348  1.00  0.00     0.167 HD
BRANCH  10  12
HETATM   12  C8  UNL     1      22.491   0.173  53.005  1.00  0.00     0.144 A 
HETATM   13  N3  UNL     1      23.161  -0.421  54.006  1.00  0.00    -0.223 NA
HETATM   14  C9  UNL     1      22.481  -1.246  54.857  1.00  0.00     0.236 A 
HETATM   15  N4  UNL     1      21.167  -1.446  54.676  1.00  0.00    -0.241 NA
HETATM   16  C10 UNL     1      20.463  -0.875  53.691  1.00  0.00     0.077 A 
HETATM   17  C11 UNL     1      19.091  -1.091  53.512  1.00  0.00     0.072 A 
HETATM   18  C18 UNL     1      21.152  -0.049  52.844  1.00  0.00     0.075 A 
HETATM   19  C12 UNL     1      18.395  -0.470  52.466  1.00  0.00     0.107 A 
HETATM   20  C16 UNL     1      19.168   0.334  51.673  1.00  0.00     0.136 A 
HETATM   21  C17 UNL     1      20.513   0.570  51.818  1.00  0.00     0.121 A 
HETATM   22  O3  UNL     1      18.503   0.956  50.635  1.00  0.00    -0.344 OA
HETATM   23  O2  UNL     1      21.155   1.415  50.928  1.00  0.00    -0.345 OA
HETATM   24  C19 UNL     1      20.371   2.402  50.285  1.00  0.00     0.202 C 
HETATM   25  C20 UNL     1      19.190   1.678  49.629  1.00  0.00     0.202 C 
BRANCH  19  26
HETATM   26  O1  UNL     1      17.084  -0.785  52.435  1.00  0.00    -0.344 OA
BRANCH  26  27
HETATM   27  C13 UNL     1      15.985  -0.139  51.912  1.00  0.00     0.121 C 
HETATM   28  C14 UNL     1      15.308  -1.111  50.930  1.00  0.00     0.040 C 
HETATM   29  C15 UNL     1      14.929   0.195  52.947  1.00  0.00     0.040 C 
ENDBRANCH  26  27
ENDBRANCH  19  26
ENDBRANCH  10  12
ENDBRANCH   8  10
ENDBRANCH   5   7
ENDBRANCH   1   4
TORSDOF 6
ENDMDL
MODEL 2
REMARK VINA RESULT:      -8.1      4.638      5.842
REMARK  6 active torsions:
REMARK  status: ('A' for Active; 'I' for Inactive)
REMARK    1  A    between atoms: C2_2  and  N2_10 
REMARK    2  A    between atoms: C3_3  and  C4_4 
REMARK    3  A    between atoms: C5_5  and  C6_7 
REMARK    4  A    between atoms: N2_10  and  C8_11 
REMARK    5  A    between atoms: C12_17  and  O1_18 
REMARK    6  A    between atoms: O1_18  and  C13_19 
ROOT
HETATM    1  C6  UNL     1      30.565   7.049  47.732  1.00  0.00     0.194 C 
HETATM    2  C7  UNL     1      29.961   8.205  48.413  1.00  0.00     0.066 C 
HETATM    3  N1  UNL     1      29.486   9.113  48.960  1.00  0.00    -0.197 NA
ENDROOT
BRANCH   1   4
HETATM    4  C5  UNL     1      29.690   5.895  47.961  1.00  0.00     0.106 C 
HETATM    5  C4  UNL     1      28.461   5.938  48.409  1.00  0.00     0.041 C 
HETATM    6  F1  UNL     1      30.271   4.700  47.664  1.00  0.00    -0.210 F 
BRANCH   5   7
HETATM    7  C3  UNL     1      27.700   4.713  48.595  1.00  0.00     0.027 C 
HETATM    8  C2  UNL     1      26.534   4.685  49.217  1.00  0.00     0.007 C 
HETATM    9  C1  UNL     1      25.915   5.927  49.779  1.00  0.00     0.068 C 
BRANCH   8  10
HETATM   10  N2  UNL     1      25.809   3.473  49.389  1.00  0.00    -0.344 N 
HETATM   11  H8  UNL     1      25.494   3.527  48.406  1.00  0.00     0.167 HD
BRANCH  10  12
HETATM   12  C8  UNL     1      25.821   2.806  50.636  1.00  0.00     0.144 A 
HETATM   13  N3  UNL     1      27.039   2.707  51.191  1.00  0.00    -0.223 NA
HETATM   14  C9  UNL     1      27.165   2.081  52.399  1.00  0.00     0.236 A 
HETATM   15  N4  UNL     1      26.078   1.579  53.002  1.00  0.00    -0.241 NA
HETATM   16  C10 UNL     1      24.845   1.656  52.482  1.00  0.00     0.077 A 
HETATM   17  C11 UNL     1      23.716   1.128  53.120  1.00  0.00     0.072 A 
HETATM   18  C18 UNL     1      24.729   2.286  51.272  1.00  0.00     0.075 A 
HETATM   19  C12 UNL     1      22.445   1.233  52.537  1.00  0.00     0.107 A 
HETATM   20  C16 UNL     1      22.430   1.878  51.330  1.00  0.00     0.136 A 
HETATM   21  C17 UNL     1      23.515   2.407  50.675  1.00  0.00     0.121 A 
HETATM   22  O3  UNL     1      21.188   1.992  50.737  1.00  0.00    -0.344 OA
HETATM   23  O2  UNL     1      23.333   3.033  49.453  1.00  0.00    -0.345 OA
HETATM   24  C19 UNL     1      22.059   3.588  49.188  1.00  0.00     0.202 C 
HETATM   25  C20 UNL     1      21.029   2.476  49.416  1.00  0.00     0.202 C 
BRANCH  19  26
HETATM   26  O1  UNL     1      21.469   0.674  53.280  1.00  0.00    -0.344 OA
BRANCH  26  27
HETATM   27  C13 UNL     1      20.938  -0.597  53.313  1.00  0.00     0.121 C 
HETATM   28  C14 UNL     1      21.382  -1.245  54.636  1.00  0.00     0.040 C 
HETATM   29  C15 UNL     1      19.423  -0.620  53.338  1.00  0.00     0.040 C 
ENDBRANCH  26  27
ENDBRANCH  19  26
ENDBRANCH  10  12
ENDBRANCH   8  10
ENDBRANCH   5   7
ENDBRANCH   1   4
TORSDOF 6
ENDMDL
MODEL 3
REMARK VINA RESULT:      -7.9      3.276      8.512
REMARK  6 active torsions:
REMARK  status: ('A' for Active; 'I' for Inactive)
REMARK    1  A    between atoms: C2_2  and  N2_10 
REMARK    2  A    between atoms: C3_3  and  C4_4 
REMARK    3  A    between atoms: C5_5  and  C6_7 
REMARK    4  A    between atoms: N2_10  and  C8_11 
REMARK    5  A    between atoms: C12_17  and  O1_18 
REMARK    6  A    between atoms: O1_18  and  C13_19 
ROOT
HETATM    1  C6  UNL     1      16.098  -0.674  50.799  1.00  0.00     0.194 C 
HETATM    2  C7  UNL     1      15.917  -0.942  49.364  1.00  0.00     0.066 C 
HETATM    3  N1  UNL     1      15.778  -1.162  48.232  1.00  0.00    -0.197 NA
ENDROOT
BRANCH   1   4
HETATM    4  C5  UNL     1      17.514  -0.356  51.013  1.00  0.00     0.106 C 
HETATM    5  C4  UNL     1      18.210   0.536  50.356  1.00  0.00     0.041 C 
HETATM    6  F1  UNL     1      18.098  -1.095  51.996  1.00  0.00    -0.210 F 
BRANCH   5   7
HETATM    7  C3  UNL     1      19.614   0.751  50.666  1.00  0.00     0.027 C 
HETATM    8  C2  UNL     1      20.042   1.805  51.340  1.00  0.00     0.007 C 
HETATM    9  C1  UNL     1      19.099   2.857  51.833  1.00  0.00     0.068 C 
BRANCH   8  10
HETATM   10  N2  UNL     1      21.422   1.994  51.629  1.00  0.00    -0.344 N 
HETATM   11  H8  UNL     1      21.415   2.868  51.075  1.00  0.00     0.167 HD
BRANCH  10  12
HETATM   12  C8  UNL     1      22.118   1.056  52.427  1.00  0.00     0.144 A 
HETATM   13  N3  UNL     1      21.321   0.249  53.143  1.00  0.00    -0.223 NA
HETATM   14  C9  UNL     1      21.890  -0.696  53.950  1.00  0.00     0.236 A 
HETATM   15  N4  UNL     1      23.225  -0.797  54.010  1.00  0.00    -0.241 NA
HETATM   16  C10 UNL     1      24.057  -0.012  53.312  1.00  0.00     0.077 A 
HETATM   17  C11 UNL     1      25.451  -0.126  53.383  1.00  0.00     0.072 A 
HETATM   18  C18 UNL     1      23.477   0.931  52.507  1.00  0.00     0.075 A 
HETATM   19  C12 UNL     1      26.281   0.718  52.633  1.00  0.00     0.107 A 
HETATM   20  C16 UNL     1      25.611   1.627  51.860  1.00  0.00     0.136 A 
HETATM   21  C17 UNL     1      24.248   1.769  51.766  1.00  0.00     0.121 A 
HETATM   22  O3  UNL     1      26.410   2.471  51.114  1.00  0.00    -0.344 OA
HETATM   23  O2  UNL     1      23.721   2.742  50.934  1.00  0.00    -0.345 OA
HETATM   24  C19 UNL     1      24.512   3.160  49.837  1.00  0.00     0.202 C 
HETATM   25  C20 UNL     1      25.877   3.572  50.400  1.00  0.00     0.202 C 
BRANCH  19  26
HETATM   26  O1  UNL     1      27.595   0.476  52.817  1.00  0.00    -0.344 OA
BRANCH  26  27
HETATM   27  C13 UNL     1      28.480   0.847  53.806  1.00  0.00     0.121 C 
HETATM   28  C14 UNL     1      29.767   0.032  53.599  1.00  0.00     0.040 C 
HETATM   29  C15 UNL     1      28.901   2.301  53.726  1.00  0.00     0.040 C 
ENDBRANCH  26  27
ENDBRANCH  19  26
ENDBRANCH  10  12
ENDBRANCH   8  10
ENDBRANCH   5   7
ENDBRANCH   1   4
TORSDOF 6
ENDMDL
MODEL 4
REMARK VINA RESULT:      -7.9      3.459      8.545
REMARK  6 active torsions:
REMARK  status: ('A' for Active; 'I' for Inactive)
REMARK    1  A    between atoms: C2_2  and  N2_10 
REMARK    2  A    between atoms: C3_3  and  C4_4 
REMARK    3  A    between atoms: C5_5  and  C6_7 
REMARK    4  A    between atoms: N2_10  and  C8_11 
REMARK    5  A    between atoms: C12_17  and  O1_18 
REMARK    6  A    between atoms: O1_18  and  C13_19 
ROOT
HETATM    1  C6  UNL     1      16.314   1.020  49.585  1.00  0.00     0.194 C 
HETATM    2  C7  UNL     1      16.377   1.992  48.482  1.00  0.00     0.066 C 
HETATM    3  N1  UNL     1      16.435   2.756  47.609  1.00  0.00    -0.197 NA
ENDROOT
BRANCH   1   4
HETATM    4  C5  UNL     1      17.384   1.355  50.531  1.00  0.00     0.106 C 
HETATM    5  C4  UNL     1      18.247   0.517  51.044  1.00  0.00     0.041 C 
HETATM    6  F1  UNL     1      17.424   2.675  50.865  1.00  0.00    -0.210 F 
BRANCH   5   7
HETATM    7  C3  UNL     1      19.261   0.982  51.978  1.00  0.00     0.027 C 
HETATM    8  C2  UNL     1      20.545   1.032  51.669  1.00  0.00     0.007 C 
HETATM    9  C1  UNL     1      21.045   0.610  50.323  1.00  0.00     0.068 C 
BRANCH   8  10
HETATM   10  N2  UNL     1      21.518   1.488  52.601  1.00  0.00    -0.344 N 
HETATM   11  H8  UNL     1      21.284   2.467  52.361  1.00  0.00     0.167 HD
BRANCH  10  12
HETATM   12  C8  UNL     1      22.280   0.560  53.348  1.00  0.00     0.144 A 
HETATM   13  N3  UNL     1      21.552  -0.195  54.186  1.00  0.00    -0.223 NA
HETATM   14  C9  UNL     1      22.188  -1.127  54.957  1.00  0.00     0.236 A 
HETATM   15  N4  UNL     1      23.518  -1.268  54.863  1.00  0.00    -0.241 NA
HETATM   16  C10 UNL     1      24.281  -0.535  54.040  1.00  0.00     0.077 A 
HETATM   17  C11 UNL     1      25.669  -0.691  53.950  1.00  0.00     0.072 A 
HETATM   18  C18 UNL     1      23.634   0.395  53.271  1.00  0.00     0.075 A 
HETATM   19  C12 UNL     1      26.427   0.099  53.073  1.00  0.00     0.107 A 
HETATM   20  C16 UNL     1      25.693   0.999  52.349  1.00  0.00     0.136 A 
HETATM   21  C17 UNL     1      24.333   1.180  52.411  1.00  0.00     0.121 A 
HETATM   22  O3  UNL     1      26.419   1.789  51.479  1.00  0.00    -0.344 OA
HETATM   23  O2  UNL     1      23.737   2.138  51.608  1.00  0.00    -0.345 OA
HETATM   24  C19 UNL     1      24.402   2.489  50.409  1.00  0.00     0.202 C 
HETATM   25  C20 UNL     1      25.835   2.879  50.790  1.00  0.00     0.202 C 
BRANCH  19  26
HETATM   26  O1  UNL     1      27.746  -0.178  53.109  1.00  0.00    -0.344 OA
BRANCH  26  27
HETATM   27  C13 UNL     1      28.680  -0.120  54.121  1.00  0.00     0.121 C 
HETATM   28  C14 UNL     1      29.922  -0.891  53.641  1.00  0.00     0.040 C 
HETATM   29  C15 UNL     1      29.164   1.285  54.419  1.00  0.00     0.040 C 
ENDBRANCH  26  27
ENDBRANCH  19  26
ENDBRANCH  10  12
ENDBRANCH   8  10
ENDBRANCH   5   7
ENDBRANCH   1   4
TORSDOF 6
ENDMDL
MODEL 5
REMARK VINA RESULT:      -7.8      4.813      6.377
REMARK  6 active torsions:
REMARK  status: ('A' for Active; 'I' for Inactive)
REMARK    1  A    between atoms: C2_2  and  N2_10 
REMARK    2  A    between atoms: C3_3  and  C4_4 
REMARK    3  A    between atoms: C5_5  and  C6_7 
REMARK    4  A    between atoms: N2_10  and  C8_11 
REMARK    5  A    between atoms: C12_17  and  O1_18 
REMARK    6  A    between atoms: O1_18  and  C13_19 
ROOT
HETATM    1  C6  UNL     1      26.061   9.184  48.174  1.00  0.00     0.194 C 
HETATM    2  C7  UNL     1      27.511   9.273  47.939  1.00  0.00     0.066 C 
HETATM    3  N1  UNL     1      28.654   9.338  47.745  1.00  0.00    -0.197 NA
ENDROOT
BRANCH   1   4
HETATM    4  C5  UNL     1      25.746   7.781  48.462  1.00  0.00     0.106 C 
HETATM    5  C4  UNL     1      26.151   7.099  49.502  1.00  0.00     0.041 C 
HETATM    6  F1  UNL     1      24.959   7.193  47.519  1.00  0.00    -0.210 F 
BRANCH   5   7
HETATM    7  C3  UNL     1      25.767   5.706  49.667  1.00  0.00     0.027 C 
HETATM    8  C2  UNL     1      26.524   4.704  49.253  1.00  0.00     0.007 C 
HETATM    9  C1  UNL     1      27.841   4.941  48.580  1.00  0.00     0.068 C 
BRANCH   8  10
HETATM   10  N2  UNL     1      26.126   3.350  49.424  1.00  0.00    -0.344 N 
HETATM   11  H8  UNL     1      25.985   3.266  48.403  1.00  0.00     0.167 HD
BRANCH  10  12
HETATM   12  C8  UNL     1      26.093   2.774  50.715  1.00  0.00     0.144 A 
HETATM   13  N3  UNL     1      27.286   2.738  51.328  1.00  0.00    -0.223 NA
HETATM   14  C9  UNL     1      27.369   2.201  52.582  1.00  0.00     0.236 A 
HETATM   15  N4  UNL     1      26.263   1.722  53.171  1.00  0.00    -0.241 NA
HETATM   16  C10 UNL     1      25.054   1.739  52.595  1.00  0.00     0.077 A 
HETATM   17  C11 UNL     1      23.907   1.236  53.220  1.00  0.00     0.072 A 
HETATM   18  C18 UNL     1      24.982   2.279  51.339  1.00  0.00     0.075 A 
HETATM   19  C12 UNL     1      22.661   1.276  52.577  1.00  0.00     0.107 A 
HETATM   20  C16 UNL     1      22.689   1.832  51.327  1.00  0.00     0.136 A 
HETATM   21  C17 UNL     1      23.794   2.333  50.683  1.00  0.00     0.121 A 
HETATM   22  O3  UNL     1      21.473   1.880  50.674  1.00  0.00    -0.344 OA
HETATM   23  O2  UNL     1      23.656   2.868  49.413  1.00  0.00    -0.345 OA
HETATM   24  C19 UNL     1      22.386   3.378  49.054  1.00  0.00     0.202 C 
HETATM   25  C20 UNL     1      21.365   2.265  49.316  1.00  0.00     0.202 C 
BRANCH  19  26
HETATM   26  O1  UNL     1      21.662   0.752  53.316  1.00  0.00    -0.344 OA
BRANCH  26  27
HETATM   27  C13 UNL     1      21.123  -0.515  53.386  1.00  0.00     0.121 C 
HETATM   28  C14 UNL     1      21.538  -1.114  54.740  1.00  0.00     0.040 C 
HETATM   29  C15 UNL     1      19.607  -0.529  53.383  1.00  0.00     0.040 C 
ENDBRANCH  26  27
ENDBRANCH  19  26
ENDBRANCH  10  12
ENDBRANCH   8  10
ENDBRANCH   5   7
ENDBRANCH   1   4
TORSDOF 6
ENDMDL
MODEL 6
REMARK VINA RESULT:      -7.8      4.412      8.975
REMARK  6 active torsions:
REMARK  status: ('A' for Active; 'I' for Inactive)
REMARK    1  A    between atoms: C2_2  and  N2_10 
REMARK    2  A    between atoms: C3_3  and  C4_4 
REMARK    3  A    between atoms: C5_5  and  C6_7 
REMARK    4  A    between atoms: N2_10  and  C8_11 
REMARK    5  A    between atoms: C12_17  and  O1_18 
REMARK    6  A    between atoms: O1_18  and  C13_19 
ROOT
HETATM    1  C6  UNL     1      20.841   4.816  44.796  1.00  0.00     0.194 C 
HETATM    2  C7  UNL     1      20.438   3.915  43.705  1.00  0.00     0.066 C 
HETATM    3  N1  UNL     1      20.113   3.199  42.850  1.00  0.00    -0.197 NA
ENDROOT
BRANCH   1   4
HETATM    4  C5  UNL     1      21.536   4.007  45.802  1.00  0.00     0.106 C 
HETATM    5  C4  UNL     1      21.336   4.050  47.095  1.00  0.00     0.041 C 
HETATM    6  F1  UNL     1      22.462   3.158  45.278  1.00  0.00    -0.210 F 
BRANCH   5   7
HETATM    7  C3  UNL     1      22.098   3.192  47.988  1.00  0.00     0.027 C 
HETATM    8  C2  UNL     1      22.257   3.462  49.273  1.00  0.00     0.007 C 
HETATM    9  C1  UNL     1      21.656   4.682  49.898  1.00  0.00     0.068 C 
BRANCH   8  10
HETATM   10  N2  UNL     1      23.009   2.608  50.126  1.00  0.00    -0.344 N 
HETATM   11  H8  UNL     1      22.156   2.061  50.326  1.00  0.00     0.167 HD
BRANCH  10  12
HETATM   12  C8  UNL     1      24.394   2.830  50.314  1.00  0.00     0.144 A 
HETATM   13  N3  UNL     1      24.931   3.700  49.445  1.00  0.00    -0.223 NA
HETATM   14  C9  UNL     1      26.264   3.988  49.537  1.00  0.00     0.236 A 
HETATM   15  N4  UNL     1      27.004   3.398  50.487  1.00  0.00    -0.241 NA
HETATM   16  C10 UNL     1      26.508   2.525  51.373  1.00  0.00     0.077 A 
HETATM   17  C11 UNL     1      27.290   1.916  52.361  1.00  0.00     0.072 A 
HETATM   18  C18 UNL     1      25.172   2.244  51.273  1.00  0.00     0.075 A 
HETATM   19  C12 UNL     1      26.726   1.007  53.268  1.00  0.00     0.107 A 
HETATM   20  C16 UNL     1      25.387   0.790  53.088  1.00  0.00     0.136 A 
HETATM   21  C17 UNL     1      24.589   1.368  52.132  1.00  0.00     0.121 A 
HETATM   22  O3  UNL     1      24.810  -0.103  53.970  1.00  0.00    -0.344 OA
HETATM   23  O2  UNL     1      23.243   1.043  52.081  1.00  0.00    -0.345 OA
HETATM   24  C19 UNL     1      22.634   0.600  53.280  1.00  0.00     0.202 C 
HETATM   25  C20 UNL     1      23.480  -0.563  53.810  1.00  0.00     0.202 C 
BRANCH  19  26
HETATM   26  O1  UNL     1      27.615   0.513  54.153  1.00  0.00    -0.344 OA
BRANCH  26  27
HETATM   27  C13 UNL     1      28.525  -0.520  54.078  1.00  0.00     0.121 C 
HETATM   28  C14 UNL     1      27.998  -1.521  53.036  1.00  0.00     0.040 C 
HETATM   29  C15 UNL     1      29.889  -0.089  53.575  1.00  0.00     0.040 C 
ENDBRANCH  26  27
ENDBRANCH  19  26
ENDBRANCH  10  12
ENDBRANCH   8  10
ENDBRANCH   5   7
ENDBRANCH   1   4
TORSDOF 6
ENDMDL
MODEL 7
REMARK VINA RESULT:      -7.7      2.218      2.893
REMARK  6 active torsions:
REMARK  status: ('A' for Active; 'I' for Inactive)
REMARK    1  A    between atoms: C2_2  and  N2_10 
REMARK    2  A    between atoms: C3_3  and  C4_4 
REMARK    3  A    between atoms: C5_5  and  C6_7 
REMARK    4  A    between atoms: N2_10  and  C8_11 
REMARK    5  A    between atoms: C12_17  and  O1_18 
REMARK    6  A    between atoms: O1_18  and  C13_19 
ROOT
HETATM    1  C6  UNL     1      29.476   0.176  53.836  1.00  0.00     0.194 C 
HETATM    2  C7  UNL     1      29.424  -1.279  53.617  1.00  0.00     0.066 C 
HETATM    3  N1  UNL     1      29.379  -2.425  53.435  1.00  0.00    -0.197 NA
ENDROOT
BRANCH   1   4
HETATM    4  C5  UNL     1      28.095   0.652  53.964  1.00  0.00     0.106 C 
HETATM    5  C4  UNL     1      27.668   1.856  53.679  1.00  0.00     0.041 C 
HETATM    6  F1  UNL     1      27.231  -0.292  54.429  1.00  0.00    -0.210 F 
BRANCH   5   7
HETATM    7  C3  UNL     1      26.266   2.202  53.854  1.00  0.00     0.027 C 
HETATM    8  C2  UNL     1      25.416   2.266  52.844  1.00  0.00     0.007 C 
HETATM    9  C1  UNL     1      25.845   1.986  51.438  1.00  0.00     0.068 C 
BRANCH   8  10
HETATM   10  N2  UNL     1      24.050   2.609  53.041  1.00  0.00    -0.344 N 
HETATM   11  H8  UNL     1      24.328   3.581  53.258  1.00  0.00     0.167 HD
BRANCH  10  12
HETATM   12  C8  UNL     1      23.039   1.632  52.884  1.00  0.00     0.144 A 
HETATM   13  N3  UNL     1      23.331   0.450  53.448  1.00  0.00    -0.223 NA
HETATM   14  C9  UNL     1      22.423  -0.568  53.356  1.00  0.00     0.236 A 
HETATM   15  N4  UNL     1      21.267  -0.367  52.707  1.00  0.00    -0.241 NA
HETATM   16  C10 UNL     1      20.937   0.797  52.130  1.00  0.00     0.077 A 
HETATM   17  C11 UNL     1      19.727   0.996  51.455  1.00  0.00     0.072 A 
HETATM   18  C18 UNL     1      21.853   1.810  52.229  1.00  0.00     0.075 A 
HETATM   19  C12 UNL     1      19.426   2.233  50.867  1.00  0.00     0.107 A 
HETATM   20  C16 UNL     1      20.401   3.181  51.017  1.00  0.00     0.136 A 
HETATM   21  C17 UNL     1      21.598   3.022  51.671  1.00  0.00     0.121 A 
HETATM   22  O3  UNL     1      20.126   4.407  50.444  1.00  0.00    -0.344 OA
HETATM   23  O2  UNL     1      22.484   4.085  51.736  1.00  0.00    -0.345 OA
HETATM   24  C19 UNL     1      21.945   5.390  51.641  1.00  0.00     0.202 C 
HETATM   25  C20 UNL     1      21.099   5.432  50.363  1.00  0.00     0.202 C 
BRANCH  19  26
HETATM   26  O1  UNL     1      18.223   2.255  50.258  1.00  0.00    -0.344 OA
BRANCH  26  27
HETATM   27  C13 UNL     1      16.938   2.370  50.742  1.00  0.00     0.121 C 
HETATM   28  C14 UNL     1      16.912   3.580  51.692  1.00  0.00     0.040 C 
HETATM   29  C15 UNL     1      15.911   2.674  49.669  1.00  0.00     0.040 C 
ENDBRANCH  26  27
ENDBRANCH  19  26
ENDBRANCH  10  12
ENDBRANCH   8  10
ENDBRANCH   5   7
ENDBRANCH   1   4
TORSDOF 6
ENDMDL
MODEL 8
REMARK VINA RESULT:      -7.6      3.645      8.113
REMARK  6 active torsions:
REMARK  status: ('A' for Active; 'I' for Inactive)
REMARK    1  A    between atoms: C2_2  and  N2_10 
REMARK    2  A    between atoms: C3_3  and  C4_4 
REMARK    3  A    between atoms: C5_5  and  C6_7 
REMARK    4  A    between atoms: N2_10  and  C8_11 
REMARK    5  A    between atoms: C12_17  and  O1_18 
REMARK    6  A    between atoms: O1_18  and  C13_19 
ROOT
HETATM    1  C6  UNL     1      19.723   3.478  46.490  1.00  0.00     0.194 C 
HETATM    2  C7  UNL     1      20.704   3.781  45.436  1.00  0.00     0.066 C 
HETATM    3  N1  UNL     1      21.483   4.011  44.606  1.00  0.00    -0.197 NA
ENDROOT
BRANCH   1   4
HETATM    4  C5  UNL     1      20.423   3.545  47.777  1.00  0.00     0.106 C 
HETATM    5  C4  UNL     1      20.167   2.812  48.831  1.00  0.00     0.041 C 
HETATM    6  F1  UNL     1      21.415   4.477  47.812  1.00  0.00    -0.210 F 
BRANCH   5   7
HETATM    7  C3  UNL     1      20.938   2.982  50.052  1.00  0.00     0.027 C 
HETATM    8  C2  UNL     1      20.893   2.116  51.050  1.00  0.00     0.007 C 
HETATM    9  C1  UNL     1      20.035   0.891  50.988  1.00  0.00     0.068 C 
BRANCH   8  10
HETATM   10  N2  UNL     1      21.655   2.306  52.236  1.00  0.00    -0.344 N 
HETATM   11  H8  UNL     1      21.516   3.328  52.158  1.00  0.00     0.167 HD
BRANCH  10  12
HETATM   12  C8  UNL     1      22.200   1.194  52.919  1.00  0.00     0.144 A 
HETATM   13  N3  UNL     1      21.306   0.509  53.649  1.00  0.00    -0.223 NA
HETATM   14  C9  UNL     1      21.726  -0.586  54.350  1.00  0.00     0.236 A 
HETATM   15  N4  UNL     1      23.015  -0.952  54.296  1.00  0.00    -0.241 NA
HETATM   16  C10 UNL     1      23.939  -0.297  53.581  1.00  0.00     0.077 A 
HETATM   17  C11 UNL     1      25.282  -0.688  53.532  1.00  0.00     0.072 A 
HETATM   18  C18 UNL     1      23.508   0.798  52.881  1.00  0.00     0.075 A 
HETATM   19  C12 UNL     1      26.214   0.029  52.768  1.00  0.00     0.107 A 
HETATM   20  C16 UNL     1      25.690   1.106  52.107  1.00  0.00     0.136 A 
HETATM   21  C17 UNL     1      24.381   1.520  52.131  1.00  0.00     0.121 A 
HETATM   22  O3  UNL     1      26.590   1.829  51.348  1.00  0.00    -0.344 OA
HETATM   23  O2  UNL     1      24.006   2.636  51.402  1.00  0.00    -0.345 OA
HETATM   24  C19 UNL     1      24.789   2.970  50.272  1.00  0.00     0.202 C 
HETATM   25  C20 UNL     1      26.244   3.063  50.746  1.00  0.00     0.202 C 
BRANCH  19  26
HETATM   26  O1  UNL     1      27.461  -0.480  52.831  1.00  0.00    -0.344 OA
BRANCH  26  27
HETATM   27  C13 UNL     1      28.459  -0.381  53.775  1.00  0.00     0.121 C 
HETATM   28  C14 UNL     1      29.586  -1.339  53.353  1.00  0.00     0.040 C 
HETATM   29  C15 UNL     1      29.097   0.993  53.841  1.00  0.00     0.040 C 
ENDBRANCH  26  27
ENDBRANCH  19  26
ENDBRANCH  10  12
ENDBRANCH   8  10
ENDBRANCH   5   7
ENDBRANCH   1   4
TORSDOF 6
ENDMDL
MODEL 9
REMARK VINA RESULT:      -7.6      2.038      3.474
REMARK  6 active torsions:
REMARK  status: ('A' for Active; 'I' for Inactive)
REMARK    1  A    between atoms: C2_2  and  N2_10 
REMARK    2  A    between atoms: C3_3  and  C4_4 
REMARK    3  A    between atoms: C5_5  and  C6_7 
REMARK    4  A    between atoms: N2_10  and  C8_11 
REMARK    5  A    between atoms: C12_17  and  O1_18 
REMARK    6  A    between atoms: O1_18  and  C13_19 
ROOT
HETATM    1  C6  UNL     1      28.174  -2.000  53.076  1.00  0.00     0.194 C 
HETATM    2  C7  UNL     1      29.305  -1.104  53.365  1.00  0.00     0.066 C 
HETATM    3  N1  UNL     1      30.194  -0.396  53.602  1.00  0.00    -0.197 NA
ENDROOT
BRANCH   1   4
HETATM    4  C5  UNL     1      26.971  -1.169  52.961  1.00  0.00     0.106 C 
HETATM    5  C4  UNL     1      26.747  -0.262  52.046  1.00  0.00     0.041 C 
HETATM    6  F1  UNL     1      26.044  -1.411  53.929  1.00  0.00    -0.210 F 
BRANCH   5   7
HETATM    7  C3  UNL     1      25.508   0.499  52.047  1.00  0.00     0.027 C 
HETATM    8  C2  UNL     1      25.470   1.802  51.826  1.00  0.00     0.007 C 
HETATM    9  C1  UNL     1      26.715   2.588  51.558  1.00  0.00     0.068 C 
BRANCH   8  10
HETATM   10  N2  UNL     1      24.245   2.524  51.836  1.00  0.00    -0.344 N 
HETATM   11  H8  UNL     1      24.482   2.907  52.767  1.00  0.00     0.167 HD
BRANCH  10  12
HETATM   12  C8  UNL     1      23.355   2.431  50.741  1.00  0.00     0.144 A 
HETATM   13  N3  UNL     1      23.806   3.012  49.619  1.00  0.00    -0.223 NA
HETATM   14  C9  UNL     1      23.025   2.981  48.498  1.00  0.00     0.236 A 
HETATM   15  N4  UNL     1      21.829   2.376  48.542  1.00  0.00    -0.241 NA
HETATM   16  C10 UNL     1      21.341   1.786  49.641  1.00  0.00     0.077 A 
HETATM   17  C11 UNL     1      20.090   1.157  49.675  1.00  0.00     0.072 A 
HETATM   18  C18 UNL     1      22.131   1.821  50.757  1.00  0.00     0.075 A 
HETATM   19  C12 UNL     1      19.621   0.552  50.849  1.00  0.00     0.107 A 
HETATM   20  C16 UNL     1      20.480   0.640  51.911  1.00  0.00     0.136 A 
HETATM   21  C17 UNL     1      21.711   1.247  51.914  1.00  0.00     0.121 A 
HETATM   22  O3  UNL     1      20.037   0.051  53.079  1.00  0.00    -0.344 OA
HETATM   23  O2  UNL     1      22.465   1.251  53.077  1.00  0.00    -0.345 OA
HETATM   24  C19 UNL     1      22.232   0.211  54.008  1.00  0.00     0.202 C 
HETATM   25  C20 UNL     1      20.728   0.204  54.305  1.00  0.00     0.202 C 
BRANCH  19  26
HETATM   26  O1  UNL     1      18.401  -0.007  50.711  1.00  0.00    -0.344 OA
BRANCH  26  27
HETATM   27  C13 UNL     1      17.132   0.454  50.985  1.00  0.00     0.121 C 
HETATM   28  C14 UNL     1      16.633  -0.292  52.234  1.00  0.00     0.040 C 
HETATM   29  C15 UNL     1      17.086   1.926  51.345  1.00  0.00     0.040 C 
ENDBRANCH  26  27
ENDBRANCH  19  26
ENDBRANCH  10  12
ENDBRANCH   8  10
ENDBRANCH   5   7
ENDBRANCH   1   4
TORSDOF 6
ENDMDL
