MODEL 1
REMARK VINA RESULT:      -7.3      0.000      0.000
REMARK  4 active torsions:
REMARK  status: ('A' for Active; 'I' for Inactive)
REMARK    1  A    between atoms: C1_2  and  C2_3 
REMARK       I    between atoms: C1_2  and  N1_11 
REMARK    2  A    between atoms: C2_3  and  C3_4 
REMARK    3  A    between atoms: N1_11  and  S1_12 
REMARK    4  A    between atoms: S1_12  and  C9_15 
ROOT
HETATM    1  O1  UNL     1      24.286   2.912  53.007  1.00  0.00    -0.272 OA
HETATM    2  C1  UNL     1      23.963   1.791  52.525  1.00  0.00     0.235 C 
HETATM    3  N1  UNL     1      23.472   1.528  51.217  1.00  0.00    -0.250 N 
HETATM    4  H7  UNL     1      23.230   0.580  50.902  1.00  0.00     0.181 HD
ENDROOT
BRANCH   3   5
HETATM    5  S1  UNL     1      23.325   2.943  50.218  1.00  0.00     0.266 S 
HETATM    6  O2  UNL     1      22.655   2.515  48.945  1.00  0.00    -0.200 OA
HETATM    7  O3  UNL     1      22.518   3.940  50.994  1.00  0.00    -0.200 OA
BRANCH   5   8
HETATM    8  C9  UNL     1      24.867   3.615  49.825  1.00  0.00     0.092 C 
HETATM    9  C10 UNL     1      25.032   4.863  49.418  1.00  0.00     0.022 C 
HETATM   10  C11 UNL     1      26.249   5.147  49.012  1.00  0.00     0.046 C 
HETATM   11 CL2  UNL     1      26.744   6.626  48.245  1.00  0.00    -0.083 Cl
HETATM   12  C12 UNL     1      27.007   3.948  49.364  1.00  0.00     0.026 C 
HETATM   13  C13 UNL     1      26.200   3.023  49.852  1.00  0.00     0.028 C 
ENDBRANCH   5   8
ENDBRANCH   3   5
BRANCH   2  14
HETATM   14  C2  UNL     1      24.137   0.664  53.488  1.00  0.00     0.142 C 
BRANCH  14  15
HETATM   15  C3  UNL     1      25.553   0.220  53.425  1.00  0.00    -0.049 A 
HETATM   16  C4  UNL     1      26.169  -0.455  52.401  1.00  0.00     0.009 A 
HETATM   17  C5  UNL     1      27.502  -0.778  52.539  1.00  0.00     0.024 A 
HETATM   18  C6  UNL     1      28.189  -0.435  53.660  1.00  0.00     0.034 A 
HETATM   19 CL1  UNL     1      29.884  -0.853  53.819  1.00  0.00    -0.084 Cl
HETATM   20  C7  UNL     1      27.602   0.244  54.709  1.00  0.00     0.024 A 
HETATM   21  C8  UNL     1      26.259   0.572  54.575  1.00  0.00     0.009 A 
ENDBRANCH  14  15
ENDBRANCH   2  14
TORSDOF 4
ENDMDL
MODEL 2
REMARK VINA RESULT:      -7.3      1.821      2.200
REMARK  4 active torsions:
REMARK  status: ('A' for Active; 'I' for Inactive)
REMARK    1  A    between atoms: C1_2  and  C2_3 
REMARK       I    between atoms: C1_2  and  N1_11 
REMARK    2  A    between atoms: C2_3  and  C3_4 
REMARK    3  A    between atoms: N1_11  and  S1_12 
REMARK    4  A    between atoms: S1_12  and  C9_15 
ROOT
HETATM    1  O1  UNL     1      23.378   2.717  51.524  1.00  0.00    -0.272 OA
HETATM    2  C1  UNL     1      24.513   3.030  51.977  1.00  0.00     0.235 C 
HETATM    3  N1  UNL     1      25.504   3.823  51.337  1.00  0.00    -0.250 N 
HETATM    4  H7  UNL     1      26.409   4.032  51.778  1.00  0.00     0.181 HD
ENDROOT
BRANCH   3   5
HETATM    5  S1  UNL     1      25.044   4.397  49.762  1.00  0.00     0.266 S 
HETATM    6  O2  UNL     1      24.742   3.189  48.925  1.00  0.00    -0.200 OA
HETATM    7  O3  UNL     1      23.850   5.284  49.956  1.00  0.00    -0.200 OA
BRANCH   5   8
HETATM    8  C9  UNL     1      26.317   5.284  49.004  1.00  0.00     0.092 C 
HETATM    9  C10 UNL     1      27.491   4.754  48.704  1.00  0.00     0.022 C 
HETATM   10  C11 UNL     1      28.387   5.618  48.282  1.00  0.00     0.046 C 
HETATM   11 CL2  UNL     1      30.066   5.279  47.990  1.00  0.00    -0.083 Cl
HETATM   12  C12 UNL     1      27.619   6.854  48.141  1.00  0.00     0.026 C 
HETATM   13  C13 UNL     1      26.381   6.674  48.567  1.00  0.00     0.028 C 
ENDBRANCH   5   8
ENDBRANCH   3   5
BRANCH   2  14
HETATM   14  C2  UNL     1      24.779   2.471  53.336  1.00  0.00     0.142 C 
BRANCH  14  15
HETATM   15  C3  UNL     1      25.831   1.431  53.208  1.00  0.00    -0.049 A 
HETATM   16  C4  UNL     1      25.736   0.227  52.555  1.00  0.00     0.009 A 
HETATM   17  C5  UNL     1      26.836  -0.604  52.552  1.00  0.00     0.024 A 
HETATM   18  C6  UNL     1      27.985  -0.241  53.181  1.00  0.00     0.034 A 
HETATM   19 CL1  UNL     1      29.373  -1.310  53.168  1.00  0.00    -0.084 Cl
HETATM   20  C7  UNL     1      28.115   0.962  53.846  1.00  0.00     0.024 A 
HETATM   21  C8  UNL     1      27.010   1.803  53.852  1.00  0.00     0.009 A 
ENDBRANCH  14  15
ENDBRANCH   2  14
TORSDOF 4
ENDMDL
MODEL 3
REMARK VINA RESULT:      -7.3      2.186      6.722
REMARK  4 active torsions:
REMARK  status: ('A' for Active; 'I' for Inactive)
REMARK    1  A    between atoms: C1_2  and  C2_3 
REMARK       I    between atoms: C1_2  and  N1_11 
REMARK    2  A    between atoms: C2_3  and  C3_4 
REMARK    3  A    between atoms: N1_11  and  S1_12 
REMARK    4  A    between atoms: S1_12  and  C9_15 
ROOT
HETATM    1  O1  UNL     1      27.365   2.806  51.380  1.00  0.00    -0.272 OA
HETATM    2  C1  UNL     1      26.268   2.613  50.785  1.00  0.00     0.235 C 
HETATM    3  N1  UNL     1      25.119   1.951  51.297  1.00  0.00    -0.250 N 
HETATM    4  H7  UNL     1      24.261   1.834  50.743  1.00  0.00     0.181 HD
ENDROOT
BRANCH   3   5
HETATM    5  S1  UNL     1      25.303   1.368  52.924  1.00  0.00     0.266 S 
HETATM    6  O2  UNL     1      25.813   2.515  53.747  1.00  0.00    -0.200 OA
HETATM    7  O3  UNL     1      23.954   0.887  53.369  1.00  0.00    -0.200 OA
BRANCH   5   8
HETATM    8  C9  UNL     1      26.446   0.076  53.019  1.00  0.00     0.092 C 
HETATM    9  C10 UNL     1      27.666   0.222  53.512  1.00  0.00     0.022 C 
HETATM   10  C11 UNL     1      28.445  -0.824  53.353  1.00  0.00     0.046 C 
HETATM   11 CL2  UNL     1      30.144  -0.889  53.713  1.00  0.00    -0.083 Cl
HETATM   12  C12 UNL     1      27.537  -1.841  52.825  1.00  0.00     0.026 C 
HETATM   13  C13 UNL     1      26.339  -1.323  52.620  1.00  0.00     0.028 C 
ENDBRANCH   5   8
ENDBRANCH   3   5
BRANCH   2  14
HETATM   14  C2  UNL     1      26.246   3.163  49.397  1.00  0.00     0.142 C 
BRANCH  14  15
HETATM   15  C3  UNL     1      26.203   4.644  49.491  1.00  0.00    -0.049 A 
HETATM   16  C4  UNL     1      25.334   5.407  50.231  1.00  0.00     0.009 A 
HETATM   17  C5  UNL     1      25.460   6.778  50.181  1.00  0.00     0.024 A 
HETATM   18  C6  UNL     1      26.422   7.361  49.418  1.00  0.00     0.034 A 
HETATM   19 CL1  UNL     1      26.570   9.106  49.365  1.00  0.00    -0.084 Cl
HETATM   20  C7  UNL     1      27.313   6.626  48.662  1.00  0.00     0.024 A 
HETATM   21  C8  UNL     1      27.190   5.243  48.709  1.00  0.00     0.009 A 
ENDBRANCH  14  15
ENDBRANCH   2  14
TORSDOF 4
ENDMDL
MODEL 4
REMARK VINA RESULT:      -6.9      1.904      2.179
REMARK  4 active torsions:
REMARK  status: ('A' for Active; 'I' for Inactive)
REMARK    1  A    between atoms: C1_2  and  C2_3 
REMARK       I    between atoms: C1_2  and  N1_11 
REMARK    2  A    between atoms: C2_3  and  C3_4 
REMARK    3  A    between atoms: N1_11  and  S1_12 
REMARK    4  A    between atoms: S1_12  and  C9_15 
ROOT
HETATM    1  O1  UNL     1      23.918   2.846  50.679  1.00  0.00    -0.272 OA
HETATM    2  C1  UNL     1      24.007   3.530  51.736  1.00  0.00     0.235 C 
HETATM    3  N1  UNL     1      24.191   4.936  51.837  1.00  0.00    -0.250 N 
HETATM    4  H7  UNL     1      24.253   5.418  52.742  1.00  0.00     0.181 HD
ENDROOT
BRANCH   3   5
HETATM    5  S1  UNL     1      24.296   5.747  50.303  1.00  0.00     0.266 S 
HETATM    6  O2  UNL     1      23.244   5.149  49.416  1.00  0.00    -0.200 OA
HETATM    7  O3  UNL     1      24.074   7.206  50.567  1.00  0.00    -0.200 OA
BRANCH   5   8
HETATM    8  C9  UNL     1      25.837   5.515  49.557  1.00  0.00     0.092 C 
HETATM    9  C10 UNL     1      26.550   6.503  49.043  1.00  0.00     0.022 C 
HETATM   10  C11 UNL     1      27.615   6.117  48.377  1.00  0.00     0.046 C 
HETATM   11 CL2  UNL     1      28.648   7.144  47.429  1.00  0.00    -0.083 Cl
HETATM   12  C12 UNL     1      27.674   4.681  48.644  1.00  0.00     0.026 C 
HETATM   13  C13 UNL     1      26.621   4.303  49.347  1.00  0.00     0.028 C 
ENDBRANCH   5   8
ENDBRANCH   3   5
BRANCH   2  14
HETATM   14  C2  UNL     1      23.900   2.709  52.979  1.00  0.00     0.142 C 
BRANCH  14  15
HETATM   15  C3  UNL     1      25.027   1.742  52.989  1.00  0.00    -0.049 A 
HETATM   16  C4  UNL     1      24.987   0.413  52.647  1.00  0.00     0.009 A 
HETATM   17  C5  UNL     1      26.153  -0.319  52.725  1.00  0.00     0.024 A 
HETATM   18  C6  UNL     1      27.313   0.262  53.130  1.00  0.00     0.034 A 
HETATM   19 CL1  UNL     1      28.786  -0.682  53.224  1.00  0.00    -0.084 Cl
HETATM   20  C7  UNL     1      27.390   1.595  53.481  1.00  0.00     0.024 A 
HETATM   21  C8  UNL     1      26.218   2.337  53.404  1.00  0.00     0.009 A 
ENDBRANCH  14  15
ENDBRANCH   2  14
TORSDOF 4
ENDMDL
MODEL 5
REMARK VINA RESULT:      -6.5      2.058      2.578
REMARK  4 active torsions:
REMARK  status: ('A' for Active; 'I' for Inactive)
REMARK    1  A    between atoms: C1_2  and  C2_3 
REMARK       I    between atoms: C1_2  and  N1_11 
REMARK    2  A    between atoms: C2_3  and  C3_4 
REMARK    3  A    between atoms: N1_11  and  S1_12 
REMARK    4  A    between atoms: S1_12  and  C9_15 
ROOT
HETATM    1  O1  UNL     1      23.969   1.777  50.951  1.00  0.00    -0.272 OA
HETATM    2  C1  UNL     1      24.375   2.529  51.880  1.00  0.00     0.235 C 
HETATM    3  N1  UNL     1      24.694   3.911  51.789  1.00  0.00    -0.250 N 
HETATM    4  H7  UNL     1      25.021   4.454  52.599  1.00  0.00     0.181 HD
ENDROOT
BRANCH   3   5
HETATM    5  S1  UNL     1      24.479   4.584  50.201  1.00  0.00     0.266 S 
HETATM    6  O2  UNL     1      25.418   3.856  49.284  1.00  0.00    -0.200 OA
HETATM    7  O3  UNL     1      23.038   4.385  49.836  1.00  0.00    -0.200 OA
BRANCH   5   8
HETATM    8  C9  UNL     1      24.867   6.267  50.158  1.00  0.00     0.092 C 
HETATM    9  C10 UNL     1      26.024   6.733  49.717  1.00  0.00     0.022 C 
HETATM   10  C11 UNL     1      26.202   8.020  49.911  1.00  0.00     0.046 C 
HETATM   11 CL2  UNL     1      27.675   8.897  49.623  1.00  0.00    -0.083 Cl
HETATM   12  C12 UNL     1      24.900   8.468  50.402  1.00  0.00     0.026 C 
HETATM   13  C13 UNL     1      24.090   7.435  50.555  1.00  0.00     0.028 C 
ENDBRANCH   5   8
ENDBRANCH   3   5
BRANCH   2  14
HETATM   14  C2  UNL     1      24.516   1.824  53.189  1.00  0.00     0.142 C 
BRANCH  14  15
HETATM   15  C3  UNL     1      25.897   1.288  53.276  1.00  0.00    -0.049 A 
HETATM   16  C4  UNL     1      27.045   1.985  53.561  1.00  0.00     0.009 A 
HETATM   17  C5  UNL     1      28.239   1.297  53.593  1.00  0.00     0.024 A 
HETATM   18  C6  UNL     1      28.279  -0.040  53.350  1.00  0.00     0.034 A 
HETATM   19 CL1  UNL     1      29.804  -0.900  53.396  1.00  0.00    -0.084 Cl
HETATM   20  C7  UNL     1      27.145  -0.773  53.061  1.00  0.00     0.024 A 
HETATM   21  C8  UNL     1      25.939  -0.084  53.027  1.00  0.00     0.009 A 
ENDBRANCH  14  15
ENDBRANCH   2  14
TORSDOF 4
ENDMDL
MODEL 6
REMARK VINA RESULT:      -6.4      3.147      6.729
REMARK  4 active torsions:
REMARK  status: ('A' for Active; 'I' for Inactive)
REMARK    1  A    between atoms: C1_2  and  C2_3 
REMARK       I    between atoms: C1_2  and  N1_11 
REMARK    2  A    between atoms: C2_3  and  C3_4 
REMARK    3  A    between atoms: N1_11  and  S1_12 
REMARK    4  A    between atoms: S1_12  and  C9_15 
ROOT
HETATM    1  O1  UNL     1      24.452   2.690  50.187  1.00  0.00    -0.272 OA
HETATM    2  C1  UNL     1      24.485   3.652  51.004  1.00  0.00     0.235 C 
HETATM    3  N1  UNL     1      24.963   3.626  52.342  1.00  0.00    -0.250 N 
HETATM    4  H7  UNL     1      24.955   4.459  52.944  1.00  0.00     0.181 HD
ENDROOT
BRANCH   3   5
HETATM    5  S1  UNL     1      25.555   2.073  52.853  1.00  0.00     0.266 S 
HETATM    6  O2  UNL     1      26.430   1.552  51.750  1.00  0.00    -0.200 OA
HETATM    7  O3  UNL     1      26.302   2.293  54.134  1.00  0.00    -0.200 OA
BRANCH   5   8
HETATM    8  C9  UNL     1      24.270   0.949  53.110  1.00  0.00     0.092 C 
HETATM    9  C10 UNL     1      22.992   1.295  53.110  1.00  0.00     0.022 C 
HETATM   10  C11 UNL     1      22.170   0.340  53.482  1.00  0.00     0.046 C 
HETATM   11 CL2  UNL     1      20.466   0.523  53.770  1.00  0.00    -0.083 Cl
HETATM   12  C12 UNL     1      23.039  -0.832  53.577  1.00  0.00     0.026 C 
HETATM   13  C13 UNL     1      24.296  -0.489  53.358  1.00  0.00     0.028 C 
ENDBRANCH   5   8
ENDBRANCH   3   5
BRANCH   2  14
HETATM   14  C2  UNL     1      23.947   4.925  50.437  1.00  0.00     0.142 C 
BRANCH  14  15
HETATM   15  C3  UNL     1      25.090   5.710  49.906  1.00  0.00    -0.049 A 
HETATM   16  C4  UNL     1      26.017   5.308  48.976  1.00  0.00     0.009 A 
HETATM   17  C5  UNL     1      27.009   6.195  48.615  1.00  0.00     0.024 A 
HETATM   18  C6  UNL     1      27.068   7.436  49.166  1.00  0.00     0.034 A 
HETATM   19 CL1  UNL     1      28.335   8.551  48.695  1.00  0.00    -0.084 Cl
HETATM   20  C7  UNL     1      26.153   7.874  50.102  1.00  0.00     0.024 A 
HETATM   21  C8  UNL     1      25.151   6.984  50.470  1.00  0.00     0.009 A 
ENDBRANCH  14  15
ENDBRANCH   2  14
TORSDOF 4
ENDMDL
MODEL 7
REMARK VINA RESULT:      -6.2      7.887      9.356
REMARK  4 active torsions:
REMARK  status: ('A' for Active; 'I' for Inactive)
REMARK    1  A    between atoms: C1_2  and  C2_3 
REMARK       I    between atoms: C1_2  and  N1_11 
REMARK    2  A    between atoms: C2_3  and  C3_4 
REMARK    3  A    between atoms: N1_11  and  S1_12 
REMARK    4  A    between atoms: S1_12  and  C9_15 
ROOT
HETATM    1  O1  UNL     1      31.837   7.573  45.373  1.00  0.00    -0.272 OA
HETATM    2  C1  UNL     1      32.638   7.047  46.194  1.00  0.00     0.235 C 
HETATM    3  N1  UNL     1      32.698   7.268  47.598  1.00  0.00    -0.250 N 
HETATM    4  H7  UNL     1      33.386   6.797  48.199  1.00  0.00     0.181 HD
ENDROOT
BRANCH   3   5
HETATM    5  S1  UNL     1      31.512   8.394  48.188  1.00  0.00     0.266 S 
HETATM    6  O2  UNL     1      31.790   8.600  49.649  1.00  0.00    -0.200 OA
HETATM    7  O3  UNL     1      31.667   9.649  47.383  1.00  0.00    -0.200 OA
BRANCH   5   8
HETATM    8  C9  UNL     1      29.905   7.782  48.019  1.00  0.00     0.092 C 
HETATM    9  C10 UNL     1      29.501   6.647  48.564  1.00  0.00     0.022 C 
HETATM   10  C11 UNL     1      28.300   6.264  48.194  1.00  0.00     0.046 C 
HETATM   11 CL2  UNL     1      27.558   4.738  48.575  1.00  0.00    -0.083 Cl
HETATM   12  C12 UNL     1      27.805   7.405  47.426  1.00  0.00     0.026 C 
HETATM   13  C13 UNL     1      28.750   8.322  47.311  1.00  0.00     0.028 C 
ENDBRANCH   5   8
ENDBRANCH   3   5
BRANCH   2  14
HETATM   14  C2  UNL     1      33.601   6.102  45.554  1.00  0.00     0.142 C 
BRANCH  14  15
HETATM   15  C3  UNL     1      33.623   4.854  46.358  1.00  0.00    -0.049 A 
HETATM   16  C4  UNL     1      34.633   4.404  47.171  1.00  0.00     0.009 A 
HETATM   17  C5  UNL     1      34.456   3.209  47.835  1.00  0.00     0.024 A 
HETATM   18  C6  UNL     1      33.309   2.495  47.690  1.00  0.00     0.034 A 
HETATM   19 CL1  UNL     1      33.099   0.978  48.542  1.00  0.00    -0.084 Cl
HETATM   20  C7  UNL     1      32.272   2.918  46.881  1.00  0.00     0.024 A 
HETATM   21  C8  UNL     1      32.446   4.121  46.209  1.00  0.00     0.009 A 
ENDBRANCH  14  15
ENDBRANCH   2  14
TORSDOF 4
ENDMDL
MODEL 8
REMARK VINA RESULT:      -6.1      2.943      3.529
REMARK  4 active torsions:
REMARK  status: ('A' for Active; 'I' for Inactive)
REMARK    1  A    between atoms: C1_2  and  C2_3 
REMARK       I    between atoms: C1_2  and  N1_11 
REMARK    2  A    between atoms: C2_3  and  C3_4 
REMARK    3  A    between atoms: N1_11  and  S1_12 
REMARK    4  A    between atoms: S1_12  and  C9_15 
ROOT
HETATM    1  O1  UNL     1      24.343   1.419  51.098  1.00  0.00    -0.272 OA
HETATM    2  C1  UNL     1      24.056   1.780  52.273  1.00  0.00     0.235 C 
HETATM    3  N1  UNL     1      23.595   3.059  52.690  1.00  0.00    -0.250 N 
HETATM    4  H7  UNL     1      23.382   3.272  53.672  1.00  0.00     0.181 HD
ENDROOT
BRANCH   3   5
HETATM    5  S1  UNL     1      23.429   4.208  51.396  1.00  0.00     0.266 S 
HETATM    6  O2  UNL     1      22.797   5.438  51.979  1.00  0.00    -0.200 OA
HETATM    7  O3  UNL     1      24.806   4.459  50.859  1.00  0.00    -0.200 OA
BRANCH   5   8
HETATM    8  C9  UNL     1      22.408   3.613  50.135  1.00  0.00     0.092 C 
HETATM    9  C10 UNL     1      21.141   3.283  50.324  1.00  0.00     0.022 C 
HETATM   10  C11 UNL     1      20.572   2.700  49.294  1.00  0.00     0.046 C 
HETATM   11 CL2  UNL     1      18.990   1.979  49.281  1.00  0.00    -0.083 Cl
HETATM   12  C12 UNL     1      21.578   2.823  48.241  1.00  0.00     0.026 C 
HETATM   13  C13 UNL     1      22.681   3.367  48.724  1.00  0.00     0.028 C 
ENDBRANCH   5   8
ENDBRANCH   3   5
BRANCH   2  14
HETATM   14  C2  UNL     1      24.243   0.697  53.284  1.00  0.00     0.142 C 
BRANCH  14  15
HETATM   15  C3  UNL     1      25.699   0.435  53.412  1.00  0.00    -0.049 A 
HETATM   16  C4  UNL     1      26.654   1.273  53.934  1.00  0.00     0.009 A 
HETATM   17  C5  UNL     1      27.961   0.839  53.961  1.00  0.00     0.024 A 
HETATM   18  C6  UNL     1      28.298  -0.389  53.484  1.00  0.00     0.034 A 
HETATM   19 CL1  UNL     1      29.965  -0.926  53.527  1.00  0.00    -0.084 Cl
HETATM   20  C7  UNL     1      27.365  -1.257  52.953  1.00  0.00     0.024 A 
HETATM   21  C8  UNL     1      26.045  -0.824  52.923  1.00  0.00     0.009 A 
ENDBRANCH  14  15
ENDBRANCH   2  14
TORSDOF 4
ENDMDL
MODEL 9
REMARK VINA RESULT:      -6.0      5.461      7.371
REMARK  4 active torsions:
REMARK  status: ('A' for Active; 'I' for Inactive)
REMARK    1  A    between atoms: C1_2  and  C2_3 
REMARK       I    between atoms: C1_2  and  N1_11 
REMARK    2  A    between atoms: C2_3  and  C3_4 
REMARK    3  A    between atoms: N1_11  and  S1_12 
REMARK    4  A    between atoms: S1_12  and  C9_15 
ROOT
HETATM    1  O1  UNL     1      28.281   7.235  47.256  1.00  0.00    -0.272 OA
HETATM    2  C1  UNL     1      27.950   6.803  48.394  1.00  0.00     0.235 C 
HETATM    3  N1  UNL     1      27.544   7.570  49.520  1.00  0.00    -0.250 N 
HETATM    4  H7  UNL     1      27.290   7.137  50.417  1.00  0.00     0.181 HD
ENDROOT
BRANCH   3   5
HETATM    5  S1  UNL     1      27.519   9.285  49.235  1.00  0.00     0.266 S 
HETATM    6  O2  UNL     1      26.571   9.528  48.096  1.00  0.00    -0.200 OA
HETATM    7  O3  UNL     1      27.071   9.931  50.512  1.00  0.00    -0.200 OA
BRANCH   5   8
HETATM    8  C9  UNL     1      29.076   9.886  48.789  1.00  0.00     0.092 C 
HETATM    9  C10 UNL     1      29.264  10.751  47.806  1.00  0.00     0.022 C 
HETATM   10  C11 UNL     1      30.525  10.968  47.507  1.00  0.00     0.046 C 
HETATM   11 CL2  UNL     1      31.103  11.894  46.154  1.00  0.00    -0.083 Cl
HETATM   12  C12 UNL     1      31.247  10.258  48.561  1.00  0.00     0.026 C 
HETATM   13  C13 UNL     1      30.398   9.606  49.337  1.00  0.00     0.028 C 
ENDBRANCH   5   8
ENDBRANCH   3   5
BRANCH   2  14
HETATM   14  C2  UNL     1      28.017   5.315  48.501  1.00  0.00     0.142 C 
BRANCH  14  15
HETATM   15  C3  UNL     1      26.692   4.828  48.961  1.00  0.00    -0.049 A 
HETATM   16  C4  UNL     1      25.472   5.430  48.775  1.00  0.00     0.009 A 
HETATM   17  C5  UNL     1      24.351   4.810  49.285  1.00  0.00     0.024 A 
HETATM   18  C6  UNL     1      24.451   3.632  49.955  1.00  0.00     0.034 A 
HETATM   19 CL1  UNL     1      23.016   2.857  50.596  1.00  0.00    -0.084 Cl
HETATM   20  C7  UNL     1      25.660   2.998  50.159  1.00  0.00     0.024 A 
HETATM   21  C8  UNL     1      26.793   3.618  49.647  1.00  0.00     0.009 A 
ENDBRANCH  14  15
ENDBRANCH   2  14
TORSDOF 4
ENDMDL
