MODEL 1
REMARK VINA RESULT:      -8.3      0.000      0.000
REMARK  1 active torsions:
REMARK  status: ('A' for Active; 'I' for Inactive)
REMARK    1  A    between atoms: O1_2  and  C2_3 
ROOT
HETATM    1  C2  UNL     1      20.981  -0.375  53.036  1.00  0.00     0.069 A 
HETATM    2  C3  UNL     1      21.201  -1.096  54.191  1.00  0.00     0.039 A 
HETATM    3  C4  UNL     1      22.425  -1.190  54.816  1.00  0.00     0.041 A 
HETATM    4  C5  UNL     1      23.498  -0.532  54.266  1.00  0.00     0.090 A 
HETATM    5  C6  UNL     1      23.239   0.193  53.096  1.00  0.00     0.031 A 
HETATM    6  C7  UNL     1      22.009   0.316  52.417  1.00  0.00     0.053 A 
HETATM    7  C8  UNL     1      24.249   1.023  52.385  1.00  0.00     0.088 A 
HETATM    8  C9  UNL     1      23.653   2.189  52.021  1.00  0.00     0.064 A 
HETATM    9 CL1  UNL     1      21.975   2.627  52.353  1.00  0.00    -0.082 Cl
HETATM   10  C10 UNL     1      24.522   3.159  51.311  1.00  0.00     0.045 A 
HETATM   11  C11 UNL     1      25.784   2.860  51.079  1.00  0.00     0.109 A 
HETATM   12  N1  UNL     1      26.406   1.644  51.465  1.00  0.00    -0.307 N 
HETATM   13  N2  UNL     1      25.632   0.716  52.127  1.00  0.00    -0.257 N 
HETATM   14  C12 UNL     1      26.232  -0.542  52.631  1.00  0.00     0.307 A 
HETATM   15  N3  UNL     1      27.646  -0.492  52.559  1.00  0.00    -0.247 NA
HETATM   16  C13 UNL     1      28.164  -0.502  53.757  1.00  0.00     0.232 A 
HETATM   17  N4  UNL     1      27.130  -0.559  54.739  1.00  0.00    -0.218 NA
HETATM   18  C14 UNL     1      25.975  -0.583  54.138  1.00  0.00     0.193 A 
HETATM   19  O2  UNL     1      24.768  -0.636  54.904  1.00  0.00    -0.291 OA
HETATM   20  H9  UNL     1      27.377   1.336  51.324  1.00  0.00     0.186 HD
ENDROOT
BRANCH   1  21
HETATM   21  O1  UNL     1      19.736  -0.313  52.451  1.00  0.00    -0.356 OA
HETATM   22  C1  UNL     1      18.624  -0.887  53.111  1.00  0.00     0.210 C 
ENDBRANCH   1  21
TORSDOF 1
ENDMDL
MODEL 2
REMARK VINA RESULT:      -8.1      2.990      5.932
REMARK  1 active torsions:
REMARK  status: ('A' for Active; 'I' for Inactive)
REMARK    1  A    between atoms: O1_2  and  C2_3 
ROOT
HETATM    1  C2  UNL     1      27.231  -0.223  53.601  1.00  0.00     0.069 A 
HETATM    2  C3  UNL     1      27.610   1.080  53.355  1.00  0.00     0.039 A 
HETATM    3  C4  UNL     1      26.722   2.106  53.118  1.00  0.00     0.041 A 
HETATM    4  C5  UNL     1      25.377   1.829  53.126  1.00  0.00     0.090 A 
HETATM    5  C6  UNL     1      25.027   0.497  53.384  1.00  0.00     0.031 A 
HETATM    6  C7  UNL     1      25.895  -0.587  53.626  1.00  0.00     0.053 A 
HETATM    7  C8  UNL     1      23.626   0.008  53.498  1.00  0.00     0.088 A 
HETATM    8  C9  UNL     1      23.563  -0.842  54.557  1.00  0.00     0.064 A 
HETATM    9 CL1  UNL     1      24.918  -1.267  55.608  1.00  0.00    -0.082 Cl
HETATM   10  C10 UNL     1      22.226  -1.418  54.839  1.00  0.00     0.045 A 
HETATM   11  C11 UNL     1      21.199  -1.091  54.082  1.00  0.00     0.109 A 
HETATM   12  N1  UNL     1      21.265  -0.198  52.980  1.00  0.00    -0.307 N 
HETATM   13  N2  UNL     1      22.490   0.359  52.685  1.00  0.00    -0.257 N 
HETATM   14  C12 UNL     1      22.621   1.359  51.600  1.00  0.00     0.307 A 
HETATM   15  N3  UNL     1      21.347   1.793  51.157  1.00  0.00    -0.247 NA
HETATM   16  C13 UNL     1      21.170   3.054  51.444  1.00  0.00     0.232 A 
HETATM   17  N4  UNL     1      22.320   3.573  52.109  1.00  0.00    -0.218 NA
HETATM   18  C14 UNL     1      23.204   2.624  52.230  1.00  0.00     0.193 A 
HETATM   19  O2  UNL     1      24.456   2.886  52.872  1.00  0.00    -0.291 OA
HETATM   20  H9  UNL     1      20.516   0.109  52.345  1.00  0.00     0.186 HD
ENDROOT
BRANCH   1  21
HETATM   21  O1  UNL     1      28.160  -1.213  53.832  1.00  0.00    -0.356 OA
HETATM   22  C1  UNL     1      29.538  -0.892  53.832  1.00  0.00     0.210 C 
ENDBRANCH   1  21
TORSDOF 1
ENDMDL
MODEL 3
REMARK VINA RESULT:      -7.9      2.395      4.320
REMARK  1 active torsions:
REMARK  status: ('A' for Active; 'I' for Inactive)
REMARK    1  A    between atoms: O1_2  and  C2_3 
ROOT
HETATM    1  C2  UNL     1      23.713   3.468  51.415  1.00  0.00     0.069 A 
HETATM    2  C3  UNL     1      24.793   3.639  50.576  1.00  0.00     0.039 A 
HETATM    3  C4  UNL     1      25.942   2.880  50.637  1.00  0.00     0.041 A 
HETATM    4  C5  UNL     1      26.027   1.890  51.586  1.00  0.00     0.090 A 
HETATM    5  C6  UNL     1      24.911   1.741  52.419  1.00  0.00     0.031 A 
HETATM    6  C7  UNL     1      23.718   2.494  52.400  1.00  0.00     0.053 A 
HETATM    7  C8  UNL     1      24.782   0.688  53.463  1.00  0.00     0.088 A 
HETATM    8  C9  UNL     1      23.521   0.184  53.396  1.00  0.00     0.064 A 
HETATM    9 CL1  UNL     1      22.275   0.694  52.254  1.00  0.00    -0.082 Cl
HETATM   10  C10 UNL     1      23.213  -0.901  54.359  1.00  0.00     0.045 A 
HETATM   11  C11 UNL     1      24.139  -1.313  55.200  1.00  0.00     0.109 A 
HETATM   12  N1  UNL     1      25.456  -0.788  55.265  1.00  0.00    -0.307 N 
HETATM   13  N2  UNL     1      25.783   0.222  54.386  1.00  0.00    -0.257 N 
HETATM   14  C12 UNL     1      27.161   0.764  54.341  1.00  0.00     0.307 A 
HETATM   15  N3  UNL     1      28.049  -0.049  55.089  1.00  0.00    -0.247 NA
HETATM   16  C13 UNL     1      28.919  -0.619  54.301  1.00  0.00     0.232 A 
HETATM   17  N4  UNL     1      28.684  -0.232  52.948  1.00  0.00    -0.218 NA
HETATM   18  C14 UNL     1      27.664   0.578  52.909  1.00  0.00     0.193 A 
HETATM   19  O2  UNL     1      27.217   1.110  51.658  1.00  0.00    -0.291 OA
HETATM   20  H9  UNL     1      26.234  -1.053  55.886  1.00  0.00     0.186 HD
ENDROOT
BRANCH   1  21
HETATM   21  O1  UNL     1      22.588   4.255  51.312  1.00  0.00    -0.356 OA
HETATM   22  C1  UNL     1      22.707   5.662  51.402  1.00  0.00     0.210 C 
ENDBRANCH   1  21
TORSDOF 1
ENDMDL
MODEL 4
REMARK VINA RESULT:      -7.8      2.908      5.208
REMARK  1 active torsions:
REMARK  status: ('A' for Active; 'I' for Inactive)
REMARK    1  A    between atoms: O1_2  and  C2_3 
ROOT
HETATM    1  C2  UNL     1      25.389  -0.073  54.122  1.00  0.00     0.069 A 
HETATM    2  C3  UNL     1      24.124  -0.599  54.278  1.00  0.00     0.039 A 
HETATM    3  C4  UNL     1      22.997  -0.083  53.677  1.00  0.00     0.041 A 
HETATM    4  C5  UNL     1      23.129   1.021  52.870  1.00  0.00     0.090 A 
HETATM    5  C6  UNL     1      24.428   1.527  52.729  1.00  0.00     0.031 A 
HETATM    6  C7  UNL     1      25.608   1.039  53.326  1.00  0.00     0.053 A 
HETATM    7  C8  UNL     1      24.788   2.674  51.851  1.00  0.00     0.088 A 
HETATM    8  C9  UNL     1      25.939   2.358  51.201  1.00  0.00     0.064 A 
HETATM    9 CL1  UNL     1      26.828   0.842  51.372  1.00  0.00    -0.082 Cl
HETATM   10  C10 UNL     1      26.444   3.385  50.257  1.00  0.00     0.045 A 
HETATM   11  C11 UNL     1      25.779   4.510  50.096  1.00  0.00     0.109 A 
HETATM   12  N1  UNL     1      24.574   4.836  50.773  1.00  0.00    -0.307 N 
HETATM   13  N2  UNL     1      24.071   3.908  51.659  1.00  0.00    -0.257 N 
HETATM   14  C12 UNL     1      22.778   4.143  52.342  1.00  0.00     0.307 A 
HETATM   15  N3  UNL     1      22.096   5.245  51.769  1.00  0.00    -0.247 NA
HETATM   16  C13 UNL     1      20.999   4.849  51.184  1.00  0.00     0.232 A 
HETATM   17  N4  UNL     1      20.854   3.436  51.317  1.00  0.00    -0.218 NA
HETATM   18  C14 UNL     1      21.868   2.966  51.986  1.00  0.00     0.193 A 
HETATM   19  O2  UNL     1      21.964   1.564  52.254  1.00  0.00    -0.291 OA
HETATM   20  H9  UNL     1      23.997   5.685  50.704  1.00  0.00     0.186 HD
ENDROOT
BRANCH   1  21
HETATM   21  O1  UNL     1      26.484  -0.629  54.746  1.00  0.00    -0.356 OA
HETATM   22  C1  UNL     1      27.693   0.101  54.817  1.00  0.00     0.210 C 
ENDBRANCH   1  21
TORSDOF 1
ENDMDL
MODEL 5
REMARK VINA RESULT:      -7.7      2.726      4.924
REMARK  1 active torsions:
REMARK  status: ('A' for Active; 'I' for Inactive)
REMARK    1  A    between atoms: O1_2  and  C2_3 
ROOT
HETATM    1  C2  UNL     1      24.217   4.573  49.573  1.00  0.00     0.069 A 
HETATM    2  C3  UNL     1      25.554   4.704  49.261  1.00  0.00     0.039 A 
HETATM    3  C4  UNL     1      26.551   3.927  49.810  1.00  0.00     0.041 A 
HETATM    4  C5  UNL     1      26.206   2.961  50.723  1.00  0.00     0.090 A 
HETATM    5  C6  UNL     1      24.839   2.853  51.014  1.00  0.00     0.031 A 
HETATM    6  C7  UNL     1      23.785   3.625  50.485  1.00  0.00     0.053 A 
HETATM    7  C8  UNL     1      24.257   1.830  51.925  1.00  0.00     0.088 A 
HETATM    8  C9  UNL     1      23.127   1.345  51.345  1.00  0.00     0.064 A 
HETATM    9 CL1  UNL     1      22.488   1.847  49.777  1.00  0.00    -0.082 Cl
HETATM   10  C10 UNL     1      22.415   0.291  52.107  1.00  0.00     0.045 A 
HETATM   11  C11 UNL     1      22.893  -0.115  53.266  1.00  0.00     0.109 A 
HETATM   12  N1  UNL     1      24.076   0.389  53.868  1.00  0.00    -0.307 N 
HETATM   13  N2  UNL     1      24.767   1.370  53.191  1.00  0.00    -0.257 N 
HETATM   14  C12 UNL     1      26.052   1.887  53.718  1.00  0.00     0.307 A 
HETATM   15  N3  UNL     1      26.523   1.079  54.783  1.00  0.00    -0.247 NA
HETATM   16  C13 UNL     1      27.628   0.474  54.441  1.00  0.00     0.232 A 
HETATM   17  N4  UNL     1      27.991   0.830  53.108  1.00  0.00    -0.218 NA
HETATM   18  C14 UNL     1      27.103   1.655  52.632  1.00  0.00     0.193 A 
HETATM   19  O2  UNL     1      27.234   2.162  51.300  1.00  0.00    -0.291 OA
HETATM   20  H9  UNL     1      24.515   0.127  54.761  1.00  0.00     0.186 HD
ENDROOT
BRANCH   1  21
HETATM   21  O1  UNL     1      23.260   5.377  48.994  1.00  0.00    -0.356 OA
HETATM   22  C1  UNL     1      22.611   4.950  47.812  1.00  0.00     0.210 C 
ENDBRANCH   1  21
TORSDOF 1
ENDMDL
MODEL 6
REMARK VINA RESULT:      -7.5      2.848      5.291
REMARK  1 active torsions:
REMARK  status: ('A' for Active; 'I' for Inactive)
REMARK    1  A    between atoms: O1_2  and  C2_3 
ROOT
HETATM    1  C2  UNL     1      26.695   1.067  54.181  1.00  0.00     0.069 A 
HETATM    2  C3  UNL     1      26.204  -0.118  54.687  1.00  0.00     0.039 A 
HETATM    3  C4  UNL     1      24.981  -0.651  54.345  1.00  0.00     0.041 A 
HETATM    4  C5  UNL     1      24.194   0.028  53.447  1.00  0.00     0.090 A 
HETATM    5  C6  UNL     1      24.724   1.226  52.950  1.00  0.00     0.031 A 
HETATM    6  C7  UNL     1      25.965   1.814  53.272  1.00  0.00     0.053 A 
HETATM    7  C8  UNL     1      24.058   2.072  51.923  1.00  0.00     0.088 A 
HETATM    8  C9  UNL     1      25.004   2.476  51.034  1.00  0.00     0.064 A 
HETATM    9 CL1  UNL     1      26.716   2.047  51.098  1.00  0.00    -0.082 Cl
HETATM   10  C10 UNL     1      24.516   3.321  49.917  1.00  0.00     0.045 A 
HETATM   11  C11 UNL     1      23.237   3.628  49.839  1.00  0.00     0.109 A 
HETATM   12  N1  UNL     1      22.250   3.202  50.766  1.00  0.00    -0.307 N 
HETATM   13  N2  UNL     1      22.663   2.414  51.819  1.00  0.00    -0.257 N 
HETATM   14  C12 UNL     1      21.679   1.866  52.781  1.00  0.00     0.307 A 
HETATM   15  N3  UNL     1      20.355   2.051  52.310  1.00  0.00    -0.247 NA
HETATM   16  C13 UNL     1      19.799   0.900  52.049  1.00  0.00     0.232 A 
HETATM   17  N4  UNL     1      20.712  -0.160  52.324  1.00  0.00    -0.218 NA
HETATM   18  C14 UNL     1      21.833   0.345  52.755  1.00  0.00     0.193 A 
HETATM   19  O2  UNL     1      22.923  -0.515  53.099  1.00  0.00    -0.291 OA
HETATM   20  H9  UNL     1      21.239   3.394  50.777  1.00  0.00     0.186 HD
ENDROOT
BRANCH   1  21
HETATM   21  O1  UNL     1      27.927   1.556  54.556  1.00  0.00    -0.356 OA
HETATM   22  C1  UNL     1      29.101   0.893  54.130  1.00  0.00     0.210 C 
ENDBRANCH   1  21
TORSDOF 1
ENDMDL
MODEL 7
REMARK VINA RESULT:      -7.4      2.491      4.507
REMARK  1 active torsions:
REMARK  status: ('A' for Active; 'I' for Inactive)
REMARK    1  A    between atoms: O1_2  and  C2_3 
ROOT
HETATM    1  C2  UNL     1      22.496  -0.786  54.227  1.00  0.00     0.069 A 
HETATM    2  C3  UNL     1      21.271  -0.818  53.595  1.00  0.00     0.039 A 
HETATM    3  C4  UNL     1      20.964  -0.075  52.476  1.00  0.00     0.041 A 
HETATM    4  C5  UNL     1      21.927   0.749  51.948  1.00  0.00     0.090 A 
HETATM    5  C6  UNL     1      23.161   0.755  52.612  1.00  0.00     0.031 A 
HETATM    6  C7  UNL     1      23.522   0.019  53.760  1.00  0.00     0.053 A 
HETATM    7  C8  UNL     1      24.350   1.529  52.161  1.00  0.00     0.088 A 
HETATM    8  C9  UNL     1      25.442   0.730  52.286  1.00  0.00     0.064 A 
HETATM    9 CL1  UNL     1      25.430  -0.936  52.871  1.00  0.00    -0.082 Cl
HETATM   10  C10 UNL     1      26.730   1.333  51.860  1.00  0.00     0.045 A 
HETATM   11  C11 UNL     1      26.754   2.565  51.396  1.00  0.00     0.109 A 
HETATM   12  N1  UNL     1      25.610   3.396  51.262  1.00  0.00    -0.307 N 
HETATM   13  N2  UNL     1      24.395   2.873  51.646  1.00  0.00    -0.257 N 
HETATM   14  C12 UNL     1      23.148   3.651  51.461  1.00  0.00     0.307 A 
HETATM   15  N3  UNL     1      23.379   4.791  50.651  1.00  0.00    -0.247 NA
HETATM   16  C13 UNL     1      22.737   4.684  49.520  1.00  0.00     0.232 A 
HETATM   17  N4  UNL     1      22.017   3.453  49.478  1.00  0.00    -0.218 NA
HETATM   18  C14 UNL     1      22.221   2.804  50.589  1.00  0.00     0.193 A 
HETATM   19  O2  UNL     1      21.611   1.526  50.796  1.00  0.00    -0.291 OA
HETATM   20  H9  UNL     1      25.543   4.361  50.910  1.00  0.00     0.186 HD
ENDROOT
BRANCH   1  21
HETATM   21  O1  UNL     1      22.752  -1.549  55.344  1.00  0.00    -0.356 OA
HETATM   22  C1  UNL     1      24.008  -1.450  55.986  1.00  0.00     0.210 C 
ENDBRANCH   1  21
TORSDOF 1
ENDMDL
MODEL 8
REMARK VINA RESULT:      -7.3      2.199      3.087
REMARK  1 active torsions:
REMARK  status: ('A' for Active; 'I' for Inactive)
REMARK    1  A    between atoms: O1_2  and  C2_3 
ROOT
HETATM    1  C2  UNL     1      18.781   0.346  51.264  1.00  0.00     0.069 A 
HETATM    2  C3  UNL     1      18.309  -0.585  52.165  1.00  0.00     0.039 A 
HETATM    3  C4  UNL     1      19.011  -1.007  53.272  1.00  0.00     0.041 A 
HETATM    4  C5  UNL     1      20.257  -0.477  53.505  1.00  0.00     0.090 A 
HETATM    5  C6  UNL     1      20.704   0.468  52.572  1.00  0.00     0.031 A 
HETATM    6  C7  UNL     1      20.028   0.929  51.424  1.00  0.00     0.053 A 
HETATM    7  C8  UNL     1      21.994   1.203  52.681  1.00  0.00     0.088 A 
HETATM    8  C9  UNL     1      21.764   2.504  52.358  1.00  0.00     0.064 A 
HETATM    9 CL1  UNL     1      20.198   3.183  51.906  1.00  0.00    -0.082 Cl
HETATM   10  C10 UNL     1      22.943   3.401  52.431  1.00  0.00     0.045 A 
HETATM   11  C11 UNL     1      24.113   2.917  52.793  1.00  0.00     0.109 A 
HETATM   12  N1  UNL     1      24.350   1.559  53.134  1.00  0.00    -0.307 N 
HETATM   13  N2  UNL     1      23.279   0.693  53.080  1.00  0.00    -0.257 N 
HETATM   14  C12 UNL     1      23.433  -0.720  53.498  1.00  0.00     0.307 A 
HETATM   15  N3  UNL     1      24.672  -0.922  54.154  1.00  0.00    -0.247 NA
HETATM   16  C13 UNL     1      24.481  -1.227  55.408  1.00  0.00     0.232 A 
HETATM   17  N4  UNL     1      23.085  -1.254  55.699  1.00  0.00    -0.218 NA
HETATM   18  C14 UNL     1      22.420  -0.964  54.617  1.00  0.00     0.193 A 
HETATM   19  O2  UNL     1      20.990  -0.919  54.644  1.00  0.00    -0.291 OA
HETATM   20  H9  UNL     1      25.225   1.104  53.427  1.00  0.00     0.186 HD
ENDROOT
BRANCH   1  21
HETATM   21  O1  UNL     1      18.038   0.735  50.172  1.00  0.00    -0.356 OA
HETATM   22  C1  UNL     1      16.857   0.029  49.843  1.00  0.00     0.210 C 
ENDBRANCH   1  21
TORSDOF 1
ENDMDL
MODEL 9
REMARK VINA RESULT:      -7.1      3.544      5.856
REMARK  1 active torsions:
REMARK  status: ('A' for Active; 'I' for Inactive)
REMARK    1  A    between atoms: O1_2  and  C2_3 
ROOT
HETATM    1  C2  UNL     1      26.697   1.682  52.282  1.00  0.00     0.069 A 
HETATM    2  C3  UNL     1      26.150   0.498  52.729  1.00  0.00     0.039 A 
HETATM    3  C4  UNL     1      24.814   0.181  52.627  1.00  0.00     0.041 A 
HETATM    4  C5  UNL     1      23.964   1.090  52.045  1.00  0.00     0.090 A 
HETATM    5  C6  UNL     1      24.552   2.281  51.598  1.00  0.00     0.031 A 
HETATM    6  C7  UNL     1      25.909   2.653  51.685  1.00  0.00     0.053 A 
HETATM    7  C8  UNL     1      23.816   3.360  50.886  1.00  0.00     0.088 A 
HETATM    8  C9  UNL     1      24.593   3.788  49.856  1.00  0.00     0.064 A 
HETATM    9 CL1  UNL     1      26.188   3.151  49.444  1.00  0.00    -0.082 Cl
HETATM   10  C10 UNL     1      24.009   4.860  49.013  1.00  0.00     0.045 A 
HETATM   11  C11 UNL     1      22.809   5.329  49.289  1.00  0.00     0.109 A 
HETATM   12  N1  UNL     1      21.997   4.876  50.363  1.00  0.00    -0.307 N 
HETATM   13  N2  UNL     1      22.504   3.881  51.169  1.00  0.00    -0.257 N 
HETATM   14  C12 UNL     1      21.683   3.304  52.259  1.00  0.00     0.307 A 
HETATM   15  N3  UNL     1      20.334   3.723  52.152  1.00  0.00    -0.247 NA
HETATM   16  C13 UNL     1      19.561   2.707  51.882  1.00  0.00     0.232 A 
HETATM   17  N4  UNL     1      20.335   1.513  51.784  1.00  0.00    -0.218 NA
HETATM   18  C14 UNL     1      21.588   1.801  51.994  1.00  0.00     0.193 A 
HETATM   19  O2  UNL     1      22.579   0.770  51.946  1.00  0.00    -0.291 OA
HETATM   20  H9  UNL     1      21.056   5.186  50.643  1.00  0.00     0.186 HD
ENDROOT
BRANCH   1  21
HETATM   21  O1  UNL     1      28.042   1.950  52.409  1.00  0.00    -0.356 OA
HETATM   22  C1  UNL     1      28.546   2.429  53.641  1.00  0.00     0.210 C 
ENDBRANCH   1  21
TORSDOF 1
ENDMDL
