MODEL 1
REMARK VINA RESULT:      -8.7      0.000      0.000
REMARK  3 active torsions:
REMARK  status: ('A' for Active; 'I' for Inactive)
REMARK    1  A    between atoms: C3_3  and  C4_4 
REMARK    2  A    between atoms: C12_14  and  N3_15 
REMARK    3  A    between atoms: N3_15  and  C13_16 
ROOT
HETATM    1  C1  UNL     1      27.217   7.676  48.688  1.00  0.00     0.112 C 
HETATM    2  C2  UNL     1      26.640   6.346  48.965  1.00  0.00    -0.109 C 
HETATM    3  C3  UNL     1      26.170   5.254  49.172  1.00  0.00    -0.077 C 
ENDROOT
BRANCH   3   4
HETATM    4  C4  UNL     1      25.616   3.910  49.425  1.00  0.00     0.184 C 
HETATM    5  C5  UNL     1      24.286   3.840  48.829  1.00  0.00     0.011 C 
HETATM    6  C6  UNL     1      23.124   3.216  48.932  1.00  0.00     0.001 C 
HETATM    7  C7  UNL     1      22.614   2.184  49.818  1.00  0.00     0.032 C 
HETATM    8  C8  UNL     1      23.055   1.665  50.938  1.00  0.00     0.070 A 
HETATM    9  N1  UNL     1      22.127   0.747  51.264  1.00  0.00    -0.259 NA
HETATM   10  C19 UNL     1      24.148   1.863  51.731  1.00  0.00     0.036 A 
HETATM   11  C9  UNL     1      22.250   0.004  52.375  1.00  0.00     0.142 A 
HETATM   12  C10 UNL     1      23.355   0.191  53.198  1.00  0.00     0.089 A 
HETATM   13  C11 UNL     1      23.443  -0.635  54.386  1.00  0.00     0.103 C 
HETATM   14  C12 UNL     1      24.336   1.137  52.884  1.00  0.00     0.069 A 
HETATM   15  N2  UNL     1      23.511  -1.283  55.350  1.00  0.00    -0.191 NA
HETATM   16  C20 UNL     1      25.201   2.630  51.727  1.00  0.00     0.100 C 
HETATM   17  N4  UNL     1      25.691   3.653  50.836  1.00  0.00    -0.380 N 
HETATM   18  H15 UNL     1      26.240   4.384  51.380  1.00  0.00     0.160 HD
BRANCH  14  19
HETATM   19  N3  UNL     1      25.421   1.245  53.790  1.00  0.00    -0.354 N 
HETATM   20  H9  UNL     1      25.001   1.726  54.615  1.00  0.00     0.166 HD
BRANCH  19  21
HETATM   21  C13 UNL     1      26.806   0.845  53.734  1.00  0.00     0.033 A 
HETATM   22  C14 UNL     1      27.740   1.836  53.948  1.00  0.00     0.029 A 
HETATM   23  C15 UNL     1      29.048   1.402  53.883  1.00  0.00     0.004 A 
HETATM   24  C16 UNL     1      29.367   0.072  53.624  1.00  0.00     0.019 A 
HETATM   25  C17 UNL     1      28.376  -0.862  53.420  1.00  0.00     0.013 A 
HETATM   26 BR1  UNL     1      28.832  -2.675  53.065  1.00  0.00    -0.051 Br
HETATM   27  C18 UNL     1      27.047  -0.488  53.472  1.00  0.00     0.048 A 
ENDBRANCH  19  21
ENDBRANCH  14  19
ENDBRANCH   3   4
TORSDOF 3
ENDMDL
MODEL 2
REMARK VINA RESULT:      -8.6      3.216      6.546
REMARK  3 active torsions:
REMARK  status: ('A' for Active; 'I' for Inactive)
REMARK    1  A    between atoms: C3_3  and  C4_4 
REMARK    2  A    between atoms: C12_14  and  N3_15 
REMARK    3  A    between atoms: N3_15  and  C13_16 
ROOT
HETATM    1  C1  UNL     1      29.961  -1.019  53.820  1.00  0.00     0.112 C 
HETATM    2  C2  UNL     1      28.631  -0.387  53.930  1.00  0.00    -0.109 C 
HETATM    3  C3  UNL     1      27.536   0.113  54.013  1.00  0.00    -0.077 C 
ENDROOT
BRANCH   3   4
HETATM    4  C4  UNL     1      26.194   0.714  54.136  1.00  0.00     0.184 C 
HETATM    5  C5  UNL     1      25.200  -0.339  53.954  1.00  0.00     0.011 C 
HETATM    6  C6  UNL     1      23.950  -0.544  53.574  1.00  0.00     0.001 C 
HETATM    7  C7  UNL     1      22.887   0.328  53.107  1.00  0.00     0.032 C 
HETATM    8  C8  UNL     1      22.861   1.577  52.711  1.00  0.00     0.070 A 
HETATM    9  N1  UNL     1      21.569   1.800  52.406  1.00  0.00    -0.259 NA
HETATM   10  C19 UNL     1      23.790   2.567  52.570  1.00  0.00     0.036 A 
HETATM   11  C9  UNL     1      21.161   2.997  51.957  1.00  0.00     0.142 A 
HETATM   12  C10 UNL     1      22.092   4.019  51.806  1.00  0.00     0.089 A 
HETATM   13  C11 UNL     1      21.603   5.294  51.318  1.00  0.00     0.103 C 
HETATM   14  C12 UNL     1      23.441   3.817  52.115  1.00  0.00     0.069 A 
HETATM   15  N2  UNL     1      21.220   6.314  50.911  1.00  0.00    -0.191 NA
HETATM   16  C20 UNL     1      25.072   2.704  52.761  1.00  0.00     0.100 C 
HETATM   17  N4  UNL     1      26.114   1.822  53.226  1.00  0.00    -0.380 N 
HETATM   18  H15 UNL     1      27.042   2.075  52.770  1.00  0.00     0.160 HD
BRANCH  14  19
HETATM   19  N3  UNL     1      24.305   4.925  51.925  1.00  0.00    -0.354 N 
HETATM   20  H9  UNL     1      24.364   5.352  52.876  1.00  0.00     0.166 HD
BRANCH  19  21
HETATM   21  C13 UNL     1      25.000   5.458  50.779  1.00  0.00     0.033 A 
HETATM   22  C14 UNL     1      25.640   4.543  49.970  1.00  0.00     0.029 A 
HETATM   23  C15 UNL     1      26.290   5.103  48.890  1.00  0.00     0.004 A 
HETATM   24  C16 UNL     1      26.282   6.476  48.660  1.00  0.00     0.019 A 
HETATM   25  C17 UNL     1      25.618   7.328  49.515  1.00  0.00     0.013 A 
HETATM   26 BR1  UNL     1      25.620   9.202  49.185  1.00  0.00    -0.051 Br
HETATM   27  C18 UNL     1      24.950   6.827  50.615  1.00  0.00     0.048 A 
ENDBRANCH  19  21
ENDBRANCH  14  19
ENDBRANCH   3   4
TORSDOF 3
ENDMDL
MODEL 3
REMARK VINA RESULT:      -8.6      2.125      3.117
REMARK  3 active torsions:
REMARK  status: ('A' for Active; 'I' for Inactive)
REMARK    1  A    between atoms: C3_3  and  C4_4 
REMARK    2  A    between atoms: C12_14  and  N3_15 
REMARK    3  A    between atoms: N3_15  and  C13_16 
ROOT
HETATM    1  C1  UNL     1      30.981   6.575  47.548  1.00  0.00     0.112 C 
HETATM    2  C2  UNL     1      29.612   6.172  47.930  1.00  0.00    -0.109 C 
HETATM    3  C3  UNL     1      28.488   5.855  48.229  1.00  0.00    -0.077 C 
ENDROOT
BRANCH   3   4
HETATM    4  C4  UNL     1      27.111   5.453  48.577  1.00  0.00     0.184 C 
HETATM    5  C5  UNL     1      26.405   6.622  49.089  1.00  0.00     0.011 C 
HETATM    6  C6  UNL     1      25.404   6.979  49.877  1.00  0.00     0.001 C 
HETATM    7  C7  UNL     1      24.448   6.239  50.682  1.00  0.00     0.032 C 
HETATM    8  C8  UNL     1      24.375   4.987  51.062  1.00  0.00     0.070 A 
HETATM    9  N1  UNL     1      23.246   4.930  51.793  1.00  0.00    -0.259 NA
HETATM   10  C19 UNL     1      25.140   3.873  50.874  1.00  0.00     0.036 A 
HETATM   11  C9  UNL     1      22.844   3.779  52.355  1.00  0.00     0.142 A 
HETATM   12  C10 UNL     1      23.610   2.632  52.177  1.00  0.00     0.089 A 
HETATM   13  C11 UNL     1      23.134   1.414  52.803  1.00  0.00     0.103 C 
HETATM   14  C12 UNL     1      24.787   2.662  51.422  1.00  0.00     0.069 A 
HETATM   15  N2  UNL     1      22.767   0.437  53.318  1.00  0.00    -0.191 NA
HETATM   16  C20 UNL     1      26.245   3.570  50.254  1.00  0.00     0.100 C 
HETATM   17  N4  UNL     1      27.184   4.322  49.458  1.00  0.00    -0.380 N 
HETATM   18  H15 UNL     1      28.163   3.921  49.566  1.00  0.00     0.160 HD
BRANCH  14  19
HETATM   19  N3  UNL     1      25.490   1.436  51.302  1.00  0.00    -0.354 N 
HETATM   20  H9  UNL     1      25.138   1.041  50.403  1.00  0.00     0.166 HD
BRANCH  19  21
HETATM   21  C13 UNL     1      26.470   0.769  52.125  1.00  0.00     0.033 A 
HETATM   22  C14 UNL     1      26.426  -0.610  52.134  1.00  0.00     0.029 A 
HETATM   23  C15 UNL     1      27.382  -1.198  52.936  1.00  0.00     0.004 A 
HETATM   24  C16 UNL     1      28.299  -0.442  53.660  1.00  0.00     0.019 A 
HETATM   25  C17 UNL     1      28.279   0.934  53.599  1.00  0.00     0.013 A 
HETATM   26 BR1  UNL     1      29.541   1.950  54.598  1.00  0.00    -0.051 Br
HETATM   27  C18 UNL     1      27.346   1.582  52.815  1.00  0.00     0.048 A 
ENDBRANCH  19  21
ENDBRANCH  14  19
ENDBRANCH   3   4
TORSDOF 3
ENDMDL
MODEL 4
REMARK VINA RESULT:      -8.4      2.432      6.114
REMARK  3 active torsions:
REMARK  status: ('A' for Active; 'I' for Inactive)
REMARK    1  A    between atoms: C3_3  and  C4_4 
REMARK    2  A    between atoms: C12_14  and  N3_15 
REMARK    3  A    between atoms: N3_15  and  C13_16 
ROOT
HETATM    1  C1  UNL     1      30.158  -0.907  53.783  1.00  0.00     0.112 C 
HETATM    2  C2  UNL     1      28.762  -0.429  53.824  1.00  0.00    -0.109 C 
HETATM    3  C3  UNL     1      27.615  -0.057  53.864  1.00  0.00    -0.077 C 
ENDROOT
BRANCH   3   4
HETATM    4  C4  UNL     1      26.215   0.404  53.937  1.00  0.00     0.184 C 
HETATM    5  C5  UNL     1      25.443  -0.587  54.678  1.00  0.00     0.011 C 
HETATM    6  C6  UNL     1      24.217  -1.062  54.827  1.00  0.00     0.001 C 
HETATM    7  C7  UNL     1      22.937  -0.745  54.218  1.00  0.00     0.032 C 
HETATM    8  C8  UNL     1      22.593  -0.028  53.176  1.00  0.00     0.070 A 
HETATM    9  N1  UNL     1      21.251  -0.126  53.138  1.00  0.00    -0.259 NA
HETATM   10  C19 UNL     1      23.265   0.708  52.244  1.00  0.00     0.036 A 
HETATM   11  C9  UNL     1      20.540   0.495  52.183  1.00  0.00     0.142 A 
HETATM   12  C10 UNL     1      21.205   1.248  51.222  1.00  0.00     0.089 A 
HETATM   13  C11 UNL     1      20.394   1.899  50.213  1.00  0.00     0.103 C 
HETATM   14  C12 UNL     1      22.599   1.368  51.238  1.00  0.00     0.069 A 
HETATM   15  N2  UNL     1      19.750   2.410  49.389  1.00  0.00    -0.191 NA
HETATM   16  C20 UNL     1      24.504   1.012  51.984  1.00  0.00     0.100 C 
HETATM   17  N4  UNL     1      25.766   0.685  52.602  1.00  0.00    -0.380 N 
HETATM   18  H15 UNL     1      26.538   0.651  51.871  1.00  0.00     0.160 HD
BRANCH  14  19
HETATM   19  N3  UNL     1      23.175   2.161  50.214  1.00  0.00    -0.354 N 
HETATM   20  H9  UNL     1      23.090   1.560  49.365  1.00  0.00     0.166 HD
BRANCH  19  21
HETATM   21  C13 UNL     1      23.769   3.476  50.190  1.00  0.00     0.033 A 
HETATM   22  C14 UNL     1      23.051   4.484  50.797  1.00  0.00     0.029 A 
HETATM   23  C15 UNL     1      23.662   5.720  50.747  1.00  0.00     0.004 A 
HETATM   24  C16 UNL     1      24.897   5.904  50.132  1.00  0.00     0.019 A 
HETATM   25  C17 UNL     1      25.554   4.844  49.546  1.00  0.00     0.013 A 
HETATM   26 BR1  UNL     1      27.241   5.116  48.708  1.00  0.00    -0.051 Br
HETATM   27  C18 UNL     1      24.994   3.583  49.563  1.00  0.00     0.048 A 
ENDBRANCH  19  21
ENDBRANCH  14  19
ENDBRANCH   3   4
TORSDOF 3
ENDMDL
MODEL 5
REMARK VINA RESULT:      -8.2      2.894      6.721
REMARK  3 active torsions:
REMARK  status: ('A' for Active; 'I' for Inactive)
REMARK    1  A    between atoms: C3_3  and  C4_4 
REMARK    2  A    between atoms: C12_14  and  N3_15 
REMARK    3  A    between atoms: N3_15  and  C13_16 
ROOT
HETATM    1  C1  UNL     1      29.917  -1.079  53.797  1.00  0.00     0.112 C 
HETATM    2  C2  UNL     1      28.753  -0.200  53.566  1.00  0.00    -0.109 C 
HETATM    3  C3  UNL     1      27.802   0.513  53.358  1.00  0.00    -0.077 C 
ENDROOT
BRANCH   3   4
HETATM    4  C4  UNL     1      26.625   1.366  53.105  1.00  0.00     0.184 C 
HETATM    5  C5  UNL     1      25.423   0.585  53.376  1.00  0.00     0.011 C 
HETATM    6  C6  UNL     1      24.142   0.491  53.061  1.00  0.00     0.001 C 
HETATM    7  C7  UNL     1      23.268   1.243  52.178  1.00  0.00     0.032 C 
HETATM    8  C8  UNL     1      23.489   2.135  51.244  1.00  0.00     0.070 A 
HETATM    9  N1  UNL     1      22.262   2.452  50.793  1.00  0.00    -0.259 NA
HETATM   10  C19 UNL     1      24.600   2.724  50.713  1.00  0.00     0.036 A 
HETATM   11  C9  UNL     1      22.097   3.355  49.813  1.00  0.00     0.142 A 
HETATM   12  C10 UNL     1      23.215   3.967  49.258  1.00  0.00     0.089 A 
HETATM   13  C11 UNL     1      22.986   4.934  48.203  1.00  0.00     0.103 C 
HETATM   14  C12 UNL     1      24.503   3.656  49.707  1.00  0.00     0.069 A 
HETATM   15  N2  UNL     1      22.810   5.698  47.344  1.00  0.00    -0.191 NA
HETATM   16  C20 UNL     1      25.889   2.664  50.894  1.00  0.00     0.100 C 
HETATM   17  N4  UNL     1      26.741   1.907  51.779  1.00  0.00    -0.380 N 
HETATM   18  H15 UNL     1      27.679   1.717  51.315  1.00  0.00     0.160 HD
BRANCH  14  19
HETATM   19  N3  UNL     1      25.573   4.339  49.074  1.00  0.00    -0.354 N 
HETATM   20  H9  UNL     1      25.949   3.633  48.404  1.00  0.00     0.166 HD
BRANCH  19  21
HETATM   21  C13 UNL     1      26.124   5.665  49.209  1.00  0.00     0.033 A 
HETATM   22  C14 UNL     1      25.496   6.501  50.108  1.00  0.00     0.029 A 
HETATM   23  C15 UNL     1      26.061   7.757  50.200  1.00  0.00     0.004 A 
HETATM   24  C16 UNL     1      27.169   8.120  49.440  1.00  0.00     0.019 A 
HETATM   25  C17 UNL     1      27.742   7.226  48.562  1.00  0.00     0.013 A 
HETATM   26 BR1  UNL     1      29.257   7.742  47.531  1.00  0.00    -0.051 Br
HETATM   27  C18 UNL     1      27.222   5.955  48.425  1.00  0.00     0.048 A 
ENDBRANCH  19  21
ENDBRANCH  14  19
ENDBRANCH   3   4
TORSDOF 3
ENDMDL
MODEL 6
REMARK VINA RESULT:      -8.1      3.139      6.867
REMARK  3 active torsions:
REMARK  status: ('A' for Active; 'I' for Inactive)
REMARK    1  A    between atoms: C3_3  and  C4_4 
REMARK    2  A    between atoms: C12_14  and  N3_15 
REMARK    3  A    between atoms: N3_15  and  C13_16 
ROOT
HETATM    1  C1  UNL     1      16.066   0.357  52.240  1.00  0.00     0.112 C 
HETATM    2  C2  UNL     1      17.496  -0.008  52.280  1.00  0.00    -0.109 C 
HETATM    3  C3  UNL     1      18.666  -0.297  52.330  1.00  0.00    -0.077 C 
ENDROOT
BRANCH   3   4
HETATM    4  C4  UNL     1      20.092  -0.669  52.405  1.00  0.00     0.184 C 
HETATM    5  C5  UNL     1      20.343  -1.269  53.711  1.00  0.00     0.011 C 
HETATM    6  C6  UNL     1      21.299  -1.477  54.601  1.00  0.00     0.001 C 
HETATM    7  C7  UNL     1      22.711  -1.142  54.655  1.00  0.00     0.032 C 
HETATM    8  C8  UNL     1      23.472  -0.349  53.941  1.00  0.00     0.070 A 
HETATM    9  N1  UNL     1      24.693  -0.478  54.493  1.00  0.00    -0.259 NA
HETATM   10  C19 UNL     1      23.275   0.479  52.874  1.00  0.00     0.036 A 
HETATM   11  C9  UNL     1      25.745   0.201  54.011  1.00  0.00     0.142 A 
HETATM   12  C10 UNL     1      25.565   1.051  52.925  1.00  0.00     0.089 A 
HETATM   13  C11 UNL     1      26.731   1.763  52.440  1.00  0.00     0.103 C 
HETATM   14  C12 UNL     1      24.308   1.205  52.331  1.00  0.00     0.069 A 
HETATM   15  N2  UNL     1      27.660   2.351  52.057  1.00  0.00    -0.191 NA
HETATM   16  C20 UNL     1      22.275   0.836  52.118  1.00  0.00     0.100 C 
HETATM   17  N4  UNL     1      20.875   0.491  52.082  1.00  0.00    -0.380 N 
HETATM   18  H15 UNL     1      20.302   1.313  51.723  1.00  0.00     0.160 HD
BRANCH  14  19
HETATM   19  N3  UNL     1      24.236   2.095  51.229  1.00  0.00    -0.354 N 
HETATM   20  H9  UNL     1      24.082   1.461  50.415  1.00  0.00     0.166 HD
BRANCH  19  21
HETATM   21  C13 UNL     1      24.333   3.529  51.103  1.00  0.00     0.033 A 
HETATM   22  C14 UNL     1      23.568   4.274  51.975  1.00  0.00     0.029 A 
HETATM   23  C15 UNL     1      23.696   5.639  51.812  1.00  0.00     0.004 A 
HETATM   24  C16 UNL     1      24.533   6.187  50.844  1.00  0.00     0.019 A 
HETATM   25  C17 UNL     1      25.267   5.374  50.008  1.00  0.00     0.013 A 
HETATM   26 BR1  UNL     1      26.405   6.143  48.691  1.00  0.00    -0.051 Br
HETATM   27  C18 UNL     1      25.181   4.001  50.122  1.00  0.00     0.048 A 
ENDBRANCH  19  21
ENDBRANCH  14  19
ENDBRANCH   3   4
TORSDOF 3
ENDMDL
MODEL 7
REMARK VINA RESULT:      -8.1      2.052      2.627
REMARK  3 active torsions:
REMARK  status: ('A' for Active; 'I' for Inactive)
REMARK    1  A    between atoms: C3_3  and  C4_4 
REMARK    2  A    between atoms: C12_14  and  N3_15 
REMARK    3  A    between atoms: N3_15  and  C13_16 
ROOT
HETATM    1  C1  UNL     1      23.511   6.933  47.474  1.00  0.00     0.112 C 
HETATM    2  C2  UNL     1      23.233   5.569  47.968  1.00  0.00    -0.109 C 
HETATM    3  C3  UNL     1      23.021   4.457  48.384  1.00  0.00    -0.077 C 
ENDROOT
BRANCH   3   4
HETATM    4  C4  UNL     1      22.750   3.106  48.911  1.00  0.00     0.184 C 
HETATM    5  C5  UNL     1      21.340   2.802  48.697  1.00  0.00     0.011 C 
HETATM    6  C6  UNL     1      20.343   2.069  49.166  1.00  0.00     0.001 C 
HETATM    7  C7  UNL     1      20.225   1.117  50.257  1.00  0.00     0.032 C 
HETATM    8  C8  UNL     1      21.000   0.811  51.268  1.00  0.00     0.070 A 
HETATM    9  N1  UNL     1      20.325  -0.153  51.921  1.00  0.00    -0.259 NA
HETATM   10  C19 UNL     1      22.213   1.241  51.721  1.00  0.00     0.036 A 
HETATM   11  C9  UNL     1      20.826  -0.717  53.031  1.00  0.00     0.142 A 
HETATM   12  C10 UNL     1      22.061  -0.294  53.510  1.00  0.00     0.089 A 
HETATM   13  C11 UNL     1      22.560  -0.933  54.712  1.00  0.00     0.103 C 
HETATM   14  C12 UNL     1      22.784   0.707  52.852  1.00  0.00     0.069 A 
HETATM   15  N2  UNL     1      22.958  -1.429  55.686  1.00  0.00    -0.191 NA
HETATM   16  C20 UNL     1      23.109   2.115  51.361  1.00  0.00     0.100 C 
HETATM   17  N4  UNL     1      23.208   3.056  50.271  1.00  0.00    -0.380 N 
HETATM   18  H15 UNL     1      23.761   3.913  50.573  1.00  0.00     0.160 HD
BRANCH  14  19
HETATM   19  N3  UNL     1      24.032   1.062  53.425  1.00  0.00    -0.354 N 
HETATM   20  H9  UNL     1      23.795   1.871  54.040  1.00  0.00     0.166 HD
BRANCH  19  21
HETATM   21  C13 UNL     1      25.371   0.541  53.292  1.00  0.00     0.033 A 
HETATM   22  C14 UNL     1      25.487  -0.718  52.741  1.00  0.00     0.029 A 
HETATM   23  C15 UNL     1      26.786  -1.170  52.636  1.00  0.00     0.004 A 
HETATM   24  C16 UNL     1      27.867  -0.400  53.056  1.00  0.00     0.019 A 
HETATM   25  C17 UNL     1      27.670   0.851  53.598  1.00  0.00     0.013 A 
HETATM   26 BR1  UNL     1      29.160   1.888  54.168  1.00  0.00    -0.051 Br
HETATM   27  C18 UNL     1      26.392   1.359  53.730  1.00  0.00     0.048 A 
ENDBRANCH  19  21
ENDBRANCH  14  19
ENDBRANCH   3   4
TORSDOF 3
ENDMDL
MODEL 8
REMARK VINA RESULT:      -8.0      3.207      6.187
REMARK  3 active torsions:
REMARK  status: ('A' for Active; 'I' for Inactive)
REMARK    1  A    between atoms: C3_3  and  C4_4 
REMARK    2  A    between atoms: C12_14  and  N3_15 
REMARK    3  A    between atoms: N3_15  and  C13_16 
ROOT
HETATM    1  C1  UNL     1      16.648   2.795  51.367  1.00  0.00     0.112 C 
HETATM    2  C2  UNL     1      17.982   2.170  51.475  1.00  0.00    -0.109 C 
HETATM    3  C3  UNL     1      19.070   1.655  51.545  1.00  0.00    -0.077 C 
ENDROOT
BRANCH   3   4
HETATM    4  C4  UNL     1      20.412   1.045  51.621  1.00  0.00     0.184 C 
HETATM    5  C5  UNL     1      20.332  -0.138  52.472  1.00  0.00     0.011 C 
HETATM    6  C6  UNL     1      21.060  -0.911  53.261  1.00  0.00     0.001 C 
HETATM    7  C7  UNL     1      22.453  -0.899  53.669  1.00  0.00     0.032 C 
HETATM    8  C8  UNL     1      23.412  -0.012  53.561  1.00  0.00     0.070 A 
HETATM    9  N1  UNL     1      24.475  -0.604  54.137  1.00  0.00    -0.259 NA
HETATM   10  C19 UNL     1      23.514   1.243  53.035  1.00  0.00     0.036 A 
HETATM   11  C9  UNL     1      25.660   0.023  54.210  1.00  0.00     0.142 A 
HETATM   12  C10 UNL     1      25.784   1.304  53.682  1.00  0.00     0.089 A 
HETATM   13  C11 UNL     1      27.083   1.939  53.785  1.00  0.00     0.103 C 
HETATM   14  C12 UNL     1      24.697   1.943  53.077  1.00  0.00     0.069 A 
HETATM   15  N2  UNL     1      28.118   2.462  53.880  1.00  0.00    -0.191 NA
HETATM   16  C20 UNL     1      22.728   2.088  52.429  1.00  0.00     0.100 C 
HETATM   17  N4  UNL     1      21.342   2.058  52.032  1.00  0.00    -0.380 N 
HETATM   18  H15 UNL     1      20.930   3.039  52.057  1.00  0.00     0.160 HD
BRANCH  14  19
HETATM   19  N3  UNL     1      24.933   3.246  52.570  1.00  0.00    -0.354 N 
HETATM   20  H9  UNL     1      24.763   3.861  53.395  1.00  0.00     0.166 HD
BRANCH  19  21
HETATM   21  C13 UNL     1      25.315   3.754  51.275  1.00  0.00     0.033 A 
HETATM   22  C14 UNL     1      26.398   3.148  50.674  1.00  0.00     0.029 A 
HETATM   23  C15 UNL     1      26.722   3.671  49.438  1.00  0.00     0.004 A 
HETATM   24  C16 UNL     1      26.000   4.718  48.873  1.00  0.00     0.019 A 
HETATM   25  C17 UNL     1      24.928   5.272  49.537  1.00  0.00     0.013 A 
HETATM   26 BR1  UNL     1      23.955   6.704  48.748  1.00  0.00    -0.051 Br
HETATM   27  C18 UNL     1      24.555   4.793  50.777  1.00  0.00     0.048 A 
ENDBRANCH  19  21
ENDBRANCH  14  19
ENDBRANCH   3   4
TORSDOF 3
ENDMDL
MODEL 9
REMARK VINA RESULT:      -7.8      3.605      6.510
REMARK  3 active torsions:
REMARK  status: ('A' for Active; 'I' for Inactive)
REMARK    1  A    between atoms: C3_3  and  C4_4 
REMARK    2  A    between atoms: C12_14  and  N3_15 
REMARK    3  A    between atoms: N3_15  and  C13_16 
ROOT
HETATM    1  C1  UNL     1      15.921   2.753  48.972  1.00  0.00     0.112 C 
HETATM    2  C2  UNL     1      16.847   1.816  49.640  1.00  0.00    -0.109 C 
HETATM    3  C3  UNL     1      17.598   1.037  50.173  1.00  0.00    -0.077 C 
ENDROOT
BRANCH   3   4
HETATM    4  C4  UNL     1      18.534   0.089  50.808  1.00  0.00     0.184 C 
HETATM    5  C5  UNL     1      17.869  -0.513  51.958  1.00  0.00     0.011 C 
HETATM    6  C6  UNL     1      18.111  -1.082  53.128  1.00  0.00     0.001 C 
HETATM    7  C7  UNL     1      19.326  -1.388  53.863  1.00  0.00     0.032 C 
HETATM    8  C8  UNL     1      20.578  -1.028  53.717  1.00  0.00     0.070 A 
HETATM    9  N1  UNL     1      21.220  -1.652  54.721  1.00  0.00    -0.259 NA
HETATM   10  C19 UNL     1      21.260  -0.235  52.840  1.00  0.00     0.036 A 
HETATM   11  C9  UNL     1      22.545  -1.511  54.888  1.00  0.00     0.142 A 
HETATM   12  C10 UNL     1      23.258  -0.706  54.006  1.00  0.00     0.089 A 
HETATM   13  C11 UNL     1      24.686  -0.586  54.227  1.00  0.00     0.103 C 
HETATM   14  C12 UNL     1      22.617  -0.046  52.953  1.00  0.00     0.069 A 
HETATM   15  N2  UNL     1      25.829  -0.471  54.409  1.00  0.00    -0.191 NA
HETATM   16  C20 UNL     1      20.978   0.491  51.795  1.00  0.00     0.100 C 
HETATM   17  N4  UNL     1      19.761   0.784  51.079  1.00  0.00    -0.380 N 
HETATM   18  H15 UNL     1      19.808   1.759  50.656  1.00  0.00     0.160 HD
BRANCH  14  19
HETATM   19  N3  UNL     1      23.439   0.747  52.112  1.00  0.00    -0.354 N 
HETATM   20  H9  UNL     1      23.991   0.042  51.578  1.00  0.00     0.166 HD
BRANCH  19  21
HETATM   21  C13 UNL     1      23.590   2.170  51.927  1.00  0.00     0.033 A 
HETATM   22  C14 UNL     1      23.771   2.921  53.070  1.00  0.00     0.029 A 
HETATM   23  C15 UNL     1      23.910   4.274  52.838  1.00  0.00     0.004 A 
HETATM   24  C16 UNL     1      23.868   4.807  51.553  1.00  0.00     0.019 A 
HETATM   25  C17 UNL     1      23.683   3.990  50.459  1.00  0.00     0.013 A 
HETATM   26 BR1  UNL     1      23.627   4.737  48.710  1.00  0.00    -0.051 Br
HETATM   27  C18 UNL     1      23.537   2.627  50.626  1.00  0.00     0.048 A 
ENDBRANCH  19  21
ENDBRANCH  14  19
ENDBRANCH   3   4
TORSDOF 3
ENDMDL
