MODEL 1
REMARK VINA RESULT:      -9.1      0.000      0.000
REMARK  2 active torsions:
REMARK  status: ('A' for Active; 'I' for Inactive)
REMARK    1  A    between atoms: C1_2  and  C2_3 
REMARK    2  A    between atoms: N1_7  and  C6_8 
ROOT
HETATM    1  C6  UNL     1      25.392  -0.309  54.014  1.00  0.00     0.140 C 
HETATM    2  N2  UNL     1      25.243  -1.011  55.111  1.00  0.00    -0.224 NA
HETATM    3  C7  UNL     1      24.092  -1.409  55.881  1.00  0.00     0.230 C 
HETATM    4  N3  UNL     1      22.838  -1.611  55.662  1.00  0.00    -0.263 NA
HETATM    5  C8  UNL     1      21.969  -1.530  54.508  1.00  0.00     0.272 C 
HETATM    6  N4  UNL     1      22.031  -0.286  53.805  1.00  0.00    -0.370 N 
HETATM    7  C9  UNL     1      23.104   0.339  53.077  1.00  0.00     0.054 A 
HETATM    8  C10 UNL     1      24.426   0.343  53.142  1.00  0.00     0.038 A 
HETATM    9  C11 UNL     1      25.003   1.188  52.112  1.00  0.00     0.026 A 
HETATM   10  C12 UNL     1      24.014   1.708  51.405  1.00  0.00    -0.038 A 
HETATM   11  C13 UNL     1      24.053   2.634  50.244  1.00  0.00     0.109 A 
HETATM   12  C14 UNL     1      22.688   2.948  49.777  1.00  0.00     0.098 A 
HETATM   13  F1  UNL     1      22.544   3.775  48.731  1.00  0.00    -0.210 F 
HETATM   14  C15 UNL     1      21.576   2.475  50.313  1.00  0.00     0.039 A 
HETATM   15  C16 UNL     1      21.584   1.567  51.454  1.00  0.00     0.017 A 
HETATM   16  C17 UNL     1      22.751   1.222  51.949  1.00  0.00    -0.002 A 
HETATM   17  H10 UNL     1      21.187   0.359  53.756  1.00  0.00     0.161 HD
ENDROOT
BRANCH   1  18
HETATM   18  N1  UNL     1      26.781  -0.194  53.645  1.00  0.00    -0.351 N 
HETATM   19  C2  UNL     1      27.936  -0.847  53.011  1.00  0.00     0.142 C 
HETATM   20  C3  UNL     1      28.935  -0.752  54.110  1.00  0.00    -0.002 C 
HETATM   21  C4  UNL     1      28.695   0.421  54.714  1.00  0.00    -0.009 C 
HETATM   22  C5  UNL     1      27.536   1.014  53.949  1.00  0.00     0.152 C 
BRANCH  19  23
HETATM   23  C1  UNL     1      27.660  -2.225  52.588  1.00  0.00     0.420 C 
HETATM   24  O1  UNL     1      28.526  -2.797  53.241  1.00  0.00    -0.428 OA
ENDBRANCH  19  23
ENDBRANCH   1  18
TORSDOF 2
ENDMDL
MODEL 2
REMARK VINA RESULT:      -8.8      2.863      4.495
REMARK  2 active torsions:
REMARK  status: ('A' for Active; 'I' for Inactive)
REMARK    1  A    between atoms: C1_2  and  C2_3 
REMARK    2  A    between atoms: N1_7  and  C6_8 
ROOT
HETATM    1  C6  UNL     1      26.299   1.337  52.110  1.00  0.00     0.140 C 
HETATM    2  N2  UNL     1      26.929   2.087  51.239  1.00  0.00    -0.224 NA
HETATM    3  C7  UNL     1      26.494   2.868  50.109  1.00  0.00     0.230 C 
HETATM    4  N3  UNL     1      25.413   3.462  49.737  1.00  0.00    -0.263 NA
HETATM    5  C8  UNL     1      24.088   3.631  50.293  1.00  0.00     0.272 C 
HETATM    6  N4  UNL     1      23.447   2.412  50.678  1.00  0.00    -0.370 N 
HETATM    7  C9  UNL     1      23.780   1.444  51.690  1.00  0.00     0.054 A 
HETATM    8  C10 UNL     1      24.890   1.008  52.264  1.00  0.00     0.038 A 
HETATM    9  C11 UNL     1      24.605  -0.015  53.255  1.00  0.00     0.026 A 
HETATM   10  C12 UNL     1      23.297  -0.207  53.284  1.00  0.00    -0.038 A 
HETATM   11  C13 UNL     1      22.484  -1.134  54.111  1.00  0.00     0.109 A 
HETATM   12  C14 UNL     1      21.049  -0.999  53.798  1.00  0.00     0.098 A 
HETATM   13  F1  UNL     1      20.173  -1.769  54.460  1.00  0.00    -0.210 F 
HETATM   14  C15 UNL     1      20.544  -0.168  52.901  1.00  0.00     0.039 A 
HETATM   15  C16 UNL     1      21.379   0.726  52.108  1.00  0.00     0.017 A 
HETATM   16  C17 UNL     1      22.678   0.686  52.311  1.00  0.00    -0.002 A 
HETATM   17  H10 UNL     1      22.564   2.078  50.189  1.00  0.00     0.161 HD
ENDROOT
BRANCH   1  18
HETATM   18  N1  UNL     1      27.210   0.759  53.066  1.00  0.00    -0.351 N 
HETATM   19  C2  UNL     1      28.329   1.000  53.990  1.00  0.00     0.142 C 
HETATM   20  C3  UNL     1      29.311   0.001  53.488  1.00  0.00    -0.002 C 
HETATM   21  C4  UNL     1      28.582  -1.057  53.104  1.00  0.00    -0.009 C 
HETATM   22  C5  UNL     1      27.153  -0.660  53.388  1.00  0.00     0.152 C 
BRANCH  19  23
HETATM   23  C1  UNL     1      28.826   2.381  53.946  1.00  0.00     0.420 C 
HETATM   24  O1  UNL     1      29.530   2.356  54.949  1.00  0.00    -0.428 OA
ENDBRANCH  19  23
ENDBRANCH   1  18
TORSDOF 2
ENDMDL
MODEL 3
REMARK VINA RESULT:      -8.3      3.200      5.654
REMARK  2 active torsions:
REMARK  status: ('A' for Active; 'I' for Inactive)
REMARK    1  A    between atoms: C1_2  and  C2_3 
REMARK    2  A    between atoms: N1_7  and  C6_8 
ROOT
HETATM    1  C6  UNL     1      25.243   2.300  51.880  1.00  0.00     0.140 C 
HETATM    2  N2  UNL     1      26.545   2.379  52.011  1.00  0.00    -0.224 NA
HETATM    3  C7  UNL     1      27.513   1.607  52.749  1.00  0.00     0.230 C 
HETATM    4  N3  UNL     1      27.607   0.405  53.205  1.00  0.00    -0.263 NA
HETATM    5  C8  UNL     1      26.762  -0.769  53.191  1.00  0.00     0.272 C 
HETATM    6  N4  UNL     1      25.431  -0.548  53.665  1.00  0.00    -0.370 N 
HETATM    7  C9  UNL     1      24.361   0.262  53.145  1.00  0.00     0.054 A 
HETATM    8  C10 UNL     1      24.267   1.381  52.444  1.00  0.00     0.038 A 
HETATM    9  C11 UNL     1      22.880   1.738  52.203  1.00  0.00     0.026 A 
HETATM   10  C12 UNL     1      22.115   0.819  52.768  1.00  0.00    -0.038 A 
HETATM   11  C13 UNL     1      20.635   0.707  52.821  1.00  0.00     0.109 A 
HETATM   12  C14 UNL     1      20.225  -0.497  53.569  1.00  0.00     0.098 A 
HETATM   13  F1  UNL     1      18.915  -0.748  53.711  1.00  0.00    -0.210 F 
HETATM   14  C15 UNL     1      21.055  -1.365  54.123  1.00  0.00     0.039 A 
HETATM   15  C16 UNL     1      22.503  -1.216  54.048  1.00  0.00     0.017 A 
HETATM   16  C17 UNL     1      22.976  -0.174  53.401  1.00  0.00    -0.002 A 
HETATM   17  H10 UNL     1      25.078  -1.022  54.549  1.00  0.00     0.161 HD
ENDROOT
BRANCH   1  18
HETATM   18  N1  UNL     1      24.737   3.333  51.009  1.00  0.00    -0.351 N 
HETATM   19  C2  UNL     1      24.015   4.611  50.920  1.00  0.00     0.142 C 
HETATM   20  C3  UNL     1      22.931   4.241  49.970  1.00  0.00    -0.002 C 
HETATM   21  C4  UNL     1      23.489   3.380  49.106  1.00  0.00    -0.009 C 
HETATM   22  C5  UNL     1      24.921   3.250  49.567  1.00  0.00     0.152 C 
BRANCH  19  23
HETATM   23  C1  UNL     1      23.519   5.086  52.218  1.00  0.00     0.420 C 
HETATM   24  O1  UNL     1      22.338   5.233  51.922  1.00  0.00    -0.428 OA
ENDBRANCH  19  23
ENDBRANCH   1  18
TORSDOF 2
ENDMDL
MODEL 4
REMARK VINA RESULT:      -8.1      3.519      6.225
REMARK  2 active torsions:
REMARK  status: ('A' for Active; 'I' for Inactive)
REMARK    1  A    between atoms: C1_2  and  C2_3 
REMARK    2  A    between atoms: N1_7  and  C6_8 
ROOT
HETATM    1  C6  UNL     1      23.400   1.945  51.418  1.00  0.00     0.140 C 
HETATM    2  N2  UNL     1      22.221   1.421  51.186  1.00  0.00    -0.224 NA
HETATM    3  C7  UNL     1      21.560   0.229  51.653  1.00  0.00     0.230 C 
HETATM    4  N3  UNL     1      21.623  -0.538  52.687  1.00  0.00    -0.263 NA
HETATM    5  C8  UNL     1      22.409  -0.564  53.902  1.00  0.00     0.272 C 
HETATM    6  N4  UNL     1      23.822  -0.499  53.696  1.00  0.00    -0.370 N 
HETATM    7  C9  UNL     1      24.654   0.540  53.147  1.00  0.00     0.054 A 
HETATM    8  C10 UNL     1      24.508   1.507  52.255  1.00  0.00     0.038 A 
HETATM    9  C11 UNL     1      25.731   2.274  52.102  1.00  0.00     0.026 A 
HETATM   10  C12 UNL     1      26.640   1.766  52.917  1.00  0.00    -0.038 A 
HETATM   11  C13 UNL     1      28.049   2.172  53.151  1.00  0.00     0.109 A 
HETATM   12  C14 UNL     1      28.685   1.305  54.162  1.00  0.00     0.098 A 
HETATM   13  F1  UNL     1      29.964   1.538  54.491  1.00  0.00    -0.210 F 
HETATM   14  C15 UNL     1      28.090   0.299  54.780  1.00  0.00     0.039 A 
HETATM   15  C16 UNL     1      26.704  -0.067  54.519  1.00  0.00     0.017 A 
HETATM   16  C17 UNL     1      26.042   0.644  53.633  1.00  0.00    -0.002 A 
HETATM   17  H10 UNL     1      24.454  -1.311  53.963  1.00  0.00     0.161 HD
ENDROOT
BRANCH   1  18
HETATM   18  N1  UNL     1      23.583   3.176  50.690  1.00  0.00    -0.351 N 
HETATM   19  C2  UNL     1      23.508   4.644  50.733  1.00  0.00     0.142 C 
HETATM   20  C3  UNL     1      22.608   4.901  49.575  1.00  0.00    -0.002 C 
HETATM   21  C4  UNL     1      22.926   3.972  48.661  1.00  0.00    -0.009 C 
HETATM   22  C5  UNL     1      24.029   3.165  49.304  1.00  0.00     0.152 C 
BRANCH  19  23
HETATM   23  C1  UNL     1      22.985   5.159  52.005  1.00  0.00     0.420 C 
HETATM   24  O1  UNL     1      21.867   5.488  51.627  1.00  0.00    -0.428 OA
ENDBRANCH  19  23
ENDBRANCH   1  18
TORSDOF 2
ENDMDL
MODEL 5
REMARK VINA RESULT:      -8.0      3.755      6.778
REMARK  2 active torsions:
REMARK  status: ('A' for Active; 'I' for Inactive)
REMARK    1  A    between atoms: C1_2  and  C2_3 
REMARK    2  A    between atoms: N1_7  and  C6_8 
ROOT
HETATM    1  C6  UNL     1      23.867   2.664  50.331  1.00  0.00     0.140 C 
HETATM    2  N2  UNL     1      24.951   3.344  50.044  1.00  0.00    -0.224 NA
HETATM    3  C7  UNL     1      26.266   3.398  50.629  1.00  0.00     0.230 C 
HETATM    4  N3  UNL     1      27.021   2.616  51.322  1.00  0.00    -0.263 NA
HETATM    5  C8  UNL     1      26.899   1.276  51.855  1.00  0.00     0.272 C 
HETATM    6  N4  UNL     1      25.721   1.051  52.632  1.00  0.00    -0.370 N 
HETATM    7  C9  UNL     1      24.328   1.063  52.269  1.00  0.00     0.054 A 
HETATM    8  C10 UNL     1      23.582   1.687  51.371  1.00  0.00     0.038 A 
HETATM    9  C11 UNL     1      22.189   1.290  51.473  1.00  0.00     0.026 A 
HETATM   10  C12 UNL     1      22.084   0.407  52.452  1.00  0.00    -0.038 A 
HETATM   11  C13 UNL     1      20.891  -0.311  52.969  1.00  0.00     0.109 A 
HETATM   12  C14 UNL     1      21.258  -1.208  54.082  1.00  0.00     0.098 A 
HETATM   13  F1  UNL     1      20.292  -1.933  54.665  1.00  0.00    -0.210 F 
HETATM   14  C15 UNL     1      22.481  -1.359  54.561  1.00  0.00     0.039 A 
HETATM   15  C16 UNL     1      23.626  -0.633  54.024  1.00  0.00     0.017 A 
HETATM   16  C17 UNL     1      23.408   0.195  53.026  1.00  0.00    -0.002 A 
HETATM   17  H10 UNL     1      25.782   0.830  53.671  1.00  0.00     0.161 HD
ENDROOT
BRANCH   1  18
HETATM   18  N1  UNL     1      22.792   2.977  49.421  1.00  0.00    -0.351 N 
HETATM   19  C2  UNL     1      21.580   3.777  49.190  1.00  0.00     0.142 C 
HETATM   20  C3  UNL     1      20.601   2.699  48.883  1.00  0.00    -0.002 C 
HETATM   21  C4  UNL     1      21.292   1.767  48.209  1.00  0.00    -0.009 C 
HETATM   22  C5  UNL     1      22.696   2.318  48.126  1.00  0.00     0.152 C 
BRANCH  19  23
HETATM   23  C1  UNL     1      21.201   4.600  50.345  1.00  0.00     0.420 C 
HETATM   24  O1  UNL     1      20.030   4.253  50.444  1.00  0.00    -0.428 OA
ENDBRANCH  19  23
ENDBRANCH   1  18
TORSDOF 2
ENDMDL
MODEL 6
REMARK VINA RESULT:      -7.9      1.985      2.974
REMARK  2 active torsions:
REMARK  status: ('A' for Active; 'I' for Inactive)
REMARK    1  A    between atoms: C1_2  and  C2_3 
REMARK    2  A    between atoms: N1_7  and  C6_8 
ROOT
HETATM    1  C6  UNL     1      24.384   0.046  53.047  1.00  0.00     0.140 C 
HETATM    2  N2  UNL     1      23.401  -0.558  53.670  1.00  0.00    -0.224 NA
HETATM    3  C7  UNL     1      21.969  -0.402  53.642  1.00  0.00     0.230 C 
HETATM    4  N3  UNL     1      21.086   0.029  52.809  1.00  0.00    -0.263 NA
HETATM    5  C8  UNL     1      21.116   0.575  51.469  1.00  0.00     0.272 C 
HETATM    6  N4  UNL     1      22.013   1.676  51.298  1.00  0.00    -0.370 N 
HETATM    7  C9  UNL     1      23.447   1.754  51.392  1.00  0.00     0.054 A 
HETATM    8  C10 UNL     1      24.393   1.126  52.071  1.00  0.00     0.038 A 
HETATM    9  C11 UNL     1      25.710   1.648  51.749  1.00  0.00     0.026 A 
HETATM   10  C12 UNL     1      25.562   2.614  50.857  1.00  0.00    -0.038 A 
HETATM   11  C13 UNL     1      26.580   3.472  50.199  1.00  0.00     0.109 A 
HETATM   12  C14 UNL     1      25.944   4.421  49.265  1.00  0.00     0.098 A 
HETATM   13  F1  UNL     1      26.726   5.272  48.586  1.00  0.00    -0.210 F 
HETATM   14  C15 UNL     1      24.644   4.505  49.040  1.00  0.00     0.039 A 
HETATM   15  C16 UNL     1      23.677   3.643  49.709  1.00  0.00     0.017 A 
HETATM   16  C17 UNL     1      24.140   2.758  50.564  1.00  0.00    -0.002 A 
HETATM   17  H10 UNL     1      21.651   2.646  51.056  1.00  0.00     0.161 HD
ENDROOT
BRANCH   1  18
HETATM   18  N1  UNL     1      25.665  -0.493  53.433  1.00  0.00    -0.351 N 
HETATM   19  C2  UNL     1      26.879  -0.299  54.239  1.00  0.00     0.142 C 
HETATM   20  C3  UNL     1      27.923  -0.419  53.184  1.00  0.00    -0.002 C 
HETATM   21  C4  UNL     1      27.463  -1.344  52.328  1.00  0.00    -0.009 C 
HETATM   22  C5  UNL     1      26.130  -1.765  52.899  1.00  0.00     0.152 C 
BRANCH  19  23
HETATM   23  C1  UNL     1      26.906   0.988  54.945  1.00  0.00     0.420 C 
HETATM   24  O1  UNL     1      28.119   1.161  54.968  1.00  0.00    -0.428 OA
ENDBRANCH  19  23
ENDBRANCH   1  18
TORSDOF 2
ENDMDL
MODEL 7
REMARK VINA RESULT:      -7.9      4.065      7.322
REMARK  2 active torsions:
REMARK  status: ('A' for Active; 'I' for Inactive)
REMARK    1  A    between atoms: C1_2  and  C2_3 
REMARK    2  A    between atoms: N1_7  and  C6_8 
ROOT
HETATM    1  C6  UNL     1      23.206   3.469  49.963  1.00  0.00     0.140 C 
HETATM    2  N2  UNL     1      23.466   4.501  49.199  1.00  0.00    -0.224 NA
HETATM    3  C7  UNL     1      24.654   5.283  48.964  1.00  0.00     0.230 C 
HETATM    4  N3  UNL     1      25.928   5.105  49.043  1.00  0.00    -0.263 NA
HETATM    5  C8  UNL     1      26.792   4.005  49.414  1.00  0.00     0.272 C 
HETATM    6  N4  UNL     1      26.494   3.420  50.685  1.00  0.00    -0.370 N 
HETATM    7  C9  UNL     1      25.336   2.705  51.151  1.00  0.00     0.054 A 
HETATM    8  C10 UNL     1      24.040   2.709  50.882  1.00  0.00     0.038 A 
HETATM    9  C11 UNL     1      23.329   1.737  51.693  1.00  0.00     0.026 A 
HETATM   10  C12 UNL     1      24.208   1.129  52.471  1.00  0.00    -0.038 A 
HETATM   11  C13 UNL     1      24.011   0.060  53.484  1.00  0.00     0.109 A 
HETATM   12  C14 UNL     1      25.294  -0.312  54.112  1.00  0.00     0.098 A 
HETATM   13  F1  UNL     1      25.292  -1.268  55.053  1.00  0.00    -0.210 F 
HETATM   14  C15 UNL     1      26.465   0.228  53.821  1.00  0.00     0.039 A 
HETATM   15  C16 UNL     1      26.614   1.277  52.820  1.00  0.00     0.017 A 
HETATM   16  C17 UNL     1      25.529   1.683  52.197  1.00  0.00    -0.002 A 
HETATM   17  H10 UNL     1      27.189   3.471  51.489  1.00  0.00     0.161 HD
ENDROOT
BRANCH   1  18
HETATM   18  N1  UNL     1      21.832   3.049  49.833  1.00  0.00    -0.351 N 
HETATM   19  C2  UNL     1      20.466   3.156  50.366  1.00  0.00     0.142 C 
HETATM   20  C3  UNL     1      20.159   1.719  50.606  1.00  0.00    -0.002 C 
HETATM   21  C4  UNL     1      20.763   1.052  49.612  1.00  0.00    -0.009 C 
HETATM   22  C5  UNL     1      21.431   2.123  48.783  1.00  0.00     0.152 C 
BRANCH  19  23
HETATM   23  C1  UNL     1      20.380   3.982  51.577  1.00  0.00     0.420 C 
HETATM   24  O1  UNL     1      19.885   3.154  52.332  1.00  0.00    -0.428 OA
ENDBRANCH  19  23
ENDBRANCH   1  18
TORSDOF 2
ENDMDL
MODEL 8
REMARK VINA RESULT:      -7.6      4.419      6.396
REMARK  2 active torsions:
REMARK  status: ('A' for Active; 'I' for Inactive)
REMARK    1  A    between atoms: C1_2  and  C2_3 
REMARK    2  A    between atoms: N1_7  and  C6_8 
ROOT
HETATM    1  C6  UNL     1      23.616   3.045  49.611  1.00  0.00     0.140 C 
HETATM    2  N2  UNL     1      23.157   3.407  48.437  1.00  0.00    -0.224 NA
HETATM    3  C7  UNL     1      22.050   2.963  47.629  1.00  0.00     0.230 C 
HETATM    4  N3  UNL     1      20.909   2.398  47.826  1.00  0.00    -0.263 NA
HETATM    5  C8  UNL     1      20.179   1.930  48.984  1.00  0.00     0.272 C 
HETATM    6  N4  UNL     1      20.916   1.046  49.832  1.00  0.00    -0.370 N 
HETATM    7  C9  UNL     1      22.097   1.259  50.627  1.00  0.00     0.054 A 
HETATM    8  C10 UNL     1      23.165   2.036  50.558  1.00  0.00     0.038 A 
HETATM    9  C11 UNL     1      24.058   1.810  51.681  1.00  0.00     0.026 A 
HETATM   10  C12 UNL     1      23.522   0.876  52.449  1.00  0.00    -0.038 A 
HETATM   11  C13 UNL     1      24.020   0.275  53.713  1.00  0.00     0.109 A 
HETATM   12  C14 UNL     1      23.078  -0.741  54.220  1.00  0.00     0.098 A 
HETATM   13  F1  UNL     1      23.379  -1.382  55.359  1.00  0.00    -0.210 F 
HETATM   14  C15 UNL     1      21.942  -1.079  53.635  1.00  0.00     0.039 A 
HETATM   15  C16 UNL     1      21.490  -0.465  52.392  1.00  0.00     0.017 A 
HETATM   16  C17 UNL     1      22.258   0.457  51.854  1.00  0.00    -0.002 A 
HETATM   17  H10 UNL     1      20.616   0.034  49.962  1.00  0.00     0.161 HD
ENDROOT
BRANCH   1  18
HETATM   18  N1  UNL     1      24.775   3.818  49.986  1.00  0.00    -0.351 N 
HETATM   19  C2  UNL     1      25.270   5.068  50.579  1.00  0.00     0.142 C 
HETATM   20  C3  UNL     1      26.161   5.548  49.488  1.00  0.00    -0.002 C 
HETATM   21  C4  UNL     1      26.706   4.444  48.957  1.00  0.00    -0.009 C 
HETATM   22  C5  UNL     1      26.118   3.306  49.757  1.00  0.00     0.152 C 
BRANCH  19  23
HETATM   23  C1  UNL     1      24.198   6.013  50.917  1.00  0.00     0.420 C 
HETATM   24  O1  UNL     1      24.843   7.054  50.860  1.00  0.00    -0.428 OA
ENDBRANCH  19  23
ENDBRANCH   1  18
TORSDOF 2
ENDMDL
MODEL 9
REMARK VINA RESULT:      -7.6      1.872      2.310
REMARK  2 active torsions:
REMARK  status: ('A' for Active; 'I' for Inactive)
REMARK    1  A    between atoms: C1_2  and  C2_3 
REMARK    2  A    between atoms: N1_7  and  C6_8 
ROOT
HETATM    1  C6  UNL     1      24.084  -0.287  53.862  1.00  0.00     0.140 C 
HETATM    2  N2  UNL     1      23.717  -1.255  54.667  1.00  0.00    -0.224 NA
HETATM    3  C7  UNL     1      22.450  -1.645  55.231  1.00  0.00     0.230 C 
HETATM    4  N3  UNL     1      21.205  -1.520  54.923  1.00  0.00    -0.263 NA
HETATM    5  C8  UNL     1      20.471  -0.913  53.834  1.00  0.00     0.272 C 
HETATM    6  N4  UNL     1      20.812   0.451  53.576  1.00  0.00    -0.370 N 
HETATM    7  C9  UNL     1      22.038   1.053  53.123  1.00  0.00     0.054 A 
HETATM    8  C10 UNL     1      23.329   0.780  53.224  1.00  0.00     0.038 A 
HETATM    9  C11 UNL     1      24.135   1.777  52.542  1.00  0.00     0.026 A 
HETATM   10  C12 UNL     1      23.319   2.675  52.015  1.00  0.00    -0.038 A 
HETATM   11  C13 UNL     1      23.622   3.893  51.221  1.00  0.00     0.109 A 
HETATM   12  C14 UNL     1      22.381   4.596  50.842  1.00  0.00     0.098 A 
HETATM   13  F1  UNL     1      22.478   5.722  50.119  1.00  0.00    -0.210 F 
HETATM   14  C15 UNL     1      21.160   4.204  51.162  1.00  0.00     0.039 A 
HETATM   15  C16 UNL     1      20.907   3.000  51.945  1.00  0.00     0.017 A 
HETATM   16  C17 UNL     1      21.947   2.297  52.335  1.00  0.00    -0.002 A 
HETATM   17  H10 UNL     1      20.101   1.230  53.716  1.00  0.00     0.161 HD
ENDROOT
BRANCH   1  18
HETATM   18  N1  UNL     1      25.500  -0.333  53.592  1.00  0.00    -0.351 N 
HETATM   19  C2  UNL     1      26.822   0.230  53.902  1.00  0.00     0.142 C 
HETATM   20  C3  UNL     1      27.276   0.615  52.537  1.00  0.00    -0.002 C 
HETATM   21  C4  UNL     1      26.792  -0.330  51.718  1.00  0.00    -0.009 C 
HETATM   22  C5  UNL     1      26.045  -1.277  52.626  1.00  0.00     0.152 C 
BRANCH  19  23
HETATM   23  C1  UNL     1      26.765   1.359  54.839  1.00  0.00     0.420 C 
HETATM   24  O1  UNL     1      27.446   2.159  54.208  1.00  0.00    -0.428 OA
ENDBRANCH  19  23
ENDBRANCH   1  18
TORSDOF 2
ENDMDL
