MODEL 1
REMARK VINA RESULT:      -8.4      0.000      0.000
REMARK  7 active torsions:
REMARK  status: ('A' for Active; 'I' for Inactive)
REMARK    1  A    between atoms: N1_1  and  C1_2 
REMARK    2  A    between atoms: C2_3  and  N2_4 
REMARK    3  A    between atoms: N4_9  and  C6_10 
REMARK    4  A    between atoms: C6_10  and  C7_11 
REMARK    5  A    between atoms: C7_11  and  O1_12 
REMARK    6  A    between atoms: C12_19  and  C13_20 
REMARK    7  A    between atoms: C14_21  and  N6_22 
ROOT
HETATM    1  C1  UNL     1      24.422   3.569  52.262  1.00  0.00     0.135 C 
HETATM    2  C2  UNL     1      23.612   4.135  51.222  1.00  0.00     0.133 C 
HETATM    3  N3  UNL     1      22.852   4.788  50.457  1.00  0.00    -0.231 NA
HETATM    4  C3  UNL     1      22.164   5.964  50.761  1.00  0.00     0.101 A 
HETATM    5  C4  UNL     1      21.425   7.055  50.970  1.00  0.00     0.041 A 
HETATM    6  C5  UNL     1      20.942   6.207  50.056  1.00  0.00     0.096 A 
HETATM    7  N4  UNL     1      20.313   5.370  49.054  1.00  0.00    -0.265 N 
HETATM    8  N5  UNL     1      20.542   4.047  49.362  1.00  0.00    -0.185 NA
HETATM    9  C8  UNL     1      20.748   3.161  48.469  1.00  0.00     0.137 C 
HETATM   10  C9  UNL     1      21.009   1.732  48.582  1.00  0.00     0.029 C 
HETATM   11  C10 UNL     1      21.167   0.661  49.335  1.00  0.00     0.186 A 
HETATM   12  C11 UNL     1      21.083   0.665  50.823  1.00  0.00     0.136 A 
HETATM   13  O2  UNL     1      20.872   1.745  50.229  1.00  0.00    -0.361 OA
HETATM   14  C12 UNL     1      20.997   0.683  52.268  1.00  0.00     0.074 C 
HETATM   15  C15 UNL     1      22.292   0.996  52.919  1.00  0.00     0.003 C 
HETATM   16  C16 UNL     1      23.479   0.953  52.364  1.00  0.00     0.096 C 
HETATM   17  N7  UNL     1      24.866   1.140  52.535  1.00  0.00    -0.303 N 
HETATM   18  C17 UNL     1      25.215   2.415  52.487  1.00  0.00     0.167 A 
HETATM   19  N8  UNL     1      26.527   2.482  52.682  1.00  0.00    -0.226 NA
HETATM   20  C18 UNL     1      27.007   1.211  52.856  1.00  0.00     0.086 A 
HETATM   21  C19 UNL     1      28.193   0.579  53.083  1.00  0.00     0.034 A 
HETATM   22  C20 UNL     1      28.262  -0.813  53.199  1.00  0.00     0.002 A 
HETATM   23  C21 UNL     1      27.099  -1.587  53.082  1.00  0.00     0.002 A 
HETATM   24  C22 UNL     1      25.851  -1.004  52.850  1.00  0.00     0.032 A 
HETATM   25  C23 UNL     1      25.928   0.363  52.758  1.00  0.00     0.069 A 
ENDROOT
BRANCH  14  26
HETATM   26  C13 UNL     1      20.256  -0.441  52.886  1.00  0.00     0.001 C 
HETATM   27  C14 UNL     1      19.002  -0.735  53.232  1.00  0.00     0.077 C 
BRANCH  27  28
HETATM   28  N6  UNL     1      18.383  -1.868  53.832  1.00  0.00    -0.408 N 
HETATM   29  H15 UNL     1      18.972  -2.240  54.621  1.00  0.00     0.155 HD
HETATM   30  H16 UNL     1      17.474  -2.151  53.421  1.00  0.00     0.155 HD
ENDBRANCH  27  28
ENDBRANCH  14  26
BRANCH   1  31
HETATM   31  N1  UNL     1      24.168   4.555  53.020  1.00  0.00    -0.294 NA
HETATM   32  H1  UNL     1      23.314   5.105  53.065  1.00  0.00     0.187 HD
ENDBRANCH   1  31
BRANCH   7  33
HETATM   33  C6  UNL     1      19.619   6.109  48.006  1.00  0.00     0.177 C 
BRANCH  33  34
HETATM   34  C7  UNL     1      18.124   5.850  48.045  1.00  0.00     0.185 C 
BRANCH  34  35
HETATM   35  O1  UNL     1      17.721   5.450  49.319  1.00  0.00    -0.399 OA
HETATM   36  H8  UNL     1      17.617   6.196  49.956  1.00  0.00     0.209 HD
ENDBRANCH  34  35
ENDBRANCH  33  34
ENDBRANCH   7  33
BRANCH   2  37
HETATM   37  N2  UNL     1      23.810   3.135  50.241  1.00  0.00    -0.285 NA
HETATM   38  H2  UNL     1      23.346   2.902  49.317  1.00  0.00     0.125 HD
HETATM   39  H3  UNL     1      23.352   2.896  49.318  1.00  0.00     0.125 HD
ENDBRANCH   2  37
TORSDOF 7
ENDMDL
MODEL 2
REMARK VINA RESULT:      -8.2      2.755      5.353
REMARK  7 active torsions:
REMARK  status: ('A' for Active; 'I' for Inactive)
REMARK    1  A    between atoms: N1_1  and  C1_2 
REMARK    2  A    between atoms: C2_3  and  N2_4 
REMARK    3  A    between atoms: N4_9  and  C6_10 
REMARK    4  A    between atoms: C6_10  and  C7_11 
REMARK    5  A    between atoms: C7_11  and  O1_12 
REMARK    6  A    between atoms: C12_19  and  C13_20 
REMARK    7  A    between atoms: C14_21  and  N6_22 
ROOT
HETATM    1  C1  UNL     1      23.212   2.067  51.097  1.00  0.00     0.135 C 
HETATM    2  C2  UNL     1      22.331   3.180  50.895  1.00  0.00     0.133 C 
HETATM    3  N3  UNL     1      21.469   4.037  50.556  1.00  0.00    -0.231 NA
HETATM    4  C3  UNL     1      20.523   3.917  49.537  1.00  0.00     0.101 A 
HETATM    5  C4  UNL     1      19.621   3.922  48.554  1.00  0.00     0.041 A 
HETATM    6  C5  UNL     1      20.083   5.126  48.908  1.00  0.00     0.096 A 
HETATM    7  N4  UNL     1      20.508   6.481  49.194  1.00  0.00    -0.265 N 
HETATM    8  N5  UNL     1      21.839   6.472  49.548  1.00  0.00    -0.185 NA
HETATM    9  C8  UNL     1      22.316   7.246  50.443  1.00  0.00     0.137 C 
HETATM   10  C9  UNL     1      23.670   7.390  50.958  1.00  0.00     0.029 C 
HETATM   11  C10 UNL     1      24.938   7.028  50.941  1.00  0.00     0.186 A 
HETATM   12  C11 UNL     1      25.497   5.981  50.039  1.00  0.00     0.136 A 
HETATM   13  O2  UNL     1      24.282   6.255  49.924  1.00  0.00    -0.361 OA
HETATM   14  C12 UNL     1      26.026   4.962  49.157  1.00  0.00     0.074 C 
HETATM   15  C15 UNL     1      25.928   3.597  49.728  1.00  0.00     0.003 C 
HETATM   16  C16 UNL     1      25.711   3.285  50.983  1.00  0.00     0.096 C 
HETATM   17  N7  UNL     1      25.546   2.252  51.928  1.00  0.00    -0.303 N 
HETATM   18  C17 UNL     1      24.333   1.725  51.895  1.00  0.00     0.167 A 
HETATM   19  N8  UNL     1      24.291   0.754  52.800  1.00  0.00    -0.226 NA
HETATM   20  C18 UNL     1      25.514   0.675  53.412  1.00  0.00     0.086 A 
HETATM   21  C19 UNL     1      26.136  -0.052  54.382  1.00  0.00     0.034 A 
HETATM   22  C20 UNL     1      27.466   0.198  54.735  1.00  0.00     0.002 A 
HETATM   23  C21 UNL     1      28.186   1.213  54.090  1.00  0.00     0.002 A 
HETATM   24  C22 UNL     1      27.609   1.996  53.087  1.00  0.00     0.032 A 
HETATM   25  C23 UNL     1      26.307   1.644  52.841  1.00  0.00     0.069 A 
ENDROOT
BRANCH  14  26
HETATM   26  C13 UNL     1      27.329   5.269  48.523  1.00  0.00     0.001 C 
HETATM   27  C14 UNL     1      28.033   6.344  48.169  1.00  0.00     0.077 C 
BRANCH  27  28
HETATM   28  N6  UNL     1      29.303   6.534  47.552  1.00  0.00    -0.408 N 
HETATM   29  H15 UNL     1      30.016   5.873  47.954  1.00  0.00     0.155 HD
HETATM   30  H16 UNL     1      29.339   7.269  46.821  1.00  0.00     0.155 HD
ENDBRANCH  27  28
ENDBRANCH  14  26
BRANCH   1  31
HETATM   31  N1  UNL     1      22.594   1.396  50.214  1.00  0.00    -0.294 NA
HETATM   32  H1  UNL     1      22.986   0.902  49.417  1.00  0.00     0.187 HD
ENDBRANCH   1  31
BRANCH   7  33
HETATM   33  C6  UNL     1      19.458   7.481  49.044  1.00  0.00     0.177 C 
BRANCH  33  34
HETATM   34  C7  UNL     1      19.584   8.219  47.723  1.00  0.00     0.185 C 
BRANCH  34  35
HETATM   35  O1  UNL     1      20.903   8.209  47.271  1.00  0.00    -0.399 OA
HETATM   36  H8  UNL     1      21.219   9.084  46.942  1.00  0.00     0.209 HD
ENDBRANCH  34  35
ENDBRANCH  33  34
ENDBRANCH   7  33
BRANCH   2  37
HETATM   37  N2  UNL     1      22.880   4.055  51.862  1.00  0.00    -0.285 NA
HETATM   38  H2  UNL     1      23.623   3.959  52.611  1.00  0.00     0.125 HD
HETATM   39  H3  UNL     1      23.621   3.967  52.612  1.00  0.00     0.125 HD
ENDBRANCH   2  37
TORSDOF 7
ENDMDL
MODEL 3
REMARK VINA RESULT:      -8.0      3.073      7.249
REMARK  7 active torsions:
REMARK  status: ('A' for Active; 'I' for Inactive)
REMARK    1  A    between atoms: N1_1  and  C1_2 
REMARK    2  A    between atoms: C2_3  and  N2_4 
REMARK    3  A    between atoms: N4_9  and  C6_10 
REMARK    4  A    between atoms: C6_10  and  C7_11 
REMARK    5  A    between atoms: C7_11  and  O1_12 
REMARK    6  A    between atoms: C12_19  and  C13_20 
REMARK    7  A    between atoms: C14_21  and  N6_22 
ROOT
HETATM    1  C1  UNL     1      26.058   3.934  49.804  1.00  0.00     0.135 C 
HETATM    2  C2  UNL     1      25.753   3.106  50.934  1.00  0.00     0.133 C 
HETATM    3  N3  UNL     1      25.626   2.234  51.836  1.00  0.00    -0.231 NA
HETATM    4  C3  UNL     1      26.269   0.997  51.905  1.00  0.00     0.101 A 
HETATM    5  C4  UNL     1      26.789  -0.225  52.034  1.00  0.00     0.041 A 
HETATM    6  C5  UNL     1      25.587  -0.056  52.595  1.00  0.00     0.096 A 
HETATM    7  N4  UNL     1      24.289  -0.004  53.235  1.00  0.00    -0.265 N 
HETATM    8  N5  UNL     1      23.465   0.837  52.520  1.00  0.00    -0.185 NA
HETATM    9  C8  UNL     1      22.612   1.602  53.081  1.00  0.00     0.137 C 
HETATM   10  C9  UNL     1      21.664   2.553  52.516  1.00  0.00     0.029 C 
HETATM   11  C10 UNL     1      21.134   3.140  51.460  1.00  0.00     0.186 A 
HETATM   12  C11 UNL     1      21.538   2.854  50.054  1.00  0.00     0.136 A 
HETATM   13  O2  UNL     1      22.095   2.196  50.960  1.00  0.00    -0.361 OA
HETATM   14  C12 UNL     1      21.940   2.567  48.694  1.00  0.00     0.074 C 
HETATM   15  C15 UNL     1      23.081   3.398  48.241  1.00  0.00     0.003 C 
HETATM   16  C16 UNL     1      23.523   4.497  48.804  1.00  0.00     0.096 C 
HETATM   17  N7  UNL     1      24.471   5.540  48.767  1.00  0.00    -0.303 N 
HETATM   18  C17 UNL     1      25.648   5.172  49.247  1.00  0.00     0.167 A 
HETATM   19  N8  UNL     1      26.468   6.211  49.145  1.00  0.00    -0.226 NA
HETATM   20  C18 UNL     1      25.781   7.256  48.585  1.00  0.00     0.086 A 
HETATM   21  C19 UNL     1      25.993   8.550  48.216  1.00  0.00     0.034 A 
HETATM   22  C20 UNL     1      24.972   9.321  47.652  1.00  0.00     0.002 A 
HETATM   23  C21 UNL     1      23.700   8.766  47.454  1.00  0.00     0.002 A 
HETATM   24  C22 UNL     1      23.413   7.445  47.809  1.00  0.00     0.032 A 
HETATM   25  C23 UNL     1      24.502   6.808  48.349  1.00  0.00     0.069 A 
ENDROOT
BRANCH  14  26
HETATM   26  C13 UNL     1      20.841   2.445  47.707  1.00  0.00     0.001 C 
HETATM   27  C14 UNL     1      19.676   3.035  47.439  1.00  0.00     0.077 C 
BRANCH  27  28
HETATM   28  N6  UNL     1      18.675   2.838  46.446  1.00  0.00    -0.408 N 
HETATM   29  H15 UNL     1      17.713   2.940  46.860  1.00  0.00     0.155 HD
HETATM   30  H16 UNL     1      19.026   2.630  45.492  1.00  0.00     0.155 HD
ENDBRANCH  27  28
ENDBRANCH  14  26
BRANCH   1  31
HETATM   31  N1  UNL     1      26.923   3.096  49.401  1.00  0.00    -0.294 NA
HETATM   32  H1  UNL     1      27.925   3.232  49.302  1.00  0.00     0.187 HD
ENDBRANCH   1  31
BRANCH   7  33
HETATM   33  C6  UNL     1      24.180  -0.824  54.436  1.00  0.00     0.177 C 
BRANCH  33  34
HETATM   34  C7  UNL     1      25.398  -0.661  55.327  1.00  0.00     0.185 C 
BRANCH  34  35
HETATM   35  O1  UNL     1      25.212  -1.311  56.547  1.00  0.00    -0.399 OA
HETATM   36  H8  UNL     1      25.045  -0.699  57.304  1.00  0.00     0.209 HD
ENDBRANCH  34  35
ENDBRANCH  33  34
ENDBRANCH   7  33
BRANCH   2  37
HETATM   37  N2  UNL     1      24.779   3.935  51.540  1.00  0.00    -0.285 NA
HETATM   38  H2  UNL     1      24.379   4.890  51.319  1.00  0.00     0.125 HD
HETATM   39  H3  UNL     1      24.374   4.888  51.326  1.00  0.00     0.125 HD
ENDBRANCH   2  37
TORSDOF 7
ENDMDL
MODEL 4
REMARK VINA RESULT:      -7.6      3.104      7.113
REMARK  7 active torsions:
REMARK  status: ('A' for Active; 'I' for Inactive)
REMARK    1  A    between atoms: N1_1  and  C1_2 
REMARK    2  A    between atoms: C2_3  and  N2_4 
REMARK    3  A    between atoms: N4_9  and  C6_10 
REMARK    4  A    between atoms: C6_10  and  C7_11 
REMARK    5  A    between atoms: C7_11  and  O1_12 
REMARK    6  A    between atoms: C12_19  and  C13_20 
REMARK    7  A    between atoms: C14_21  and  N6_22 
ROOT
HETATM    1  C1  UNL     1      25.001   4.919  50.721  1.00  0.00     0.135 C 
HETATM    2  C2  UNL     1      24.198   4.126  51.604  1.00  0.00     0.133 C 
HETATM    3  N3  UNL     1      23.649   3.277  52.358  1.00  0.00    -0.231 NA
HETATM    4  C3  UNL     1      24.132   2.009  52.685  1.00  0.00     0.101 A 
HETATM    5  C4  UNL     1      24.479   0.763  53.013  1.00  0.00     0.041 A 
HETATM    6  C5  UNL     1      23.164   1.004  53.008  1.00  0.00     0.096 A 
HETATM    7  N4  UNL     1      21.722   1.135  53.033  1.00  0.00    -0.265 N 
HETATM    8  N5  UNL     1      21.331   2.008  52.041  1.00  0.00    -0.185 NA
HETATM    9  C8  UNL     1      20.363   2.825  52.189  1.00  0.00     0.137 C 
HETATM   10  C9  UNL     1      19.801   3.816  51.281  1.00  0.00     0.029 C 
HETATM   11  C10 UNL     1      19.806   4.413  50.106  1.00  0.00     0.186 A 
HETATM   12  C11 UNL     1      20.756   4.085  49.005  1.00  0.00     0.136 A 
HETATM   13  O2  UNL     1      20.835   3.413  50.056  1.00  0.00    -0.361 OA
HETATM   14  C12 UNL     1      21.685   3.755  47.944  1.00  0.00     0.074 C 
HETATM   15  C15 UNL     1      22.953   4.517  48.030  1.00  0.00     0.003 C 
HETATM   16  C16 UNL     1      23.172   5.600  48.737  1.00  0.00     0.096 C 
HETATM   17  N7  UNL     1      24.100   6.590  49.118  1.00  0.00    -0.303 N 
HETATM   18  C17 UNL     1      24.936   6.168  50.052  1.00  0.00     0.167 A 
HETATM   19  N8  UNL     1      25.777   7.160  50.319  1.00  0.00    -0.226 NA
HETATM   20  C18 UNL     1      25.454   8.231  49.527  1.00  0.00     0.086 A 
HETATM   21  C19 UNL     1      25.874   9.506  49.296  1.00  0.00     0.034 A 
HETATM   22  C20 UNL     1      25.236  10.321  48.356  1.00  0.00     0.002 A 
HETATM   23  C21 UNL     1      24.142   9.831  47.629  1.00  0.00     0.002 A 
HETATM   24  C22 UNL     1      23.659   8.533  47.816  1.00  0.00     0.032 A 
HETATM   25  C23 UNL     1      24.376   7.847  48.763  1.00  0.00     0.069 A 
ENDROOT
BRANCH  14  26
HETATM   26  C13 UNL     1      21.108   3.676  46.582  1.00  0.00     0.001 C 
HETATM   27  C14 UNL     1      21.479   3.940  45.328  1.00  0.00     0.077 C 
BRANCH  27  28
HETATM   28  N6  UNL     1      20.835   3.827  44.063  1.00  0.00    -0.408 N 
HETATM   29  H15 UNL     1      21.543   3.704  43.294  1.00  0.00     0.155 HD
HETATM   30  H16 UNL     1      19.800   3.878  44.083  1.00  0.00     0.155 HD
ENDBRANCH  27  28
ENDBRANCH  14  26
BRANCH   1  31
HETATM   31  N1  UNL     1      25.908   4.030  50.719  1.00  0.00    -0.294 NA
HETATM   32  H1  UNL     1      25.955   3.187  50.153  1.00  0.00     0.187 HD
ENDBRANCH   1  31
BRANCH   7  33
HETATM   33  C6  UNL     1      21.066   0.341  54.064  1.00  0.00     0.177 C 
BRANCH  33  34
HETATM   34  C7  UNL     1      21.420  -1.129  53.938  1.00  0.00     0.185 C 
BRANCH  34  35
HETATM   35  O1  UNL     1      20.842  -1.871  54.968  1.00  0.00    -0.399 OA
HETATM   36  H8  UNL     1      19.961  -1.534  55.256  1.00  0.00     0.209 HD
ENDBRANCH  34  35
ENDBRANCH  33  34
ENDBRANCH   7  33
BRANCH   2  37
HETATM   37  N2  UNL     1      23.105   5.015  51.742  1.00  0.00    -0.285 NA
HETATM   38  H2  UNL     1      22.269   5.065  52.390  1.00  0.00     0.125 HD
HETATM   39  H3  UNL     1      22.267   5.072  52.385  1.00  0.00     0.125 HD
ENDBRANCH   2  37
TORSDOF 7
ENDMDL
MODEL 5
REMARK VINA RESULT:      -7.3      3.304      8.569
REMARK  7 active torsions:
REMARK  status: ('A' for Active; 'I' for Inactive)
REMARK    1  A    between atoms: N1_1  and  C1_2 
REMARK    2  A    between atoms: C2_3  and  N2_4 
REMARK    3  A    between atoms: N4_9  and  C6_10 
REMARK    4  A    between atoms: C6_10  and  C7_11 
REMARK    5  A    between atoms: C7_11  and  O1_12 
REMARK    6  A    between atoms: C12_19  and  C13_20 
REMARK    7  A    between atoms: C14_21  and  N6_22 
ROOT
HETATM    1  C1  UNL     1      21.566   3.926  48.917  1.00  0.00     0.135 C 
HETATM    2  C2  UNL     1      22.365   2.968  49.624  1.00  0.00     0.133 C 
HETATM    3  N3  UNL     1      22.916   2.145  50.404  1.00  0.00    -0.231 NA
HETATM    4  C3  UNL     1      22.472   1.763  51.671  1.00  0.00     0.101 A 
HETATM    5  C4  UNL     1      22.162   1.376  52.910  1.00  0.00     0.041 A 
HETATM    6  C5  UNL     1      23.466   1.346  52.614  1.00  0.00     0.096 A 
HETATM    7  N4  UNL     1      24.900   1.275  52.421  1.00  0.00    -0.265 N 
HETATM    8  N5  UNL     1      25.295   2.301  51.590  1.00  0.00    -0.185 NA
HETATM    9  C8  UNL     1      26.222   2.164  50.725  1.00  0.00     0.137 C 
HETATM   10  C9  UNL     1      26.779   3.107  49.765  1.00  0.00     0.029 C 
HETATM   11  C10 UNL     1      26.797   4.314  49.235  1.00  0.00     0.186 A 
HETATM   12  C11 UNL     1      25.906   5.429  49.666  1.00  0.00     0.136 A 
HETATM   13  O2  UNL     1      25.812   4.344  50.280  1.00  0.00    -0.361 OA
HETATM   14  C12 UNL     1      25.035   6.503  50.094  1.00  0.00     0.074 C 
HETATM   15  C15 UNL     1      23.734   6.509  49.383  1.00  0.00     0.003 C 
HETATM   16  C16 UNL     1      23.444   5.875  48.272  1.00  0.00     0.096 C 
HETATM   17  N7  UNL     1      22.462   5.589  47.303  1.00  0.00    -0.303 N 
HETATM   18  C17 UNL     1      21.607   4.663  47.706  1.00  0.00     0.167 A 
HETATM   19  N8  UNL     1      20.717   4.486  46.737  1.00  0.00    -0.226 NA
HETATM   20  C18 UNL     1      21.029   5.327  45.700  1.00  0.00     0.086 A 
HETATM   21  C19 UNL     1      20.567   5.648  44.459  1.00  0.00     0.034 A 
HETATM   22  C20 UNL     1      21.209   6.609  43.673  1.00  0.00     0.002 A 
HETATM   23  C21 UNL     1      22.351   7.265  44.156  1.00  0.00     0.002 A 
HETATM   24  C22 UNL     1      22.877   6.984  45.419  1.00  0.00     0.032 A 
HETATM   25  C23 UNL     1      22.151   6.026  46.080  1.00  0.00     0.069 A 
ENDROOT
BRANCH  14  26
HETATM   26  C13 UNL     1      25.668   7.836  50.226  1.00  0.00     0.001 C 
HETATM   27  C14 UNL     1      26.864   8.392  50.029  1.00  0.00     0.077 C 
BRANCH  27  28
HETATM   28  N6  UNL     1      27.378   9.710  50.190  1.00  0.00    -0.408 N 
HETATM   29  H15 UNL     1      27.472   9.953  51.209  1.00  0.00     0.155 HD
HETATM   30  H16 UNL     1      27.579  10.222  49.310  1.00  0.00     0.155 HD
ENDBRANCH  27  28
ENDBRANCH  14  26
BRANCH   1  31
HETATM   31  N1  UNL     1      20.697   3.909  49.842  1.00  0.00    -0.294 NA
HETATM   32  H1  UNL     1      20.574   3.213  50.572  1.00  0.00     0.187 HD
ENDBRANCH   1  31
BRANCH   7  33
HETATM   33  C6  UNL     1      25.545   0.175  53.126  1.00  0.00     0.177 C 
BRANCH  33  34
HETATM   34  C7  UNL     1      26.193   0.650  54.414  1.00  0.00     0.185 C 
BRANCH  34  35
HETATM   35  O1  UNL     1      26.587   1.983  54.311  1.00  0.00    -0.399 OA
HETATM   36  H8  UNL     1      27.105   2.185  53.496  1.00  0.00     0.209 HD
ENDBRANCH  34  35
ENDBRANCH  33  34
ENDBRANCH   7  33
BRANCH   2  37
HETATM   37  N2  UNL     1      23.414   2.841  48.683  1.00  0.00    -0.285 NA
HETATM   38  H2  UNL     1      23.630   2.158  47.902  1.00  0.00     0.125 HD
HETATM   39  H3  UNL     1      23.637   2.163  47.901  1.00  0.00     0.125 HD
ENDBRANCH   2  37
TORSDOF 7
ENDMDL
MODEL 6
REMARK VINA RESULT:      -7.2      2.701      3.384
REMARK  7 active torsions:
REMARK  status: ('A' for Active; 'I' for Inactive)
REMARK    1  A    between atoms: N1_1  and  C1_2 
REMARK    2  A    between atoms: C2_3  and  N2_4 
REMARK    3  A    between atoms: N4_9  and  C6_10 
REMARK    4  A    between atoms: C6_10  and  C7_11 
REMARK    5  A    between atoms: C7_11  and  O1_12 
REMARK    6  A    between atoms: C12_19  and  C13_20 
REMARK    7  A    between atoms: C14_21  and  N6_22 
ROOT
HETATM    1  C1  UNL     1      24.276   4.024  51.104  1.00  0.00     0.135 C 
HETATM    2  C2  UNL     1      24.085   4.440  49.745  1.00  0.00     0.133 C 
HETATM    3  N3  UNL     1      23.970   5.006  48.624  1.00  0.00    -0.231 NA
HETATM    4  C3  UNL     1      24.172   6.358  48.342  1.00  0.00     0.101 A 
HETATM    5  C4  UNL     1      24.286   7.638  47.983  1.00  0.00     0.041 A 
HETATM    6  C5  UNL     1      23.436   6.915  47.247  1.00  0.00     0.096 A 
HETATM    7  N4  UNL     1      22.486   6.244  46.383  1.00  0.00    -0.265 N 
HETATM    8  N5  UNL     1      21.797   5.302  47.114  1.00  0.00    -0.185 NA
HETATM    9  C8  UNL     1      21.449   4.176  46.627  1.00  0.00     0.137 C 
HETATM   10  C9  UNL     1      20.730   3.058  47.223  1.00  0.00     0.029 C 
HETATM   11  C10 UNL     1      20.118   2.523  48.261  1.00  0.00     0.186 A 
HETATM   12  C11 UNL     1      19.956   3.203  49.578  1.00  0.00     0.136 A 
HETATM   13  O2  UNL     1      20.524   3.841  48.664  1.00  0.00    -0.361 OA
HETATM   14  C12 UNL     1      19.806   3.875  50.851  1.00  0.00     0.074 C 
HETATM   15  C15 UNL     1      20.956   3.652  51.760  1.00  0.00     0.003 C 
HETATM   16  C16 UNL     1      21.876   2.725  51.649  1.00  0.00     0.096 C 
HETATM   17  N7  UNL     1      23.047   2.158  52.190  1.00  0.00    -0.303 N 
HETATM   18  C17 UNL     1      24.132   2.854  51.891  1.00  0.00     0.167 A 
HETATM   19  N8  UNL     1      25.168   2.253  52.464  1.00  0.00    -0.226 NA
HETATM   20  C18 UNL     1      24.713   1.150  53.140  1.00  0.00     0.086 A 
HETATM   21  C19 UNL     1      25.204   0.134  53.904  1.00  0.00     0.034 A 
HETATM   22  C20 UNL     1      24.362  -0.850  54.430  1.00  0.00     0.002 A 
HETATM   23  C21 UNL     1      22.983  -0.804  54.178  1.00  0.00     0.002 A 
HETATM   24  C22 UNL     1      22.414   0.210  53.403  1.00  0.00     0.032 A 
HETATM   25  C23 UNL     1      23.351   1.105  52.953  1.00  0.00     0.069 A 
ENDROOT
BRANCH  14  26
HETATM   26  C13 UNL     1      18.479   3.747  51.497  1.00  0.00     0.001 C 
HETATM   27  C14 UNL     1      17.230   4.168  51.296  1.00  0.00     0.077 C 
BRANCH  27  28
HETATM   28  N6  UNL     1      16.002   3.984  51.992  1.00  0.00    -0.408 N 
HETATM   29  H15 UNL     1      16.007   3.077  52.524  1.00  0.00     0.155 HD
HETATM   30  H16 UNL     1      15.305   4.744  51.878  1.00  0.00     0.155 HD
ENDBRANCH  27  28
ENDBRANCH  14  26
BRANCH   1  31
HETATM   31  N1  UNL     1      24.659   5.191  51.425  1.00  0.00    -0.294 NA
HETATM   32  H1  UNL     1      25.509   5.670  51.141  1.00  0.00     0.187 HD
ENDBRANCH   1  31
BRANCH   7  33
HETATM   33  C6  UNL     1      22.496   6.715  45.004  1.00  0.00     0.177 C 
BRANCH  33  34
HETATM   34  C7  UNL     1      21.133   7.240  44.590  1.00  0.00     0.185 C 
BRANCH  34  35
HETATM   35  O1  UNL     1      20.355   7.540  45.708  1.00  0.00    -0.399 OA
HETATM   36  H8  UNL     1      20.005   8.462  45.714  1.00  0.00     0.209 HD
ENDBRANCH  34  35
ENDBRANCH  33  34
ENDBRANCH   7  33
BRANCH   2  37
HETATM   37  N2  UNL     1      23.663   3.201  49.208  1.00  0.00    -0.285 NA
HETATM   38  H2  UNL     1      24.165   2.348  48.831  1.00  0.00     0.125 HD
HETATM   39  H3  UNL     1      24.158   2.345  48.830  1.00  0.00     0.125 HD
ENDBRANCH   2  37
TORSDOF 7
ENDMDL
MODEL 7
REMARK VINA RESULT:      -7.2      4.446      7.419
REMARK  7 active torsions:
REMARK  status: ('A' for Active; 'I' for Inactive)
REMARK    1  A    between atoms: N1_1  and  C1_2 
REMARK    2  A    between atoms: C2_3  and  N2_4 
REMARK    3  A    between atoms: N4_9  and  C6_10 
REMARK    4  A    between atoms: C6_10  and  C7_11 
REMARK    5  A    between atoms: C7_11  and  O1_12 
REMARK    6  A    between atoms: C12_19  and  C13_20 
REMARK    7  A    between atoms: C14_21  and  N6_22 
ROOT
HETATM    1  C1  UNL     1      23.862   6.052  51.381  1.00  0.00     0.135 C 
HETATM    2  C2  UNL     1      24.722   6.548  50.347  1.00  0.00     0.133 C 
HETATM    3  N3  UNL     1      25.559   7.115  49.593  1.00  0.00    -0.231 NA
HETATM    4  C3  UNL     1      26.463   8.118  49.948  1.00  0.00     0.101 A 
HETATM    5  C4  UNL     1      27.322   9.114  50.174  1.00  0.00     0.041 A 
HETATM    6  C5  UNL     1      26.863   9.032  48.921  1.00  0.00     0.096 A 
HETATM    7  N4  UNL     1      26.436   9.054  47.536  1.00  0.00    -0.265 N 
HETATM    8  N5  UNL     1      25.121   8.650  47.462  1.00  0.00    -0.185 NA
HETATM    9  C8  UNL     1      24.674   7.942  46.501  1.00  0.00     0.137 C 
HETATM   10  C9  UNL     1      23.341   7.416  46.240  1.00  0.00     0.029 C 
HETATM   11  C10 UNL     1      22.077   7.292  46.597  1.00  0.00     0.186 A 
HETATM   12  C11 UNL     1      21.493   7.898  47.827  1.00  0.00     0.136 A 
HETATM   13  O2  UNL     1      22.698   8.128  47.587  1.00  0.00    -0.361 OA
HETATM   14  C12 UNL     1      20.938   8.492  49.025  1.00  0.00     0.074 C 
HETATM   15  C15 UNL     1      21.075   7.622  50.217  1.00  0.00     0.003 C 
HETATM   16  C16 UNL     1      21.348   6.340  50.225  1.00  0.00     0.096 C 
HETATM   17  N7  UNL     1      21.564   5.187  51.007  1.00  0.00    -0.303 N 
HETATM   18  C17 UNL     1      22.780   5.148  51.527  1.00  0.00     0.167 A 
HETATM   19  N8  UNL     1      22.871   4.044  52.258  1.00  0.00    -0.226 NA
HETATM   20  C18 UNL     1      21.676   3.377  52.192  1.00  0.00     0.086 A 
HETATM   21  C19 UNL     1      21.102   2.237  52.672  1.00  0.00     0.034 A 
HETATM   22  C20 UNL     1      19.787   1.895  52.346  1.00  0.00     0.002 A 
HETATM   23  C21 UNL     1      19.029   2.729  51.512  1.00  0.00     0.002 A 
HETATM   24  C22 UNL     1      19.554   3.911  50.986  1.00  0.00     0.032 A 
HETATM   25  C23 UNL     1      20.849   4.124  51.385  1.00  0.00     0.069 A 
ENDROOT
BRANCH  14  26
HETATM   26  C13 UNL     1      19.606   9.124  48.876  1.00  0.00     0.001 C 
HETATM   27  C14 UNL     1      18.745   9.816  49.623  1.00  0.00     0.077 C 
BRANCH  27  28
HETATM   28  N6  UNL     1      17.465  10.389  49.378  1.00  0.00    -0.408 N 
HETATM   29  H15 UNL     1      17.309  10.530  48.347  1.00  0.00     0.155 HD
HETATM   30  H16 UNL     1      16.891  10.577  50.221  1.00  0.00     0.155 HD
ENDBRANCH  27  28
ENDBRANCH  14  26
BRANCH   1  31
HETATM   31  N1  UNL     1      24.449   6.779  52.241  1.00  0.00    -0.294 NA
HETATM   32  H1  UNL     1      24.678   6.547  53.204  1.00  0.00     0.187 HD
ENDBRANCH   1  31
BRANCH   7  33
HETATM   33  C6  UNL     1      27.467   9.480  46.599  1.00  0.00     0.177 C 
BRANCH  33  34
HETATM   34  C7  UNL     1      28.317   8.308  46.142  1.00  0.00     0.185 C 
BRANCH  34  35
HETATM   35  O1  UNL     1      28.326   8.212  44.751  1.00  0.00    -0.399 OA
HETATM   36  H8  UNL     1      29.228   8.119  44.363  1.00  0.00     0.209 HD
ENDBRANCH  34  35
ENDBRANCH  33  34
ENDBRANCH   7  33
BRANCH   2  37
HETATM   37  N2  UNL     1      24.205   5.790  49.269  1.00  0.00    -0.285 NA
HETATM   38  H2  UNL     1      24.588   5.474  48.334  1.00  0.00     0.125 HD
HETATM   39  H3  UNL     1      24.581   5.471  48.333  1.00  0.00     0.125 HD
ENDBRANCH   2  37
TORSDOF 7
ENDMDL
MODEL 8
REMARK VINA RESULT:      -7.2      2.819      4.252
REMARK  7 active torsions:
REMARK  status: ('A' for Active; 'I' for Inactive)
REMARK    1  A    between atoms: N1_1  and  C1_2 
REMARK    2  A    between atoms: C2_3  and  N2_4 
REMARK    3  A    between atoms: N4_9  and  C6_10 
REMARK    4  A    between atoms: C6_10  and  C7_11 
REMARK    5  A    between atoms: C7_11  and  O1_12 
REMARK    6  A    between atoms: C12_19  and  C13_20 
REMARK    7  A    between atoms: C14_21  and  N6_22 
ROOT
HETATM    1  C1  UNL     1      23.607   3.478  52.368  1.00  0.00     0.135 C 
HETATM    2  C2  UNL     1      23.960   4.149  51.151  1.00  0.00     0.133 C 
HETATM    3  N3  UNL     1      24.321   4.909  50.211  1.00  0.00    -0.231 NA
HETATM    4  C3  UNL     1      24.799   6.215  50.325  1.00  0.00     0.101 A 
HETATM    5  C4  UNL     1      25.213   7.484  50.324  1.00  0.00     0.041 A 
HETATM    6  C5  UNL     1      24.575   7.093  49.216  1.00  0.00     0.096 A 
HETATM    7  N4  UNL     1      23.897   6.794  47.971  1.00  0.00    -0.265 N 
HETATM    8  N5  UNL     1      22.871   5.909  48.216  1.00  0.00    -0.185 NA
HETATM    9  C8  UNL     1      22.556   4.982  47.399  1.00  0.00     0.137 C 
HETATM   10  C9  UNL     1      21.523   3.957  47.469  1.00  0.00     0.029 C 
HETATM   11  C10 UNL     1      20.520   3.395  48.115  1.00  0.00     0.186 A 
HETATM   12  C11 UNL     1      20.012   3.860  49.438  1.00  0.00     0.136 A 
HETATM   13  O2  UNL     1      20.945   4.509  48.916  1.00  0.00    -0.361 OA
HETATM   14  C12 UNL     1      19.529   4.323  50.721  1.00  0.00     0.074 C 
HETATM   15  C15 UNL     1      20.248   3.711  51.863  1.00  0.00     0.003 C 
HETATM   16  C16 UNL     1      21.008   2.643  51.831  1.00  0.00     0.096 C 
HETATM   17  N7  UNL     1      21.826   1.757  52.561  1.00  0.00    -0.303 N 
HETATM   18  C17 UNL     1      23.034   2.248  52.780  1.00  0.00     0.167 A 
HETATM   19  N8  UNL     1      23.711   1.353  53.490  1.00  0.00    -0.226 NA
HETATM   20  C18 UNL     1      22.898   0.274  53.719  1.00  0.00     0.086 A 
HETATM   21  C19 UNL     1      22.944  -0.938  54.341  1.00  0.00     0.034 A 
HETATM   22  C20 UNL     1      21.840  -1.796  54.340  1.00  0.00     0.002 A 
HETATM   23  C21 UNL     1      20.656  -1.417  53.692  1.00  0.00     0.002 A 
HETATM   24  C22 UNL     1      20.540  -0.189  53.036  1.00  0.00     0.032 A 
HETATM   25  C23 UNL     1      21.693   0.550  53.116  1.00  0.00     0.069 A 
ENDROOT
BRANCH  14  26
HETATM   26  C13 UNL     1      18.056   4.371  50.878  1.00  0.00     0.001 C 
HETATM   27  C14 UNL     1      16.976   4.465  50.102  1.00  0.00     0.077 C 
BRANCH  27  28
HETATM   28  N6  UNL     1      15.576   4.503  50.359  1.00  0.00    -0.408 N 
HETATM   29  H15 UNL     1      15.179   5.449  50.126  1.00  0.00     0.155 HD
HETATM   30  H16 UNL     1      15.164   3.624  50.725  1.00  0.00     0.155 HD
ENDBRANCH  27  28
ENDBRANCH  14  26
BRANCH   1  31
HETATM   31  N1  UNL     1      24.018   4.465  53.052  1.00  0.00    -0.294 NA
HETATM   32  H1  UNL     1      24.676   4.458  53.827  1.00  0.00     0.187 HD
ENDBRANCH   1  31
BRANCH   7  33
HETATM   33  C6  UNL     1      24.451   7.480  46.809  1.00  0.00     0.177 C 
BRANCH  33  34
HETATM   34  C7  UNL     1      23.621   8.695  46.438  1.00  0.00     0.185 C 
BRANCH  34  35
HETATM   35  O1  UNL     1      22.305   8.552  46.876  1.00  0.00    -0.399 OA
HETATM   36  H8  UNL     1      21.655   8.410  46.147  1.00  0.00     0.209 HD
ENDBRANCH  34  35
ENDBRANCH  33  34
ENDBRANCH   7  33
BRANCH   2  37
HETATM   37  N2  UNL     1      23.577   3.136  50.239  1.00  0.00    -0.285 NA
HETATM   38  H2  UNL     1      24.064   2.631  49.446  1.00  0.00     0.125 HD
HETATM   39  H3  UNL     1      24.057   2.627  49.446  1.00  0.00     0.125 HD
ENDBRANCH   2  37
TORSDOF 7
ENDMDL
MODEL 9
REMARK VINA RESULT:      -7.2      2.575      5.474
REMARK  7 active torsions:
REMARK  status: ('A' for Active; 'I' for Inactive)
REMARK    1  A    between atoms: N1_1  and  C1_2 
REMARK    2  A    between atoms: C2_3  and  N2_4 
REMARK    3  A    between atoms: N4_9  and  C6_10 
REMARK    4  A    between atoms: C6_10  and  C7_11 
REMARK    5  A    between atoms: C7_11  and  O1_12 
REMARK    6  A    between atoms: C12_19  and  C13_20 
REMARK    7  A    between atoms: C14_21  and  N6_22 
ROOT
HETATM    1  C1  UNL     1      20.641   1.935  49.804  1.00  0.00     0.135 C 
HETATM    2  C2  UNL     1      20.065   3.218  49.523  1.00  0.00     0.133 C 
HETATM    3  N3  UNL     1      19.514   4.262  49.079  1.00  0.00    -0.231 NA
HETATM    4  C3  UNL     1      18.962   4.443  47.809  1.00  0.00     0.101 A 
HETATM    5  C4  UNL     1      18.460   4.734  46.608  1.00  0.00     0.041 A 
HETATM    6  C5  UNL     1      18.956   5.776  47.284  1.00  0.00     0.096 A 
HETATM    7  N4  UNL     1      19.463   6.979  47.910  1.00  0.00    -0.265 N 
HETATM    8  N5  UNL     1      20.577   6.665  48.657  1.00  0.00    -0.185 NA
HETATM    9  C8  UNL     1      20.836   7.228  49.772  1.00  0.00     0.137 C 
HETATM   10  C9  UNL     1      21.941   7.041  50.702  1.00  0.00     0.029 C 
HETATM   11  C10 UNL     1      23.067   6.435  51.024  1.00  0.00     0.186 A 
HETATM   12  C11 UNL     1      23.728   5.397  50.182  1.00  0.00     0.136 A 
HETATM   13  O2  UNL     1      22.683   5.921  49.739  1.00  0.00    -0.361 OA
HETATM   14  C12 UNL     1      24.359   4.391  49.355  1.00  0.00     0.074 C 
HETATM   15  C15 UNL     1      23.863   3.022  49.631  1.00  0.00     0.003 C 
HETATM   16  C16 UNL     1      23.188   2.630  50.684  1.00  0.00     0.096 C 
HETATM   17  N7  UNL     1      22.553   1.557  51.343  1.00  0.00    -0.303 N 
HETATM   18  C17 UNL     1      21.357   1.292  50.845  1.00  0.00     0.167 A 
HETATM   19  N8  UNL     1      20.860   0.260  51.516  1.00  0.00    -0.226 NA
HETATM   20  C18 UNL     1      21.775  -0.129  52.459  1.00  0.00     0.086 A 
HETATM   21  C19 UNL     1      21.911  -1.065  53.440  1.00  0.00     0.034 A 
HETATM   22  C20 UNL     1      23.063  -1.126  54.229  1.00  0.00     0.002 A 
HETATM   23  C21 UNL     1      24.108  -0.215  54.020  1.00  0.00     0.002 A 
HETATM   24  C22 UNL     1      24.035   0.769  53.032  1.00  0.00     0.032 A 
HETATM   25  C23 UNL     1      22.855   0.715  52.335  1.00  0.00     0.069 A 
ENDROOT
BRANCH  14  26
HETATM   26  C13 UNL     1      25.831   4.494  49.222  1.00  0.00     0.001 C 
HETATM   27  C14 UNL     1      26.741   5.426  48.934  1.00  0.00     0.077 C 
BRANCH  27  28
HETATM   28  N6  UNL     1      28.161   5.421  48.831  1.00  0.00    -0.408 N 
HETATM   29  H15 UNL     1      28.577   6.231  49.358  1.00  0.00     0.155 HD
HETATM   30  H16 UNL     1      28.565   4.647  48.271  1.00  0.00     0.155 HD
ENDBRANCH  27  28
ENDBRANCH  14  26
BRANCH   1  31
HETATM   31  N1  UNL     1      20.263   1.499  48.673  1.00  0.00    -0.294 NA
HETATM   32  H1  UNL     1      20.660   0.735  48.133  1.00  0.00     0.187 HD
ENDBRANCH   1  31
BRANCH   7  33
HETATM   33  C6  UNL     1      18.696   8.181  47.606  1.00  0.00     0.177 C 
BRANCH  33  34
HETATM   34  C7  UNL     1      19.531   9.190  46.838  1.00  0.00     0.185 C 
BRANCH  34  35
HETATM   35  O1  UNL     1      19.084  10.489  47.075  1.00  0.00    -0.399 OA
HETATM   36  H8  UNL     1      18.977  11.030  46.256  1.00  0.00     0.209 HD
ENDBRANCH  34  35
ENDBRANCH  33  34
ENDBRANCH   7  33
BRANCH   2  37
HETATM   37  N2  UNL     1      20.383   3.857  50.745  1.00  0.00    -0.285 NA
HETATM   38  H2  UNL     1      19.929   4.622  51.321  1.00  0.00     0.125 HD
HETATM   39  H3  UNL     1      19.935   4.620  51.326  1.00  0.00     0.125 HD
ENDBRANCH   2  37
TORSDOF 7
ENDMDL
