MODEL 1
REMARK VINA RESULT:      -8.8      0.000      0.000
REMARK  6 active torsions:
REMARK  status: ('A' for Active; 'I' for Inactive)
REMARK    1  A    between atoms: O1_2  and  C2_3 
REMARK    2  A    between atoms: C3_4  and  C4_5 
REMARK    3  A    between atoms: C4_5  and  C5_6 
REMARK    4  A    between atoms: N1_9  and  C8_10 
REMARK    5  A    between atoms: C9_12  and  O2_13 
REMARK    6  A    between atoms: C11_17  and  C12_18 
ROOT
HETATM    1  C5  UNL     1      25.407   3.254  50.341  1.00  0.00    -0.039 A 
HETATM    2  C6  UNL     1      24.621   2.530  51.002  1.00  0.00    -0.001 A 
HETATM    3  C7  UNL     1      23.981   1.915  51.563  1.00  0.00     0.134 A 
HETATM    4  N1  UNL     1      23.281   1.212  52.203  1.00  0.00    -0.227 N 
HETATM    5  N3  UNL     1      24.656   0.819  52.520  1.00  0.00    -0.136 NA
HETATM    6  C11 UNL     1      25.830   1.308  52.044  1.00  0.00     0.034 A 
HETATM    7  C18 UNL     1      26.348   2.338  51.096  1.00  0.00     0.122 A 
ENDROOT
BRANCH   4   8
HETATM    8  C8  UNL     1      22.548   0.355  52.981  1.00  0.00     0.192 A 
HETATM    9  N2  UNL     1      23.123  -0.213  53.888  1.00  0.00    -0.198 NA
HETATM   10  C9  UNL     1      22.496  -1.067  54.703  1.00  0.00     0.171 A 
HETATM   11  C10 UNL     1      21.176  -1.319  54.521  1.00  0.00     0.111 A 
HETATM   12  S1  UNL     1      20.804  -0.235  53.056  1.00  0.00    -0.058 SA
BRANCH  10  13
HETATM   13  O2  UNL     1      23.048  -1.786  55.789  1.00  0.00    -0.344 OA
HETATM   14  H7  UNL     1      22.471  -1.860  56.627  1.00  0.00     0.219 HD
ENDBRANCH  10  13
ENDBRANCH   4   8
BRANCH   6  15
HETATM   15  C12 UNL     1      27.090   0.640  52.614  1.00  0.00    -0.016 A 
HETATM   16  C13 UNL     1      27.057  -0.724  52.532  1.00  0.00     0.014 A 
HETATM   17  C14 UNL     1      28.098  -1.476  52.993  1.00  0.00     0.024 A 
HETATM   18  C15 UNL     1      29.199  -0.892  53.546  1.00  0.00     0.034 A 
HETATM   19 CL1  UNL     1      30.588  -1.753  54.167  1.00  0.00    -0.084 Cl
HETATM   20  C16 UNL     1      29.188   0.479  53.607  1.00  0.00     0.024 A 
HETATM   21  C17 UNL     1      28.157   1.267  53.152  1.00  0.00     0.014 A 
ENDBRANCH   6  15
BRANCH   1  22
HETATM   22  C4  UNL     1      25.621   4.190  49.520  1.00  0.00     0.010 C 
BRANCH  22  23
HETATM   23  C3  UNL     1      26.983   4.325  49.033  1.00  0.00     0.025 C 
HETATM   24  C2  UNL     1      27.331   5.525  48.601  1.00  0.00     0.134 C 
BRANCH  24  25
HETATM   25  O1  UNL     1      28.617   5.728  48.122  1.00  0.00    -0.368 OA
HETATM   26  C1  UNL     1      29.010   7.021  47.703  1.00  0.00     0.208 C 
ENDBRANCH  24  25
ENDBRANCH  22  23
ENDBRANCH   1  22
TORSDOF 6
ENDMDL
MODEL 2
REMARK VINA RESULT:      -8.7      3.895      7.200
REMARK  6 active torsions:
REMARK  status: ('A' for Active; 'I' for Inactive)
REMARK    1  A    between atoms: O1_2  and  C2_3 
REMARK    2  A    between atoms: C3_4  and  C4_5 
REMARK    3  A    between atoms: C4_5  and  C5_6 
REMARK    4  A    between atoms: N1_9  and  C8_10 
REMARK    5  A    between atoms: C9_12  and  O2_13 
REMARK    6  A    between atoms: C11_17  and  C12_18 
ROOT
HETATM    1  C5  UNL     1      22.516   1.172  52.544  1.00  0.00    -0.039 A 
HETATM    2  C6  UNL     1      23.660   0.699  52.760  1.00  0.00    -0.001 A 
HETATM    3  C7  UNL     1      24.624   0.319  52.928  1.00  0.00     0.134 A 
HETATM    4  N1  UNL     1      25.718  -0.092  53.102  1.00  0.00    -0.227 N 
HETATM    5  N3  UNL     1      25.850   1.061  52.209  1.00  0.00    -0.136 NA
HETATM    6  C11 UNL     1      24.893   1.876  51.695  1.00  0.00     0.034 A 
HETATM    7  C18 UNL     1      23.413   2.068  51.715  1.00  0.00     0.122 A 
ENDROOT
BRANCH   4   8
HETATM    8  C8  UNL     1      27.018  -0.498  53.246  1.00  0.00     0.192 A 
HETATM    9  N2  UNL     1      27.242  -1.691  53.211  1.00  0.00    -0.198 NA
HETATM   10  C9  UNL     1      28.477  -2.186  53.341  1.00  0.00     0.171 A 
HETATM   11  C10 UNL     1      29.522  -1.341  53.521  1.00  0.00     0.111 A 
HETATM   12  S1  UNL     1      28.657   0.306  53.499  1.00  0.00    -0.058 SA
BRANCH  10  13
HETATM   13  O2  UNL     1      28.867  -3.546  53.318  1.00  0.00    -0.344 OA
HETATM   14  H7  UNL     1      28.130  -4.228  53.138  1.00  0.00     0.219 HD
ENDBRANCH  10  13
ENDBRANCH   4   8
BRANCH   6  15
HETATM   15  C12 UNL     1      25.415   2.996  50.783  1.00  0.00    -0.016 A 
HETATM   16  C13 UNL     1      24.616   4.105  50.783  1.00  0.00     0.014 A 
HETATM   17  C14 UNL     1      24.934   5.195  50.027  1.00  0.00     0.024 A 
HETATM   18  C15 UNL     1      26.054   5.211  49.251  1.00  0.00     0.034 A 
HETATM   19 CL1  UNL     1      26.560   6.548  48.244  1.00  0.00    -0.084 Cl
HETATM   20  C16 UNL     1      26.826   4.076  49.282  1.00  0.00     0.024 A 
HETATM   21  C17 UNL     1      26.536   2.961  50.033  1.00  0.00     0.014 A 
ENDBRANCH   6  15
BRANCH   1  22
HETATM   22  C4  UNL     1      21.265   1.165  52.722  1.00  0.00     0.010 C 
BRANCH  22  23
HETATM   23  C3  UNL     1      20.687  -0.077  53.203  1.00  0.00     0.025 C 
HETATM   24  C2  UNL     1      19.385  -0.221  53.025  1.00  0.00     0.134 C 
BRANCH  24  25
HETATM   25  O1  UNL     1      18.764  -1.384  53.459  1.00  0.00    -0.368 OA
HETATM   26  C1  UNL     1      17.413  -1.624  53.115  1.00  0.00     0.208 C 
ENDBRANCH  24  25
ENDBRANCH  22  23
ENDBRANCH   1  22
TORSDOF 6
ENDMDL
MODEL 3
REMARK VINA RESULT:      -8.6      2.833      6.724
REMARK  6 active torsions:
REMARK  status: ('A' for Active; 'I' for Inactive)
REMARK    1  A    between atoms: O1_2  and  C2_3 
REMARK    2  A    between atoms: C3_4  and  C4_5 
REMARK    3  A    between atoms: C4_5  and  C5_6 
REMARK    4  A    between atoms: N1_9  and  C8_10 
REMARK    5  A    between atoms: C9_12  and  O2_13 
REMARK    6  A    between atoms: C11_17  and  C12_18 
ROOT
HETATM    1  C5  UNL     1      22.181  -0.432  54.082  1.00  0.00    -0.039 A 
HETATM    2  C6  UNL     1      22.467   0.595  53.417  1.00  0.00    -0.001 A 
HETATM    3  C7  UNL     1      22.728   1.447  52.862  1.00  0.00     0.134 A 
HETATM    4  N1  UNL     1      23.044   2.399  52.238  1.00  0.00    -0.227 N 
HETATM    5  N3  UNL     1      24.279   1.663  52.516  1.00  0.00    -0.136 NA
HETATM    6  C11 UNL     1      24.465   0.508  53.206  1.00  0.00     0.034 A 
HETATM    7  C18 UNL     1      23.688  -0.520  53.959  1.00  0.00     0.122 A 
ENDROOT
BRANCH   4   8
HETATM    8  C8  UNL     1      23.502   3.473  51.522  1.00  0.00     0.192 A 
HETATM    9  N2  UNL     1      23.668   4.518  52.118  1.00  0.00    -0.198 NA
HETATM   10  C9  UNL     1      24.112   5.622  51.508  1.00  0.00     0.171 A 
HETATM   11  C10 UNL     1      24.389   5.588  50.181  1.00  0.00     0.111 A 
HETATM   12  S1  UNL     1      23.978   3.819  49.775  1.00  0.00    -0.058 SA
BRANCH  10  13
HETATM   13  O2  UNL     1      24.344   6.892  52.086  1.00  0.00    -0.344 OA
HETATM   14  H7  UNL     1      23.697   7.184  52.819  1.00  0.00     0.219 HD
ENDBRANCH  10  13
ENDBRANCH   4   8
BRANCH   6  15
HETATM   15  C12 UNL     1      25.922   0.029  53.291  1.00  0.00    -0.016 A 
HETATM   16  C13 UNL     1      26.672   0.749  54.178  1.00  0.00     0.014 A 
HETATM   17  C14 UNL     1      27.989   0.456  54.377  1.00  0.00     0.024 A 
HETATM   18  C15 UNL     1      28.595  -0.560  53.700  1.00  0.00     0.034 A 
HETATM   19 CL1  UNL     1      30.271  -1.025  53.874  1.00  0.00    -0.084 Cl
HETATM   20  C16 UNL     1      27.803  -1.255  52.820  1.00  0.00     0.024 A 
HETATM   21  C17 UNL     1      26.473  -0.987  52.596  1.00  0.00     0.014 A 
ENDBRANCH   6  15
BRANCH   1  22
HETATM   22  C4  UNL     1      21.336  -1.185  54.644  1.00  0.00     0.010 C 
BRANCH  22  23
HETATM   23  C3  UNL     1      20.191  -1.583  53.844  1.00  0.00     0.025 C 
HETATM   24  C2  UNL     1      19.410  -0.606  53.417  1.00  0.00     0.134 C 
BRANCH  24  25
HETATM   25  O1  UNL     1      18.298  -0.912  52.646  1.00  0.00    -0.368 OA
HETATM   26  C1  UNL     1      17.373  -1.878  53.107  1.00  0.00     0.208 C 
ENDBRANCH  24  25
ENDBRANCH  22  23
ENDBRANCH   1  22
TORSDOF 6
ENDMDL
MODEL 4
REMARK VINA RESULT:      -8.6      3.900      7.605
REMARK  6 active torsions:
REMARK  status: ('A' for Active; 'I' for Inactive)
REMARK    1  A    between atoms: O1_2  and  C2_3 
REMARK    2  A    between atoms: C3_4  and  C4_5 
REMARK    3  A    between atoms: C4_5  and  C5_6 
REMARK    4  A    between atoms: N1_9  and  C8_10 
REMARK    5  A    between atoms: C9_12  and  O2_13 
REMARK    6  A    between atoms: C11_17  and  C12_18 
ROOT
HETATM    1  C5  UNL     1      22.421  -0.638  53.859  1.00  0.00    -0.039 A 
HETATM    2  C6  UNL     1      23.674  -0.553  53.909  1.00  0.00    -0.001 A 
HETATM    3  C7  UNL     1      24.720  -0.466  53.935  1.00  0.00     0.134 A 
HETATM    4  N1  UNL     1      25.895  -0.351  53.947  1.00  0.00    -0.227 N 
HETATM    5  N3  UNL     1      25.405   0.570  52.920  1.00  0.00    -0.136 NA
HETATM    6  C11 UNL     1      24.134   0.812  52.506  1.00  0.00     0.034 A 
HETATM    7  C18 UNL     1      22.732   0.379  52.781  1.00  0.00     0.122 A 
ENDROOT
BRANCH   4   8
HETATM    8  C8  UNL     1      27.249  -0.154  53.890  1.00  0.00     0.192 A 
HETATM    9  N2  UNL     1      27.682   0.901  54.309  1.00  0.00    -0.198 NA
HETATM   10  C9  UNL     1      28.988   1.188  54.298  1.00  0.00     0.171 A 
HETATM   11  C10 UNL     1      29.869   0.283  53.805  1.00  0.00     0.111 A 
HETATM   12  S1  UNL     1      28.724  -1.100  53.317  1.00  0.00    -0.058 SA
BRANCH  10  13
HETATM   13  O2  UNL     1      29.614   2.372  54.753  1.00  0.00    -0.344 OA
HETATM   14  H7  UNL     1      29.446   3.216  54.205  1.00  0.00     0.219 HD
ENDBRANCH  10  13
ENDBRANCH   4   8
BRANCH   6  15
HETATM   15  C12 UNL     1      24.002   1.860  51.392  1.00  0.00    -0.016 A 
HETATM   16  C13 UNL     1      22.806   1.797  50.734  1.00  0.00     0.014 A 
HETATM   17  C14 UNL     1      22.524   2.659  49.714  1.00  0.00     0.024 A 
HETATM   18  C15 UNL     1      23.423   3.605  49.322  1.00  0.00     0.034 A 
HETATM   19 CL1  UNL     1      23.170   4.758  48.033  1.00  0.00    -0.084 Cl
HETATM   20  C16 UNL     1      24.610   3.631  50.011  1.00  0.00     0.024 A 
HETATM   21  C17 UNL     1      24.927   2.779  51.043  1.00  0.00     0.014 A 
ENDBRANCH   6  15
BRANCH   1  22
HETATM   22  C4  UNL     1      21.329  -1.126  54.268  1.00  0.00     0.010 C 
BRANCH  22  23
HETATM   23  C3  UNL     1      20.118  -0.584  53.678  1.00  0.00     0.025 C 
HETATM   24  C2  UNL     1      19.102  -1.421  53.563  1.00  0.00     0.134 C 
BRANCH  24  25
HETATM   25  O1  UNL     1      17.911  -0.973  53.009  1.00  0.00    -0.368 OA
HETATM   26  C1  UNL     1      17.921  -0.359  51.734  1.00  0.00     0.208 C 
ENDBRANCH  24  25
ENDBRANCH  22  23
ENDBRANCH   1  22
TORSDOF 6
ENDMDL
MODEL 5
REMARK VINA RESULT:      -8.3      2.559      6.727
REMARK  6 active torsions:
REMARK  status: ('A' for Active; 'I' for Inactive)
REMARK    1  A    between atoms: O1_2  and  C2_3 
REMARK    2  A    between atoms: C3_4  and  C4_5 
REMARK    3  A    between atoms: C4_5  and  C5_6 
REMARK    4  A    between atoms: N1_9  and  C8_10 
REMARK    5  A    between atoms: C9_12  and  O2_13 
REMARK    6  A    between atoms: C11_17  and  C12_18 
ROOT
HETATM    1  C5  UNL     1      22.848   1.900  52.051  1.00  0.00    -0.039 A 
HETATM    2  C6  UNL     1      23.531   2.707  51.372  1.00  0.00    -0.001 A 
HETATM    3  C7  UNL     1      24.121   3.372  50.813  1.00  0.00     0.134 A 
HETATM    4  N1  UNL     1      24.803   4.109  50.192  1.00  0.00    -0.227 N 
HETATM    5  N3  UNL     1      25.714   3.221  50.918  1.00  0.00    -0.136 NA
HETATM    6  C11 UNL     1      25.436   2.207  51.779  1.00  0.00     0.034 A 
HETATM    7  C18 UNL     1      24.270   1.508  52.394  1.00  0.00     0.122 A 
ENDROOT
BRANCH   4   8
HETATM    8  C8  UNL     1      25.672   4.919  49.510  1.00  0.00     0.192 A 
HETATM    9  N2  UNL     1      26.785   4.488  49.286  1.00  0.00    -0.198 NA
HETATM   10  C9  UNL     1      27.704   5.201  48.627  1.00  0.00     0.171 A 
HETATM   11  C10 UNL     1      27.397   6.447  48.189  1.00  0.00     0.111 A 
HETATM   12  S1  UNL     1      25.638   6.607  48.772  1.00  0.00    -0.058 SA
BRANCH  10  13
HETATM   13  O2  UNL     1      29.027   4.815  48.305  1.00  0.00    -0.344 OA
HETATM   14  H7  UNL     1      29.772   5.435  48.625  1.00  0.00     0.219 HD
ENDBRANCH  10  13
ENDBRANCH   4   8
BRANCH   6  15
HETATM   15  C12 UNL     1      26.665   1.489  52.354  1.00  0.00    -0.016 A 
HETATM   16  C13 UNL     1      26.561   0.127  52.308  1.00  0.00     0.014 A 
HETATM   17  C14 UNL     1      27.566  -0.666  52.779  1.00  0.00     0.024 A 
HETATM   18  C15 UNL     1      28.701  -0.126  53.307  1.00  0.00     0.034 A 
HETATM   19 CL1  UNL     1      30.050  -1.042  53.938  1.00  0.00    -0.084 Cl
HETATM   20  C16 UNL     1      28.761   1.245  53.333  1.00  0.00     0.024 A 
HETATM   21  C17 UNL     1      27.768   2.073  52.867  1.00  0.00     0.014 A 
ENDBRANCH   6  15
BRANCH   1  22
HETATM   22  C4  UNL     1      21.733   1.442  52.430  1.00  0.00     0.010 C 
BRANCH  22  23
HETATM   23  C3  UNL     1      21.757   0.154  53.101  1.00  0.00     0.025 C 
HETATM   24  C2  UNL     1      21.373   0.148  54.365  1.00  0.00     0.134 C 
BRANCH  24  25
HETATM   25  O1  UNL     1      21.369  -1.047  55.070  1.00  0.00    -0.368 OA
HETATM   26  C1  UNL     1      22.583  -1.748  55.261  1.00  0.00     0.208 C 
ENDBRANCH  24  25
ENDBRANCH  22  23
ENDBRANCH   1  22
TORSDOF 6
ENDMDL
MODEL 6
REMARK VINA RESULT:      -8.1      4.316      7.330
REMARK  6 active torsions:
REMARK  status: ('A' for Active; 'I' for Inactive)
REMARK    1  A    between atoms: O1_2  and  C2_3 
REMARK    2  A    between atoms: C3_4  and  C4_5 
REMARK    3  A    between atoms: C4_5  and  C5_6 
REMARK    4  A    between atoms: N1_9  and  C8_10 
REMARK    5  A    between atoms: C9_12  and  O2_13 
REMARK    6  A    between atoms: C11_17  and  C12_18 
ROOT
HETATM    1  C5  UNL     1      24.791  -0.038  53.172  1.00  0.00    -0.039 A 
HETATM    2  C6  UNL     1      24.403   1.091  52.781  1.00  0.00    -0.001 A 
HETATM    3  C7  UNL     1      24.058   2.027  52.454  1.00  0.00     0.134 A 
HETATM    4  N1  UNL     1      23.647   3.072  52.087  1.00  0.00    -0.227 N 
HETATM    5  N3  UNL     1      22.480   2.200  52.228  1.00  0.00    -0.136 NA
HETATM    6  C11 UNL     1      22.409   0.898  52.610  1.00  0.00     0.034 A 
HETATM    7  C18 UNL     1      23.294  -0.226  53.037  1.00  0.00     0.122 A 
ENDROOT
BRANCH   4   8
HETATM    8  C8  UNL     1      23.083   4.245  51.663  1.00  0.00     0.192 A 
HETATM    9  N2  UNL     1      23.742   5.260  51.773  1.00  0.00    -0.198 NA
HETATM   10  C9  UNL     1      23.280   6.453  51.387  1.00  0.00     0.171 A 
HETATM   11  C10 UNL     1      22.037   6.550  50.855  1.00  0.00     0.111 A 
HETATM   12  S1  UNL     1      21.485   4.774  50.912  1.00  0.00    -0.058 SA
BRANCH  10  13
HETATM   13  O2  UNL     1      23.945   7.700  51.463  1.00  0.00    -0.344 OA
HETATM   14  H7  UNL     1      24.135   8.169  50.576  1.00  0.00     0.219 HD
ENDBRANCH  10  13
ENDBRANCH   4   8
BRANCH   6  15
HETATM   15  C12 UNL     1      20.992   0.306  52.641  1.00  0.00    -0.016 A 
HETATM   16  C13 UNL     1      20.254   0.625  51.536  1.00  0.00     0.014 A 
HETATM   17  C14 UNL     1      18.971   0.180  51.401  1.00  0.00     0.024 A 
HETATM   18  C15 UNL     1      18.390  -0.594  52.361  1.00  0.00     0.034 A 
HETATM   19 CL1  UNL     1      16.759  -1.219  52.295  1.00  0.00    -0.084 Cl
HETATM   20  C16 UNL     1      19.168  -0.888  53.452  1.00  0.00     0.024 A 
HETATM   21  C17 UNL     1      20.464  -0.457  53.620  1.00  0.00     0.014 A 
ENDBRANCH   6  15
BRANCH   1  22
HETATM   22  C4  UNL     1      25.710  -0.829  53.529  1.00  0.00     0.010 C 
BRANCH  22  23
HETATM   23  C3  UNL     1      27.043  -0.263  53.643  1.00  0.00     0.025 C 
HETATM   24  C2  UNL     1      27.334   0.313  54.796  1.00  0.00     0.134 C 
BRANCH  24  25
HETATM   25  O1  UNL     1      28.589   0.876  54.978  1.00  0.00    -0.368 OA
HETATM   26  C1  UNL     1      29.034   1.890  54.097  1.00  0.00     0.208 C 
ENDBRANCH  24  25
ENDBRANCH  22  23
ENDBRANCH   1  22
TORSDOF 6
ENDMDL
MODEL 7
REMARK VINA RESULT:      -8.1      3.449      5.277
REMARK  6 active torsions:
REMARK  status: ('A' for Active; 'I' for Inactive)
REMARK    1  A    between atoms: O1_2  and  C2_3 
REMARK    2  A    between atoms: C3_4  and  C4_5 
REMARK    3  A    between atoms: C4_5  and  C5_6 
REMARK    4  A    between atoms: N1_9  and  C8_10 
REMARK    5  A    between atoms: C9_12  and  O2_13 
REMARK    6  A    between atoms: C11_17  and  C12_18 
ROOT
HETATM    1  C5  UNL     1      24.924   3.727  50.116  1.00  0.00    -0.039 A 
HETATM    2  C6  UNL     1      25.731   3.037  50.788  1.00  0.00    -0.001 A 
HETATM    3  C7  UNL     1      26.388   2.449  51.357  1.00  0.00     0.134 A 
HETATM    4  N1  UNL     1      27.109   1.775  52.007  1.00  0.00    -0.227 N 
HETATM    5  N3  UNL     1      25.752   1.295  52.271  1.00  0.00    -0.136 NA
HETATM    6  C11 UNL     1      24.563   1.737  51.783  1.00  0.00     0.034 A 
HETATM    7  C18 UNL     1      24.012   2.776  50.863  1.00  0.00     0.122 A 
ENDROOT
BRANCH   4   8
HETATM    8  C8  UNL     1      27.867   0.947  52.791  1.00  0.00     0.192 A 
HETATM    9  N2  UNL     1      27.741  -0.250  52.632  1.00  0.00    -0.198 NA
HETATM   10  C9  UNL     1      28.437  -1.140  53.348  1.00  0.00     0.171 A 
HETATM   11  C10 UNL     1      29.314  -0.705  54.286  1.00  0.00     0.111 A 
HETATM   12  S1  UNL     1      29.124   1.139  54.126  1.00  0.00    -0.058 SA
BRANCH  10  13
HETATM   13  O2  UNL     1      28.381  -2.550  53.259  1.00  0.00    -0.344 OA
HETATM   14  H7  UNL     1      27.516  -2.950  52.893  1.00  0.00     0.219 HD
ENDBRANCH  10  13
ENDBRANCH   4   8
BRANCH   6  15
HETATM   15  C12 UNL     1      23.330   0.978  52.292  1.00  0.00    -0.016 A 
HETATM   16  C13 UNL     1      22.174   1.349  51.664  1.00  0.00     0.014 A 
HETATM   17  C14 UNL     1      20.983   0.773  51.995  1.00  0.00     0.024 A 
HETATM   18  C15 UNL     1      20.909  -0.188  52.959  1.00  0.00     0.034 A 
HETATM   19 CL1  UNL     1      19.443  -0.994  53.464  1.00  0.00    -0.084 Cl
HETATM   20  C16 UNL     1      22.094  -0.529  53.563  1.00  0.00     0.024 A 
HETATM   21  C17 UNL     1      23.311   0.031  53.253  1.00  0.00     0.014 A 
ENDBRANCH   6  15
BRANCH   1  22
HETATM   22  C4  UNL     1      24.681   4.651  49.289  1.00  0.00     0.010 C 
BRANCH  22  23
HETATM   23  C3  UNL     1      25.787   5.534  48.963  1.00  0.00     0.025 C 
HETATM   24  C2  UNL     1      25.834   6.677  49.623  1.00  0.00     0.134 C 
BRANCH  24  25
HETATM   25  O1  UNL     1      26.864   7.570  49.364  1.00  0.00    -0.368 OA
HETATM   26  C1  UNL     1      26.924   8.792  50.074  1.00  0.00     0.208 C 
ENDBRANCH  24  25
ENDBRANCH  22  23
ENDBRANCH   1  22
TORSDOF 6
ENDMDL
MODEL 8
REMARK VINA RESULT:      -8.0      2.891      6.621
REMARK  6 active torsions:
REMARK  status: ('A' for Active; 'I' for Inactive)
REMARK    1  A    between atoms: O1_2  and  C2_3 
REMARK    2  A    between atoms: C3_4  and  C4_5 
REMARK    3  A    between atoms: C4_5  and  C5_6 
REMARK    4  A    between atoms: N1_9  and  C8_10 
REMARK    5  A    between atoms: C9_12  and  O2_13 
REMARK    6  A    between atoms: C11_17  and  C12_18 
ROOT
HETATM    1  C5  UNL     1      22.242   0.674  52.314  1.00  0.00    -0.039 A 
HETATM    2  C6  UNL     1      22.819   1.595  51.683  1.00  0.00    -0.001 A 
HETATM    3  C7  UNL     1      23.322   2.356  51.163  1.00  0.00     0.134 A 
HETATM    4  N1  UNL     1      23.908   3.203  50.584  1.00  0.00    -0.227 N 
HETATM    5  N3  UNL     1      24.925   2.343  51.191  1.00  0.00    -0.136 NA
HETATM    6  C11 UNL     1      24.778   1.238  51.968  1.00  0.00     0.034 A 
HETATM    7  C18 UNL     1      23.707   0.386  52.564  1.00  0.00     0.122 A 
ENDROOT
BRANCH   4   8
HETATM    8  C8  UNL     1      24.669   4.143  49.942  1.00  0.00     0.192 A 
HETATM    9  N2  UNL     1      25.860   3.929  49.840  1.00  0.00    -0.198 NA
HETATM   10  C9  UNL     1      26.687   4.785  49.231  1.00  0.00     0.171 A 
HETATM   11  C10 UNL     1      26.193   5.934  48.707  1.00  0.00     0.111 A 
HETATM   12  S1  UNL     1      24.388   5.770  49.123  1.00  0.00    -0.058 SA
BRANCH  10  13
HETATM   13  O2  UNL     1      28.083   4.653  49.048  1.00  0.00    -0.344 OA
HETATM   14  H7  UNL     1      28.408   4.535  48.087  1.00  0.00     0.219 HD
ENDBRANCH  10  13
ENDBRANCH   4   8
BRANCH   6  15
HETATM   15  C12 UNL     1      26.090   0.588  52.428  1.00  0.00    -0.016 A 
HETATM   16  C13 UNL     1      27.044   1.500  52.786  1.00  0.00     0.014 A 
HETATM   17  C14 UNL     1      28.271   1.093  53.221  1.00  0.00     0.024 A 
HETATM   18  C15 UNL     1      28.583  -0.231  53.311  1.00  0.00     0.034 A 
HETATM   19 CL1  UNL     1      30.118  -0.867  53.853  1.00  0.00    -0.084 Cl
HETATM   20  C16 UNL     1      27.596  -1.110  52.941  1.00  0.00     0.024 A 
HETATM   21  C17 UNL     1      26.348  -0.734  52.500  1.00  0.00     0.014 A 
ENDBRANCH   6  15
BRANCH   1  22
HETATM   22  C4  UNL     1      21.190   0.086  52.694  1.00  0.00     0.010 C 
BRANCH  22  23
HETATM   23  C3  UNL     1      20.035   0.196  51.820  1.00  0.00     0.025 C 
HETATM   24  C2  UNL     1      18.880  -0.193  52.331  1.00  0.00     0.134 C 
BRANCH  24  25
HETATM   25  O1  UNL     1      17.733  -0.116  51.554  1.00  0.00    -0.368 OA
HETATM   26  C1  UNL     1      17.819   0.371  50.228  1.00  0.00     0.208 C 
ENDBRANCH  24  25
ENDBRANCH  22  23
ENDBRANCH   1  22
TORSDOF 6
ENDMDL
MODEL 9
REMARK VINA RESULT:      -8.0      1.950      2.356
REMARK  6 active torsions:
REMARK  status: ('A' for Active; 'I' for Inactive)
REMARK    1  A    between atoms: O1_2  and  C2_3 
REMARK    2  A    between atoms: C3_4  and  C4_5 
REMARK    3  A    between atoms: C4_5  and  C5_6 
REMARK    4  A    between atoms: N1_9  and  C8_10 
REMARK    5  A    between atoms: C9_12  and  O2_13 
REMARK    6  A    between atoms: C11_17  and  C12_18 
ROOT
HETATM    1  C5  UNL     1      24.418   3.452  50.003  1.00  0.00    -0.039 A 
HETATM    2  C6  UNL     1      23.710   2.680  50.698  1.00  0.00    -0.001 A 
HETATM    3  C7  UNL     1      23.137   2.028  51.288  1.00  0.00     0.134 A 
HETATM    4  N1  UNL     1      22.513   1.285  51.961  1.00  0.00    -0.227 N 
HETATM    5  N3  UNL     1      23.922   1.028  52.267  1.00  0.00    -0.136 NA
HETATM    6  C11 UNL     1      25.040   1.606  51.757  1.00  0.00     0.034 A 
HETATM    7  C18 UNL     1      25.448   2.649  50.769  1.00  0.00     0.122 A 
ENDROOT
BRANCH   4   8
HETATM    8  C8  UNL     1      21.872   0.390  52.777  1.00  0.00     0.192 A 
HETATM    9  N2  UNL     1      22.531  -0.159  53.638  1.00  0.00    -0.198 NA
HETATM   10  C9  UNL     1      21.997  -1.046  54.483  1.00  0.00     0.171 A 
HETATM   11  C10 UNL     1      20.681  -1.356  54.386  1.00  0.00     0.111 A 
HETATM   12  S1  UNL     1      20.164  -0.278  52.961  1.00  0.00    -0.058 SA
BRANCH  10  13
HETATM   13  O2  UNL     1      22.653  -1.749  55.522  1.00  0.00    -0.344 OA
HETATM   14  H7  UNL     1      23.662  -1.867  55.425  1.00  0.00     0.219 HD
ENDBRANCH  10  13
ENDBRANCH   4   8
BRANCH   6  15
HETATM   15  C12 UNL     1      26.363   1.074  52.325  1.00  0.00    -0.016 A 
HETATM   16  C13 UNL     1      26.448  -0.290  52.298  1.00  0.00     0.014 A 
HETATM   17  C14 UNL     1      27.559  -0.930  52.766  1.00  0.00     0.024 A 
HETATM   18  C15 UNL     1      28.614  -0.231  53.271  1.00  0.00     0.034 A 
HETATM   19 CL1  UNL     1      30.084  -0.942  53.896  1.00  0.00    -0.084 Cl
HETATM   20  C16 UNL     1      28.485   1.136  53.278  1.00  0.00     0.024 A 
HETATM   21  C17 UNL     1      27.381   1.812  52.815  1.00  0.00     0.014 A 
ENDBRANCH   6  15
BRANCH   1  22
HETATM   22  C4  UNL     1      24.534   4.377  49.150  1.00  0.00     0.010 C 
BRANCH  22  23
HETATM   23  C3  UNL     1      23.723   5.562  49.367  1.00  0.00     0.025 C 
HETATM   24  C2  UNL     1      24.046   6.306  50.411  1.00  0.00     0.134 C 
BRANCH  24  25
HETATM   25  O1  UNL     1      23.314   7.454  50.680  1.00  0.00    -0.368 OA
HETATM   26  C1  UNL     1      21.905   7.428  50.560  1.00  0.00     0.208 C 
ENDBRANCH  24  25
ENDBRANCH  22  23
ENDBRANCH   1  22
TORSDOF 6
ENDMDL
