MODEL 1
REMARK VINA RESULT:      -8.3      0.000      0.000
REMARK  8 active torsions:
REMARK  status: ('A' for Active; 'I' for Inactive)
REMARK    1  A    between atoms: C2_2  and  O1_3 
REMARK    2  A    between atoms: O1_3  and  C3_4 
REMARK    3  A    between atoms: C3_4  and  C4_6 
REMARK    4  A    between atoms: C6_8  and  N1_9 
REMARK    5  A    between atoms: N1_9  and  C7_10 
REMARK    6  A    between atoms: C10_13  and  O3_14 
REMARK    7  A    between atoms: O3_14  and  C11_15 
REMARK    8  A    between atoms: C11_15  and  C12_16 
ROOT
HETATM    1  N1  UNL     1      25.382   2.592  53.884  1.00  0.00    -0.339 N 
HETATM    2  H6  UNL     1      24.983   2.785  54.825  1.00  0.00     0.167 HD
ENDROOT
BRANCH   1   3
HETATM    3  C6  UNL     1      26.555   1.833  53.831  1.00  0.00     0.161 C 
HETATM    4  C5  UNL     1      26.450   0.408  53.568  1.00  0.00     0.045 A 
HETATM    5  C4  UNL     1      25.582  -0.560  53.624  1.00  0.00     0.117 A 
HETATM    6  C22 UNL     1      27.495  -0.472  53.061  1.00  0.00     0.126 A 
HETATM    7  N4  UNL     1      26.546  -1.495  53.184  1.00  0.00    -0.375 N 
HETATM    8  H20 UNL     1      26.644  -2.500  52.994  1.00  0.00     0.160 HD
HETATM    9  C21 UNL     1      28.746  -0.462  53.860  1.00  0.00     0.078 C 
HETATM   10  C20 UNL     1      29.374   0.870  53.997  1.00  0.00     0.116 C 
HETATM   11  N3  UNL     1      28.975   2.102  54.074  1.00  0.00    -0.165 NA
HETATM   12  N2  UNL     1      27.638   2.499  54.037  1.00  0.00    -0.132 NA
BRANCH   5  13
HETATM   13  C3  UNL     1      24.205  -0.782  53.979  1.00  0.00     0.310 C 
HETATM   14  O2  UNL     1      23.496  -1.081  54.943  1.00  0.00    -0.258 OA
BRANCH  13  15
HETATM   15  O1  UNL     1      23.114  -0.695  53.143  1.00  0.00    -0.317 OA
BRANCH  15  16
HETATM   16  C2  UNL     1      22.249   0.438  53.098  1.00  0.00     0.175 C 
HETATM   17  C1  UNL     1      21.974   0.699  51.630  1.00  0.00     0.034 C 
ENDBRANCH  15  16
ENDBRANCH  13  15
ENDBRANCH   5  13
ENDBRANCH   1   3
BRANCH   1  18
HETATM   18  C7  UNL     1      24.705   3.105  52.745  1.00  0.00     0.035 A 
HETATM   19  C8  UNL     1      25.133   2.737  51.477  1.00  0.00     0.032 A 
HETATM   20  C9  UNL     1      24.581   3.162  50.288  1.00  0.00     0.041 A 
HETATM   21  C10 UNL     1      23.510   4.029  50.354  1.00  0.00     0.091 A 
HETATM   22  C18 UNL     1      23.036   4.433  51.582  1.00  0.00     0.069 A 
HETATM   23 CL1  UNL     1      21.677   5.533  51.673  1.00  0.00    -0.081 Cl
HETATM   24  C19 UNL     1      23.636   3.969  52.728  1.00  0.00     0.056 A 
BRANCH  21  25
HETATM   25  O3  UNL     1      22.885   4.516  49.228  1.00  0.00    -0.345 OA
BRANCH  25  26
HETATM   26  C11 UNL     1      23.566   5.270  48.213  1.00  0.00     0.214 C 
BRANCH  26  27
HETATM   27  C12 UNL     1      24.359   6.369  48.843  1.00  0.00    -0.031 A 
HETATM   28  C13 UNL     1      23.855   7.421  49.583  1.00  0.00     0.009 A 
HETATM   29  C14 UNL     1      24.718   8.374  50.109  1.00  0.00     0.004 A 
HETATM   30  C15 UNL     1      26.085   8.325  49.928  1.00  0.00     0.042 A 
HETATM   31  C16 UNL     1      26.614   7.273  49.185  1.00  0.00     0.117 A 
HETATM   32  F1  UNL     1      27.945   7.188  48.984  1.00  0.00    -0.206 F 
HETATM   33  C17 UNL     1      25.733   6.344  48.677  1.00  0.00     0.051 A 
ENDBRANCH  26  27
ENDBRANCH  25  26
ENDBRANCH  21  25
ENDBRANCH   1  18
TORSDOF 8
ENDMDL
MODEL 2
REMARK VINA RESULT:      -8.3      3.201      4.490
REMARK  8 active torsions:
REMARK  status: ('A' for Active; 'I' for Inactive)
REMARK    1  A    between atoms: C2_2  and  O1_3 
REMARK    2  A    between atoms: O1_3  and  C3_4 
REMARK    3  A    between atoms: C3_4  and  C4_6 
REMARK    4  A    between atoms: C6_8  and  N1_9 
REMARK    5  A    between atoms: N1_9  and  C7_10 
REMARK    6  A    between atoms: C10_13  and  O3_14 
REMARK    7  A    between atoms: O3_14  and  C11_15 
REMARK    8  A    between atoms: C11_15  and  C12_16 
ROOT
HETATM    1  N1  UNL     1      25.792   2.544  53.921  1.00  0.00    -0.339 N 
HETATM    2  H6  UNL     1      25.629   3.033  54.825  1.00  0.00     0.167 HD
ENDROOT
BRANCH   1   3
HETATM    3  C6  UNL     1      26.913   1.713  53.838  1.00  0.00     0.161 C 
HETATM    4  C5  UNL     1      26.709   0.290  53.621  1.00  0.00     0.045 A 
HETATM    5  C4  UNL     1      25.786  -0.620  53.743  1.00  0.00     0.117 A 
HETATM    6  C22 UNL     1      27.673  -0.666  53.094  1.00  0.00     0.126 A 
HETATM    7  N4  UNL     1      26.670  -1.624  53.289  1.00  0.00    -0.375 N 
HETATM    8  H20 UNL     1      26.697  -2.638  53.123  1.00  0.00     0.160 HD
HETATM    9  C21 UNL     1      28.958  -0.713  53.837  1.00  0.00     0.078 C 
HETATM   10  C20 UNL     1      29.671   0.579  53.908  1.00  0.00     0.116 C 
HETATM   11  N3  UNL     1      29.353   1.836  53.967  1.00  0.00    -0.165 NA
HETATM   12  N2  UNL     1      28.043   2.315  53.977  1.00  0.00    -0.132 NA
BRANCH   5  13
HETATM   13  C3  UNL     1      24.416  -0.746  54.165  1.00  0.00     0.310 C 
HETATM   14  O2  UNL     1      23.731  -1.179  55.095  1.00  0.00    -0.258 OA
BRANCH  13  15
HETATM   15  O1  UNL     1      23.300  -0.322  53.478  1.00  0.00    -0.317 OA
BRANCH  15  16
HETATM   16  C2  UNL     1      21.975  -0.744  53.799  1.00  0.00     0.175 C 
HETATM   17  C1  UNL     1      21.109   0.497  53.717  1.00  0.00     0.034 C 
ENDBRANCH  15  16
ENDBRANCH  13  15
ENDBRANCH   5  13
ENDBRANCH   1   3
BRANCH   1  18
HETATM   18  C7  UNL     1      24.869   2.756  52.862  1.00  0.00     0.035 A 
HETATM   19  C8  UNL     1      25.283   2.560  51.552  1.00  0.00     0.032 A 
HETATM   20  C9  UNL     1      24.503   2.737  50.428  1.00  0.00     0.041 A 
HETATM   21  C10 UNL     1      23.198   3.143  50.613  1.00  0.00     0.091 A 
HETATM   22  C18 UNL     1      22.725   3.355  51.889  1.00  0.00     0.069 A 
HETATM   23 CL1  UNL     1      21.069   3.870  52.131  1.00  0.00    -0.081 Cl
HETATM   24  C19 UNL     1      23.559   3.159  52.964  1.00  0.00     0.056 A 
BRANCH  21  25
HETATM   25  O3  UNL     1      22.334   3.351  49.561  1.00  0.00    -0.345 OA
BRANCH  25  26
HETATM   26  C11 UNL     1      21.795   2.285  48.764  1.00  0.00     0.214 C 
BRANCH  26  27
HETATM   27  C12 UNL     1      20.392   1.991  49.188  1.00  0.00    -0.031 A 
HETATM   28  C13 UNL     1      19.256   2.656  48.770  1.00  0.00     0.009 A 
HETATM   29  C14 UNL     1      18.011   2.271  49.251  1.00  0.00     0.004 A 
HETATM   30  C15 UNL     1      17.845   1.234  50.146  1.00  0.00     0.042 A 
HETATM   31  C16 UNL     1      18.978   0.550  50.580  1.00  0.00     0.117 A 
HETATM   32  F1  UNL     1      18.859  -0.471  51.455  1.00  0.00    -0.206 F 
HETATM   33  C17 UNL     1      20.197   0.955  50.084  1.00  0.00     0.051 A 
ENDBRANCH  26  27
ENDBRANCH  25  26
ENDBRANCH  21  25
ENDBRANCH   1  18
TORSDOF 8
ENDMDL
MODEL 3
REMARK VINA RESULT:      -8.1      4.758      8.917
REMARK  8 active torsions:
REMARK  status: ('A' for Active; 'I' for Inactive)
REMARK    1  A    between atoms: C2_2  and  O1_3 
REMARK    2  A    between atoms: O1_3  and  C3_4 
REMARK    3  A    between atoms: C3_4  and  C4_6 
REMARK    4  A    between atoms: C6_8  and  N1_9 
REMARK    5  A    between atoms: N1_9  and  C7_10 
REMARK    6  A    between atoms: C10_13  and  O3_14 
REMARK    7  A    between atoms: O3_14  and  C11_15 
REMARK    8  A    between atoms: C11_15  and  C12_16 
ROOT
HETATM    1  N1  UNL     1      27.929   7.117  47.695  1.00  0.00    -0.339 N 
HETATM    2  H6  UNL     1      27.490   7.530  46.847  1.00  0.00     0.167 HD
ENDROOT
BRANCH   1   3
HETATM    3  C6  UNL     1      29.291   7.360  47.893  1.00  0.00     0.161 C 
HETATM    4  C5  UNL     1      29.683   8.430  48.794  1.00  0.00     0.045 A 
HETATM    5  C4  UNL     1      29.200   9.511  49.336  1.00  0.00     0.117 A 
HETATM    6  C22 UNL     1      30.966   8.590  49.465  1.00  0.00     0.126 A 
HETATM    7  N4  UNL     1      30.427   9.773  49.987  1.00  0.00    -0.375 N 
HETATM    8  H20 UNL     1      30.865  10.473  50.598  1.00  0.00     0.160 HD
HETATM    9  C21 UNL     1      32.137   8.597  48.553  1.00  0.00     0.078 C 
HETATM   10  C20 UNL     1      32.269   7.386  47.715  1.00  0.00     0.116 C 
HETATM   11  N3  UNL     1      31.471   6.534  47.150  1.00  0.00    -0.165 NA
HETATM   12  N2  UNL     1      30.079   6.591  47.225  1.00  0.00    -0.132 NA
BRANCH   5  13
HETATM   13  C3  UNL     1      27.984  10.279  49.361  1.00  0.00     0.310 C 
HETATM   14  O2  UNL     1      26.758  10.141  49.354  1.00  0.00    -0.258 OA
BRANCH  13  15
HETATM   15  O1  UNL     1      27.876  11.651  49.406  1.00  0.00    -0.317 OA
BRANCH  15  16
HETATM   16  C2  UNL     1      28.632  12.524  48.567  1.00  0.00     0.175 C 
HETATM   17  C1  UNL     1      27.749  13.731  48.316  1.00  0.00     0.034 C 
ENDBRANCH  15  16
ENDBRANCH  13  15
ENDBRANCH   5  13
ENDBRANCH   1   3
BRANCH   1  18
HETATM   18  C7  UNL     1      27.113   6.353  48.574  1.00  0.00     0.035 A 
HETATM   19  C8  UNL     1      27.319   4.984  48.671  1.00  0.00     0.032 A 
HETATM   20  C9  UNL     1      26.601   4.119  49.469  1.00  0.00     0.041 A 
HETATM   21  C10 UNL     1      25.591   4.652  50.242  1.00  0.00     0.091 A 
HETATM   22  C18 UNL     1      25.336   6.004  50.192  1.00  0.00     0.069 A 
HETATM   23 CL1  UNL     1      24.054   6.687  51.170  1.00  0.00    -0.081 Cl
HETATM   24  C19 UNL     1      26.092   6.808  49.371  1.00  0.00     0.056 A 
BRANCH  21  25
HETATM   25  O3  UNL     1      24.812   3.878  51.074  1.00  0.00    -0.345 OA
BRANCH  25  26
HETATM   26  C11 UNL     1      24.214   2.639  50.665  1.00  0.00     0.214 C 
BRANCH  26  27
HETATM   27  C12 UNL     1      24.532   1.567  51.656  1.00  0.00    -0.031 A 
HETATM   28  C13 UNL     1      23.649   0.988  52.545  1.00  0.00     0.009 A 
HETATM   29  C14 UNL     1      24.089  -0.003  53.414  1.00  0.00     0.004 A 
HETATM   30  C15 UNL     1      25.394  -0.451  53.436  1.00  0.00     0.042 A 
HETATM   31  C16 UNL     1      26.301   0.120  52.546  1.00  0.00     0.117 A 
HETATM   32  F1  UNL     1      27.587  -0.289  52.535  1.00  0.00    -0.206 F 
HETATM   33  C17 UNL     1      25.834   1.100  51.698  1.00  0.00     0.051 A 
ENDBRANCH  26  27
ENDBRANCH  25  26
ENDBRANCH  21  25
ENDBRANCH   1  18
TORSDOF 8
ENDMDL
MODEL 4
REMARK VINA RESULT:      -8.1      2.245      2.874
REMARK  8 active torsions:
REMARK  status: ('A' for Active; 'I' for Inactive)
REMARK    1  A    between atoms: C2_2  and  O1_3 
REMARK    2  A    between atoms: O1_3  and  C3_4 
REMARK    3  A    between atoms: C3_4  and  C4_6 
REMARK    4  A    between atoms: C6_8  and  N1_9 
REMARK    5  A    between atoms: N1_9  and  C7_10 
REMARK    6  A    between atoms: C10_13  and  O3_14 
REMARK    7  A    between atoms: O3_14  and  C11_15 
REMARK    8  A    between atoms: C11_15  and  C12_16 
ROOT
HETATM    1  N1  UNL     1      25.639   2.123  51.246  1.00  0.00    -0.339 N 
HETATM    2  H6  UNL     1      24.854   1.487  50.998  1.00  0.00     0.167 HD
ENDROOT
BRANCH   1   3
HETATM    3  C6  UNL     1      26.567   1.658  52.183  1.00  0.00     0.161 C 
HETATM    4  C5  UNL     1      26.233   0.480  52.966  1.00  0.00     0.045 A 
HETATM    5  C4  UNL     1      25.198  -0.215  53.338  1.00  0.00     0.117 A 
HETATM    6  C22 UNL     1      27.158  -0.406  53.659  1.00  0.00     0.126 A 
HETATM    7  N4  UNL     1      26.015  -1.097  54.080  1.00  0.00    -0.375 N 
HETATM    8  H20 UNL     1      25.940  -1.917  54.695  1.00  0.00     0.160 HD
HETATM    9  C21 UNL     1      28.059   0.279  54.619  1.00  0.00     0.078 C 
HETATM   10  C20 UNL     1      28.893   1.345  54.024  1.00  0.00     0.116 C 
HETATM   11  N3  UNL     1      28.779   2.214  53.068  1.00  0.00    -0.165 NA
HETATM   12  N2  UNL     1      27.648   2.352  52.262  1.00  0.00    -0.132 NA
BRANCH   5  13
HETATM   13  C3  UNL     1      23.767  -0.223  53.186  1.00  0.00     0.310 C 
HETATM   14  O2  UNL     1      22.756  -0.780  53.622  1.00  0.00    -0.258 OA
BRANCH  13  15
HETATM   15  O1  UNL     1      23.025   0.559  52.328  1.00  0.00    -0.317 OA
BRANCH  15  16
HETATM   16  C2  UNL     1      21.725   0.197  51.865  1.00  0.00     0.175 C 
HETATM   17  C1  UNL     1      21.588   0.807  50.484  1.00  0.00     0.034 C 
ENDBRANCH  15  16
ENDBRANCH  13  15
ENDBRANCH   5  13
ENDBRANCH   1   3
BRANCH   1  18
HETATM   18  C7  UNL     1      25.704   3.395  50.613  1.00  0.00     0.035 A 
HETATM   19  C8  UNL     1      26.625   3.600  49.595  1.00  0.00     0.032 A 
HETATM   20  C9  UNL     1      26.807   4.778  48.903  1.00  0.00     0.041 A 
HETATM   21  C10 UNL     1      26.008   5.850  49.244  1.00  0.00     0.091 A 
HETATM   22  C18 UNL     1      25.074   5.711  50.246  1.00  0.00     0.069 A 
HETATM   23 CL1  UNL     1      24.057   7.068  50.683  1.00  0.00    -0.081 Cl
HETATM   24  C19 UNL     1      24.948   4.506  50.895  1.00  0.00     0.056 A 
BRANCH  21  25
HETATM   25  O3  UNL     1      26.107   7.072  48.616  1.00  0.00    -0.345 OA
BRANCH  25  26
HETATM   26  C11 UNL     1      27.071   7.354  47.591  1.00  0.00     0.214 C 
BRANCH  26  27
HETATM   27  C12 UNL     1      28.319   7.904  48.203  1.00  0.00    -0.031 A 
HETATM   28  C13 UNL     1      28.432   9.085  48.908  1.00  0.00     0.009 A 
HETATM   29  C14 UNL     1      29.664   9.471  49.422  1.00  0.00     0.004 A 
HETATM   30  C15 UNL     1      30.808   8.717  49.263  1.00  0.00     0.042 A 
HETATM   31  C16 UNL     1      30.716   7.521  48.555  1.00  0.00     0.117 A 
HETATM   32  F1  UNL     1      31.812   6.754  48.376  1.00  0.00    -0.206 F 
HETATM   33  C17 UNL     1      29.482   7.166  48.058  1.00  0.00     0.051 A 
ENDBRANCH  26  27
ENDBRANCH  25  26
ENDBRANCH  21  25
ENDBRANCH   1  18
TORSDOF 8
ENDMDL
MODEL 5
REMARK VINA RESULT:      -8.0      4.740      8.452
REMARK  8 active torsions:
REMARK  status: ('A' for Active; 'I' for Inactive)
REMARK    1  A    between atoms: C2_2  and  O1_3 
REMARK    2  A    between atoms: O1_3  and  C3_4 
REMARK    3  A    between atoms: C3_4  and  C4_6 
REMARK    4  A    between atoms: C6_8  and  N1_9 
REMARK    5  A    between atoms: N1_9  and  C7_10 
REMARK    6  A    between atoms: C10_13  and  O3_14 
REMARK    7  A    between atoms: O3_14  and  C11_15 
REMARK    8  A    between atoms: C11_15  and  C12_16 
ROOT
HETATM    1  N1  UNL     1      28.430   6.145  47.840  1.00  0.00    -0.339 N 
HETATM    2  H6  UNL     1      28.183   6.581  46.928  1.00  0.00     0.167 HD
ENDROOT
BRANCH   1   3
HETATM    3  C6  UNL     1      29.786   6.090  48.176  1.00  0.00     0.161 C 
HETATM    4  C5  UNL     1      30.386   7.237  48.837  1.00  0.00     0.045 A 
HETATM    5  C4  UNL     1      30.180   8.509  49.019  1.00  0.00     0.117 A 
HETATM    6  C22 UNL     1      31.604   7.254  49.635  1.00  0.00     0.126 A 
HETATM    7  N4  UNL     1      31.374   8.630  49.764  1.00  0.00    -0.375 N 
HETATM    8  H20 UNL     1      31.939   9.342  50.245  1.00  0.00     0.160 HD
HETATM    9  C21 UNL     1      32.801   6.721  48.937  1.00  0.00     0.078 C 
HETATM   10  C20 UNL     1      32.658   5.332  48.451  1.00  0.00     0.116 C 
HETATM   11  N3  UNL     1      31.703   4.580  47.996  1.00  0.00    -0.165 NA
HETATM   12  N2  UNL     1      30.380   4.997  47.843  1.00  0.00    -0.132 NA
BRANCH   5  13
HETATM   13  C3  UNL     1      29.226   9.529  48.671  1.00  0.00     0.310 C 
HETATM   14  O2  UNL     1      29.031  10.742  48.782  1.00  0.00    -0.258 OA
BRANCH  13  15
HETATM   15  O1  UNL     1      28.048   9.354  47.980  1.00  0.00    -0.317 OA
BRANCH  15  16
HETATM   16  C2  UNL     1      27.962   9.388  46.556  1.00  0.00     0.175 C 
HETATM   17  C1  UNL     1      26.636   8.745  46.201  1.00  0.00     0.034 C 
ENDBRANCH  15  16
ENDBRANCH  13  15
ENDBRANCH   5  13
ENDBRANCH   1   3
BRANCH   1  18
HETATM   18  C7  UNL     1      27.379   5.653  48.660  1.00  0.00     0.035 A 
HETATM   19  C8  UNL     1      27.290   4.289  48.903  1.00  0.00     0.032 A 
HETATM   20  C9  UNL     1      26.322   3.671  49.666  1.00  0.00     0.041 A 
HETATM   21  C10 UNL     1      25.356   4.469  50.242  1.00  0.00     0.091 A 
HETATM   22  C18 UNL     1      25.388   5.831  50.040  1.00  0.00     0.069 A 
HETATM   23 CL1  UNL     1      24.164   6.849  50.768  1.00  0.00    -0.081 Cl
HETATM   24  C19 UNL     1      26.383   6.379  49.266  1.00  0.00     0.056 A 
BRANCH  21  25
HETATM   25  O3  UNL     1      24.344   3.955  51.022  1.00  0.00    -0.345 OA
BRANCH  25  26
HETATM   26  C11 UNL     1      23.515   2.857  50.613  1.00  0.00     0.214 C 
BRANCH  26  27
HETATM   27  C12 UNL     1      23.635   1.735  51.592  1.00  0.00    -0.031 A 
HETATM   28  C13 UNL     1      24.778   1.359  52.269  1.00  0.00     0.009 A 
HETATM   29  C14 UNL     1      24.740   0.290  53.154  1.00  0.00     0.004 A 
HETATM   30  C15 UNL     1      23.592  -0.436  53.400  1.00  0.00     0.042 A 
HETATM   31  C16 UNL     1      22.428  -0.073  52.728  1.00  0.00     0.117 A 
HETATM   32  F1  UNL     1      21.283  -0.757  52.940  1.00  0.00    -0.206 F 
HETATM   33  C17 UNL     1      22.498   0.992  51.857  1.00  0.00     0.051 A 
ENDBRANCH  26  27
ENDBRANCH  25  26
ENDBRANCH  21  25
ENDBRANCH   1  18
TORSDOF 8
ENDMDL
MODEL 6
REMARK VINA RESULT:      -7.9      5.234      8.795
REMARK  8 active torsions:
REMARK  status: ('A' for Active; 'I' for Inactive)
REMARK    1  A    between atoms: C2_2  and  O1_3 
REMARK    2  A    between atoms: O1_3  and  C3_4 
REMARK    3  A    between atoms: C3_4  and  C4_6 
REMARK    4  A    between atoms: C6_8  and  N1_9 
REMARK    5  A    between atoms: N1_9  and  C7_10 
REMARK    6  A    between atoms: C10_13  and  O3_14 
REMARK    7  A    between atoms: O3_14  and  C11_15 
REMARK    8  A    between atoms: C11_15  and  C12_16 
ROOT
HETATM    1  N1  UNL     1      28.163   7.046  47.635  1.00  0.00    -0.339 N 
HETATM    2  H6  UNL     1      28.356   6.662  46.688  1.00  0.00     0.167 HD
ENDROOT
BRANCH   1   3
HETATM    3  C6  UNL     1      28.760   8.267  47.963  1.00  0.00     0.161 C 
HETATM    4  C5  UNL     1      30.164   8.276  48.337  1.00  0.00     0.045 A 
HETATM    5  C4  UNL     1      31.091   7.472  48.770  1.00  0.00     0.117 A 
HETATM    6  C22 UNL     1      31.075   9.412  48.303  1.00  0.00     0.126 A 
HETATM    7  N4  UNL     1      32.031   8.526  48.817  1.00  0.00    -0.375 N 
HETATM    8  H20 UNL     1      33.007   8.704  49.084  1.00  0.00     0.160 HD
HETATM    9  C21 UNL     1      30.610  10.594  49.071  1.00  0.00     0.078 C 
HETATM   10  C20 UNL     1      29.295  11.121  48.646  1.00  0.00     0.116 C 
HETATM   11  N3  UNL     1      28.191  10.638  48.167  1.00  0.00    -0.165 NA
HETATM   12  N2  UNL     1      27.973   9.284  47.906  1.00  0.00    -0.132 NA
BRANCH   5  13
HETATM   13  C3  UNL     1      31.267   6.089  49.128  1.00  0.00     0.310 C 
HETATM   14  O2  UNL     1      31.591   5.376  50.081  1.00  0.00    -0.258 OA
BRANCH  13  15
HETATM   15  O1  UNL     1      31.073   4.996  48.313  1.00  0.00    -0.317 OA
BRANCH  15  16
HETATM   16  C2  UNL     1      32.143   4.264  47.717  1.00  0.00     0.175 C 
HETATM   17  C1  UNL     1      32.493   4.999  46.439  1.00  0.00     0.034 C 
ENDBRANCH  15  16
ENDBRANCH  13  15
ENDBRANCH   5  13
ENDBRANCH   1   3
BRANCH   1  18
HETATM   18  C7  UNL     1      27.316   6.306  48.504  1.00  0.00     0.035 A 
HETATM   19  C8  UNL     1      27.507   4.938  48.637  1.00  0.00     0.032 A 
HETATM   20  C9  UNL     1      26.759   4.096  49.431  1.00  0.00     0.041 A 
HETATM   21  C10 UNL     1      25.730   4.652  50.161  1.00  0.00     0.091 A 
HETATM   22  C18 UNL     1      25.487   6.005  50.074  1.00  0.00     0.069 A 
HETATM   23 CL1  UNL     1      24.182   6.718  50.998  1.00  0.00    -0.081 Cl
HETATM   24  C19 UNL     1      26.274   6.786  49.260  1.00  0.00     0.056 A 
BRANCH  21  25
HETATM   25  O3  UNL     1      24.920   3.903  50.986  1.00  0.00    -0.345 OA
BRANCH  25  26
HETATM   26  C11 UNL     1      24.442   2.594  50.640  1.00  0.00     0.214 C 
BRANCH  26  27
HETATM   27  C12 UNL     1      25.028   1.577  51.564  1.00  0.00    -0.031 A 
HETATM   28  C13 UNL     1      26.353   1.192  51.623  1.00  0.00     0.009 A 
HETATM   29  C14 UNL     1      26.755   0.228  52.538  1.00  0.00     0.004 A 
HETATM   30  C15 UNL     1      25.881  -0.380  53.416  1.00  0.00     0.042 A 
HETATM   31  C16 UNL     1      24.540  -0.005  53.374  1.00  0.00     0.117 A 
HETATM   32  F1  UNL     1      23.651  -0.575  54.215  1.00  0.00    -0.206 F 
HETATM   33  C17 UNL     1      24.172   0.953  52.455  1.00  0.00     0.051 A 
ENDBRANCH  26  27
ENDBRANCH  25  26
ENDBRANCH  21  25
ENDBRANCH   1  18
TORSDOF 8
ENDMDL
MODEL 7
REMARK VINA RESULT:      -7.7      4.410      8.601
REMARK  8 active torsions:
REMARK  status: ('A' for Active; 'I' for Inactive)
REMARK    1  A    between atoms: C2_2  and  O1_3 
REMARK    2  A    between atoms: O1_3  and  C3_4 
REMARK    3  A    between atoms: C3_4  and  C4_6 
REMARK    4  A    between atoms: C6_8  and  N1_9 
REMARK    5  A    between atoms: N1_9  and  C7_10 
REMARK    6  A    between atoms: C10_13  and  O3_14 
REMARK    7  A    between atoms: O3_14  and  C11_15 
REMARK    8  A    between atoms: C11_15  and  C12_16 
ROOT
HETATM    1  N1  UNL     1      27.600   6.816  47.792  1.00  0.00    -0.339 N 
HETATM    2  H6  UNL     1      27.179   7.028  46.864  1.00  0.00     0.167 HD
ENDROOT
BRANCH   1   3
HETATM    3  C6  UNL     1      28.875   7.329  48.047  1.00  0.00     0.161 C 
HETATM    4  C5  UNL     1      28.987   8.610  48.724  1.00  0.00     0.045 A 
HETATM    5  C4  UNL     1      28.282   9.675  48.974  1.00  0.00     0.117 A 
HETATM    6  C22 UNL     1      30.140   9.124  49.450  1.00  0.00     0.126 A 
HETATM    7  N4  UNL     1      29.366  10.274  49.654  1.00  0.00    -0.375 N 
HETATM    8  H20 UNL     1      29.615  11.149  50.133  1.00  0.00     0.160 HD
HETATM    9  C21 UNL     1      31.397   9.154  48.661  1.00  0.00     0.078 C 
HETATM   10  C20 UNL     1      31.813   7.842  48.122  1.00  0.00     0.116 C 
HETATM   11  N3  UNL     1      31.230   6.767  47.690  1.00  0.00    -0.165 NA
HETATM   12  N2  UNL     1      29.846   6.593  47.632  1.00  0.00    -0.132 NA
BRANCH   5  13
HETATM   13  C3  UNL     1      26.968  10.207  48.728  1.00  0.00     0.310 C 
HETATM   14  O2  UNL     1      26.314  11.247  48.840  1.00  0.00    -0.258 OA
BRANCH  13  15
HETATM   15  O1  UNL     1      25.893   9.533  48.192  1.00  0.00    -0.317 OA
BRANCH  15  16
HETATM   16  C2  UNL     1      25.175   9.988  47.046  1.00  0.00     0.175 C 
HETATM   17  C1  UNL     1      25.619   9.107  45.895  1.00  0.00     0.034 C 
ENDBRANCH  15  16
ENDBRANCH  13  15
ENDBRANCH   5  13
ENDBRANCH   1   3
BRANCH   1  18
HETATM   18  C7  UNL     1      26.849   6.036  48.712  1.00  0.00     0.035 A 
HETATM   19  C8  UNL     1      27.116   4.678  48.827  1.00  0.00     0.032 A 
HETATM   20  C9  UNL     1      26.465   3.800  49.666  1.00  0.00     0.041 A 
HETATM   21  C10 UNL     1      25.460   4.305  50.465  1.00  0.00     0.091 A 
HETATM   22  C18 UNL     1      25.146   5.644  50.399  1.00  0.00     0.069 A 
HETATM   23 CL1  UNL     1      23.871   6.292  51.410  1.00  0.00    -0.081 Cl
HETATM   24  C19 UNL     1      25.838   6.463  49.538  1.00  0.00     0.056 A 
BRANCH  21  25
HETATM   25  O3  UNL     1      24.745   3.516  51.338  1.00  0.00    -0.345 OA
BRANCH  25  26
HETATM   26  C11 UNL     1      24.211   2.232  50.981  1.00  0.00     0.214 C 
BRANCH  26  27
HETATM   27  C12 UNL     1      24.662   1.201  51.965  1.00  0.00    -0.031 A 
HETATM   28  C13 UNL     1      23.883   0.597  52.932  1.00  0.00     0.009 A 
HETATM   29  C14 UNL     1      24.442  -0.349  53.782  1.00  0.00     0.004 A 
HETATM   30  C15 UNL     1      25.767  -0.727  53.710  1.00  0.00     0.042 A 
HETATM   31  C16 UNL     1      26.571  -0.130  52.741  1.00  0.00     0.117 A 
HETATM   32  F1  UNL     1      27.872  -0.471  52.638  1.00  0.00    -0.206 F 
HETATM   33  C17 UNL     1      25.987   0.804  51.914  1.00  0.00     0.051 A 
ENDBRANCH  26  27
ENDBRANCH  25  26
ENDBRANCH  21  25
ENDBRANCH   1  18
TORSDOF 8
ENDMDL
MODEL 8
REMARK VINA RESULT:      -7.6      2.274      4.005
REMARK  8 active torsions:
REMARK  status: ('A' for Active; 'I' for Inactive)
REMARK    1  A    between atoms: C2_2  and  O1_3 
REMARK    2  A    between atoms: O1_3  and  C3_4 
REMARK    3  A    between atoms: C3_4  and  C4_6 
REMARK    4  A    between atoms: C6_8  and  N1_9 
REMARK    5  A    between atoms: N1_9  and  C7_10 
REMARK    6  A    between atoms: C10_13  and  O3_14 
REMARK    7  A    between atoms: O3_14  and  C11_15 
REMARK    8  A    between atoms: C11_15  and  C12_16 
ROOT
HETATM    1  N1  UNL     1      24.221   0.994  51.759  1.00  0.00    -0.339 N 
HETATM    2  H6  UNL     1      25.017   0.490  51.318  1.00  0.00     0.167 HD
ENDROOT
BRANCH   1   3
HETATM    3  C6  UNL     1      23.471   0.297  52.711  1.00  0.00     0.161 C 
HETATM    4  C5  UNL     1      24.169  -0.338  53.816  1.00  0.00     0.045 A 
HETATM    5  C4  UNL     1      25.357  -0.758  54.142  1.00  0.00     0.117 A 
HETATM    6  C22 UNL     1      23.606  -0.732  55.101  1.00  0.00     0.126 A 
HETATM    7  N4  UNL     1      24.888  -1.218  55.393  1.00  0.00    -0.375 N 
HETATM    8  H20 UNL     1      25.224  -1.703  56.234  1.00  0.00     0.160 HD
HETATM    9  C21 UNL     1      22.430  -1.633  55.004  1.00  0.00     0.078 C 
HETATM   10  C20 UNL     1      21.301  -1.084  54.223  1.00  0.00     0.116 C 
HETATM   11  N3  UNL     1      21.149  -0.303  53.198  1.00  0.00    -0.165 NA
HETATM   12  N2  UNL     1      22.202   0.284  52.494  1.00  0.00    -0.132 NA
BRANCH   5  13
HETATM   13  C3  UNL     1      26.685  -0.833  53.593  1.00  0.00     0.310 C 
HETATM   14  O2  UNL     1      27.635  -1.611  53.476  1.00  0.00    -0.258 OA
BRANCH  13  15
HETATM   15  O1  UNL     1      27.357   0.164  52.922  1.00  0.00    -0.317 OA
BRANCH  15  16
HETATM   16  C2  UNL     1      28.519   0.811  53.441  1.00  0.00     0.175 C 
HETATM   17  C1  UNL     1      28.233   2.299  53.377  1.00  0.00     0.034 C 
ENDBRANCH  15  16
ENDBRANCH  13  15
ENDBRANCH   5  13
ENDBRANCH   1   3
BRANCH   1  18
HETATM   18  C7  UNL     1      23.969   2.336  51.363  1.00  0.00     0.035 A 
HETATM   19  C8  UNL     1      24.091   3.354  52.299  1.00  0.00     0.032 A 
HETATM   20  C9  UNL     1      23.869   4.693  52.062  1.00  0.00     0.041 A 
HETATM   21  C10 UNL     1      23.493   5.064  50.787  1.00  0.00     0.091 A 
HETATM   22  C18 UNL     1      23.355   4.101  49.812  1.00  0.00     0.069 A 
HETATM   23 CL1  UNL     1      22.879   4.564  48.192  1.00  0.00    -0.081 Cl
HETATM   24  C19 UNL     1      23.592   2.783  50.120  1.00  0.00     0.056 A 
BRANCH  21  25
HETATM   25  O3  UNL     1      23.246   6.374  50.442  1.00  0.00    -0.345 OA
BRANCH  25  26
HETATM   26  C11 UNL     1      24.068   7.469  50.873  1.00  0.00     0.214 C 
BRANCH  26  27
HETATM   27  C12 UNL     1      25.327   7.510  50.069  1.00  0.00    -0.031 A 
HETATM   28  C13 UNL     1      25.720   6.588  49.119  1.00  0.00     0.009 A 
HETATM   29  C14 UNL     1      26.924   6.755  48.447  1.00  0.00     0.004 A 
HETATM   30  C15 UNL     1      27.768   7.821  48.682  1.00  0.00     0.042 A 
HETATM   31  C16 UNL     1      27.390   8.764  49.635  1.00  0.00     0.117 A 
HETATM   32  F1  UNL     1      28.187   9.821  49.895  1.00  0.00    -0.206 F 
HETATM   33  C17 UNL     1      26.191   8.569  50.284  1.00  0.00     0.051 A 
ENDBRANCH  26  27
ENDBRANCH  25  26
ENDBRANCH  21  25
ENDBRANCH   1  18
TORSDOF 8
ENDMDL
MODEL 9
REMARK VINA RESULT:      -7.5      5.137      8.787
REMARK  8 active torsions:
REMARK  status: ('A' for Active; 'I' for Inactive)
REMARK    1  A    between atoms: C2_2  and  O1_3 
REMARK    2  A    between atoms: O1_3  and  C3_4 
REMARK    3  A    between atoms: C3_4  and  C4_6 
REMARK    4  A    between atoms: C6_8  and  N1_9 
REMARK    5  A    between atoms: N1_9  and  C7_10 
REMARK    6  A    between atoms: C10_13  and  O3_14 
REMARK    7  A    between atoms: O3_14  and  C11_15 
REMARK    8  A    between atoms: C11_15  and  C12_16 
ROOT
HETATM    1  N1  UNL     1      18.269   0.717  50.642  1.00  0.00    -0.339 N 
HETATM    2  H6  UNL     1      18.128   0.296  49.701  1.00  0.00     0.167 HD
ENDROOT
BRANCH   1   3
HETATM    3  C6  UNL     1      17.153   1.288  51.260  1.00  0.00     0.161 C 
HETATM    4  C5  UNL     1      16.993   2.732  51.210  1.00  0.00     0.045 A 
HETATM    5  C4  UNL     1      17.693   3.810  51.010  1.00  0.00     0.117 A 
HETATM    6  C22 UNL     1      15.761   3.487  51.392  1.00  0.00     0.126 A 
HETATM    7  N4  UNL     1      16.560   4.626  51.223  1.00  0.00    -0.375 N 
HETATM    8  H20 UNL     1      16.295   5.618  51.263  1.00  0.00     0.160 HD
HETATM    9  C21 UNL     1      15.054   3.207  52.667  1.00  0.00     0.078 C 
HETATM   10  C20 UNL     1      14.689   1.788  52.866  1.00  0.00     0.116 C 
HETATM   11  N3  UNL     1      15.181   0.630  52.551  1.00  0.00    -0.165 NA
HETATM   12  N2  UNL     1      16.365   0.448  51.835  1.00  0.00    -0.132 NA
BRANCH   5  13
HETATM   13  C3  UNL     1      19.046   4.204  50.716  1.00  0.00     0.310 C 
HETATM   14  O2  UNL     1      19.743   4.642  49.797  1.00  0.00    -0.258 OA
BRANCH  13  15
HETATM   15  O1  UNL     1      20.118   4.180  51.581  1.00  0.00    -0.317 OA
BRANCH  15  16
HETATM   16  C2  UNL     1      21.380   4.775  51.281  1.00  0.00     0.175 C 
HETATM   17  C1  UNL     1      22.329   4.315  52.371  1.00  0.00     0.034 C 
ENDBRANCH  15  16
ENDBRANCH  13  15
ENDBRANCH   5  13
ENDBRANCH   1   3
BRANCH   1  18
HETATM   18  C7  UNL     1      19.569   0.671  51.214  1.00  0.00     0.035 A 
HETATM   19  C8  UNL     1      20.673   0.922  50.411  1.00  0.00     0.032 A 
HETATM   20  C9  UNL     1      21.988   0.902  50.824  1.00  0.00     0.041 A 
HETATM   21  C10 UNL     1      22.237   0.610  52.149  1.00  0.00     0.091 A 
HETATM   22  C18 UNL     1      21.185   0.352  52.999  1.00  0.00     0.069 A 
HETATM   23 CL1  UNL     1      21.495  -0.019  54.682  1.00  0.00    -0.081 Cl
HETATM   24  C19 UNL     1      19.898   0.389  52.517  1.00  0.00     0.056 A 
BRANCH  21  25
HETATM   25  O3  UNL     1      23.513   0.564  52.667  1.00  0.00    -0.345 OA
BRANCH  25  26
HETATM   26  C11 UNL     1      24.618   1.286  52.102  1.00  0.00     0.214 C 
BRANCH  26  27
HETATM   27  C12 UNL     1      25.907   0.669  52.540  1.00  0.00    -0.031 A 
HETATM   28  C13 UNL     1      26.990   1.333  53.080  1.00  0.00     0.009 A 
HETATM   29  C14 UNL     1      28.128   0.624  53.442  1.00  0.00     0.004 A 
HETATM   30  C15 UNL     1      28.237  -0.743  53.287  1.00  0.00     0.042 A 
HETATM   31  C16 UNL     1      27.155  -1.433  52.745  1.00  0.00     0.117 A 
HETATM   32  F1  UNL     1      27.220  -2.770  52.577  1.00  0.00    -0.206 F 
HETATM   33  C17 UNL     1      26.041  -0.701  52.396  1.00  0.00     0.051 A 
ENDBRANCH  26  27
ENDBRANCH  25  26
ENDBRANCH  21  25
ENDBRANCH   1  18
TORSDOF 8
ENDMDL
