MODEL 1
REMARK VINA RESULT:      -7.6      0.000      0.000
REMARK  7 active torsions:
REMARK  status: ('A' for Active; 'I' for Inactive)
REMARK    1  A    between atoms: C2_2  and  N1_4 
REMARK    2  A    between atoms: N1_4  and  C4_5 
REMARK    3  A    between atoms: N1_4  and  C18_26 
REMARK    4  A    between atoms: C4_5  and  C5_6 
REMARK    5  A    between atoms: C6_7  and  C7_8 
REMARK    6  A    between atoms: C11_15  and  N5_16 
REMARK    7  A    between atoms: N5_16  and  C12_17 
ROOT
HETATM    1  C7  UNL     1      23.044   4.187  51.930  1.00  0.00     0.294 A 
HETATM    2  N2  UNL     1      23.678   5.425  51.546  1.00  0.00    -0.260 NA
HETATM    3  C8  UNL     1      23.799   5.492  50.271  1.00  0.00     0.164 A 
HETATM    4  C9  UNL     1      23.274   4.324  49.578  1.00  0.00     0.149 A 
HETATM    5  N3  UNL     1      23.139   3.891  48.372  1.00  0.00    -0.223 NA
HETATM    6  C10 UNL     1      22.520   2.603  48.251  1.00  0.00     0.233 A 
HETATM    7  N4  UNL     1      22.092   1.849  49.204  1.00  0.00    -0.237 NA
HETATM    8  C11 UNL     1      22.189   2.224  50.601  1.00  0.00     0.319 A 
HETATM    9  N6  UNL     1      22.812   3.531  50.662  1.00  0.00    -0.290 N 
ENDROOT
BRANCH   1  10
HETATM   10  C6  UNL     1      24.024   3.415  52.725  1.00  0.00    -0.056 C 
HETATM   11  C5  UNL     1      24.831   2.804  53.371  1.00  0.00    -0.083 C 
BRANCH  11  12
HETATM   12  C4  UNL     1      25.830   2.076  54.145  1.00  0.00     0.212 C 
BRANCH  12  13
HETATM   13  N1  UNL     1      26.534   1.154  53.377  1.00  0.00    -0.395 N 
BRANCH  13  14
HETATM   14  C2  UNL     1      25.834   0.079  52.789  1.00  0.00     0.072 C 
HETATM   15  C1  UNL     1      26.746  -0.826  51.996  1.00  0.00     0.031 C 
HETATM   16  C3  UNL     1      24.937  -0.700  53.721  1.00  0.00     0.031 C 
ENDBRANCH  13  14
BRANCH  13  17
HETATM   17  C18 UNL     1      27.930   1.025  53.499  1.00  0.00     0.072 C 
HETATM   18  C19 UNL     1      28.603   2.368  53.536  1.00  0.00     0.031 C 
HETATM   19  C20 UNL     1      28.322   0.321  54.805  1.00  0.00     0.031 C 
ENDBRANCH  13  17
ENDBRANCH  12  13
ENDBRANCH  11  12
ENDBRANCH   1  10
BRANCH   8  20
HETATM   20  N5  UNL     1      20.928   2.116  51.239  1.00  0.00    -0.351 N 
HETATM   21  H14 UNL     1      20.291   2.973  51.210  1.00  0.00     0.163 HD
BRANCH  20  22
HETATM   22  C12 UNL     1      20.353   1.036  51.927  1.00  0.00     0.032 A 
HETATM   23  C13 UNL     1      19.058   0.594  51.760  1.00  0.00     0.032 A 
HETATM   24  C14 UNL     1      18.467  -0.464  52.415  1.00  0.00     0.046 A 
HETATM   25  C15 UNL     1      19.215  -1.161  53.325  1.00  0.00     0.138 A 
HETATM   26  F1  UNL     1      18.723  -2.213  54.016  1.00  0.00    -0.204 F 
HETATM   27  C16 UNL     1      20.517  -0.779  53.546  1.00  0.00     0.074 A 
HETATM   28 CL1  UNL     1      21.504  -1.646  54.703  1.00  0.00    -0.081 Cl
HETATM   29  C17 UNL     1      21.043   0.287  52.856  1.00  0.00     0.056 A 
ENDBRANCH  20  22
ENDBRANCH   8  20
TORSDOF 7
ENDMDL
MODEL 2
REMARK VINA RESULT:      -7.5      1.418      2.300
REMARK  7 active torsions:
REMARK  status: ('A' for Active; 'I' for Inactive)
REMARK    1  A    between atoms: C2_2  and  N1_4 
REMARK    2  A    between atoms: N1_4  and  C4_5 
REMARK    3  A    between atoms: N1_4  and  C18_26 
REMARK    4  A    between atoms: C4_5  and  C5_6 
REMARK    5  A    between atoms: C6_7  and  C7_8 
REMARK    6  A    between atoms: C11_15  and  N5_16 
REMARK    7  A    between atoms: N5_16  and  C12_17 
ROOT
HETATM    1  C7  UNL     1      23.891   3.942  50.934  1.00  0.00     0.294 A 
HETATM    2  N2  UNL     1      24.430   5.177  50.420  1.00  0.00    -0.260 NA
HETATM    3  C8  UNL     1      24.082   5.346  49.197  1.00  0.00     0.164 A 
HETATM    4  C9  UNL     1      23.257   4.265  48.677  1.00  0.00     0.149 A 
HETATM    5  N3  UNL     1      22.660   3.941  47.581  1.00  0.00    -0.223 NA
HETATM    6  C10 UNL     1      21.947   2.697  47.619  1.00  0.00     0.233 A 
HETATM    7  N4  UNL     1      21.843   1.887  48.615  1.00  0.00    -0.237 NA
HETATM    8  C11 UNL     1      22.470   2.138  49.897  1.00  0.00     0.319 A 
HETATM    9  N6  UNL     1      23.166   3.405  49.804  1.00  0.00    -0.290 N 
ENDROOT
BRANCH   1  10
HETATM   10  C6  UNL     1      25.034   3.063  51.262  1.00  0.00    -0.056 C 
HETATM   11  C5  UNL     1      25.960   2.339  51.511  1.00  0.00    -0.083 C 
BRANCH  11  12
HETATM   12  C4  UNL     1      27.070   1.440  51.804  1.00  0.00     0.212 C 
BRANCH  12  13
HETATM   13  N1  UNL     1      27.095   1.036  53.135  1.00  0.00    -0.395 N 
BRANCH  13  14
HETATM   14  C2  UNL     1      28.330   1.012  53.818  1.00  0.00     0.072 C 
HETATM   15  C1  UNL     1      29.255  -0.054  53.283  1.00  0.00     0.031 C 
HETATM   16  C3  UNL     1      29.025   2.346  53.953  1.00  0.00     0.031 C 
ENDBRANCH  13  14
BRANCH  13  17
HETATM   17  C18 UNL     1      26.040   0.285  53.684  1.00  0.00     0.072 C 
HETATM   18  C19 UNL     1      25.965  -1.084  53.070  1.00  0.00     0.031 C 
HETATM   19  C20 UNL     1      26.227   0.062  55.190  1.00  0.00     0.031 C 
ENDBRANCH  13  17
ENDBRANCH  12  13
ENDBRANCH  11  12
ENDBRANCH   1  10
BRANCH   8  20
HETATM   20  N5  UNL     1      21.523   2.034  50.948  1.00  0.00    -0.351 N 
HETATM   21  H14 UNL     1      20.790   2.807  51.022  1.00  0.00     0.163 HD
BRANCH  20  22
HETATM   22  C12 UNL     1      21.381   1.053  51.942  1.00  0.00     0.032 A 
HETATM   23  C13 UNL     1      22.388   0.631  52.783  1.00  0.00     0.032 A 
HETATM   24  C14 UNL     1      22.280  -0.325  53.770  1.00  0.00     0.046 A 
HETATM   25  C15 UNL     1      21.066  -0.930  53.953  1.00  0.00     0.138 A 
HETATM   26  F1  UNL     1      20.861  -1.878  54.894  1.00  0.00    -0.204 F 
HETATM   27  C16 UNL     1      20.012  -0.561  53.151  1.00  0.00     0.074 A 
HETATM   28 CL1  UNL     1      18.445  -1.313  53.356  1.00  0.00    -0.081 Cl
HETATM   29  C17 UNL     1      20.191   0.401  52.186  1.00  0.00     0.056 A 
ENDBRANCH  20  22
ENDBRANCH   8  20
TORSDOF 7
ENDMDL
MODEL 3
REMARK VINA RESULT:      -7.5      2.670      5.695
REMARK  7 active torsions:
REMARK  status: ('A' for Active; 'I' for Inactive)
REMARK    1  A    between atoms: C2_2  and  N1_4 
REMARK    2  A    between atoms: N1_4  and  C4_5 
REMARK    3  A    between atoms: N1_4  and  C18_26 
REMARK    4  A    between atoms: C4_5  and  C5_6 
REMARK    5  A    between atoms: C6_7  and  C7_8 
REMARK    6  A    between atoms: C11_15  and  N5_16 
REMARK    7  A    between atoms: N5_16  and  C12_17 
ROOT
HETATM    1  C7  UNL     1      24.573   0.740  52.358  1.00  0.00     0.294 A 
HETATM    2  N2  UNL     1      26.005   0.636  52.499  1.00  0.00    -0.260 NA
HETATM    3  C8  UNL     1      26.307  -0.042  53.544  1.00  0.00     0.164 A 
HETATM    4  C9  UNL     1      25.145  -0.510  54.286  1.00  0.00     0.149 A 
HETATM    5  N3  UNL     1      24.880  -1.196  55.345  1.00  0.00    -0.223 NA
HETATM    6  C10 UNL     1      23.486  -1.363  55.632  1.00  0.00     0.233 A 
HETATM    7  N4  UNL     1      22.488  -0.909  54.955  1.00  0.00    -0.237 NA
HETATM    8  C11 UNL     1      22.656  -0.121  53.749  1.00  0.00     0.319 A 
HETATM    9  N6  UNL     1      24.078   0.008  53.504  1.00  0.00    -0.290 N 
ENDROOT
BRANCH   1  10
HETATM   10  C6  UNL     1      24.218   2.170  52.483  1.00  0.00    -0.056 C 
HETATM   11  C5  UNL     1      23.915   3.329  52.574  1.00  0.00    -0.083 C 
BRANCH  11  12
HETATM   12  C4  UNL     1      23.538   4.735  52.659  1.00  0.00     0.212 C 
BRANCH  12  13
HETATM   13  N1  UNL     1      23.473   5.348  51.412  1.00  0.00    -0.395 N 
BRANCH  13  14
HETATM   14  C2  UNL     1      22.208   5.627  50.852  1.00  0.00     0.072 C 
HETATM   15  C1  UNL     1      21.160   4.636  51.296  1.00  0.00     0.031 C 
HETATM   16  C3  UNL     1      21.733   7.054  50.996  1.00  0.00     0.031 C 
ENDBRANCH  13  14
BRANCH  13  17
HETATM   17  C18 UNL     1      24.575   5.327  50.537  1.00  0.00     0.072 C 
HETATM   18  C19 UNL     1      24.162   4.938  49.146  1.00  0.00     0.031 C 
HETATM   19  C20 UNL     1      25.227   6.711  50.412  1.00  0.00     0.031 C 
ENDBRANCH  13  17
ENDBRANCH  12  13
ENDBRANCH  11  12
ENDBRANCH   1  10
BRANCH   8  20
HETATM   20  N5  UNL     1      21.897  -0.668  52.682  1.00  0.00    -0.351 N 
HETATM   21  H14 UNL     1      22.001  -1.715  52.497  1.00  0.00     0.163 HD
BRANCH  20  22
HETATM   22  C12 UNL     1      21.001  -0.046  51.799  1.00  0.00     0.032 A 
HETATM   23  C13 UNL     1      19.641   0.055  51.997  1.00  0.00     0.032 A 
HETATM   24  C14 UNL     1      18.737   0.662  51.153  1.00  0.00     0.046 A 
HETATM   25  C15 UNL     1      19.209   1.228  50.000  1.00  0.00     0.138 A 
HETATM   26  F1  UNL     1      18.401   1.846  49.110  1.00  0.00    -0.204 F 
HETATM   27  C16 UNL     1      20.556   1.168  49.733  1.00  0.00     0.074 A 
HETATM   28 CL1  UNL     1      21.196   1.880  48.267  1.00  0.00    -0.081 Cl
HETATM   29  C17 UNL     1      21.402   0.546  50.620  1.00  0.00     0.056 A 
ENDBRANCH  20  22
ENDBRANCH   8  20
TORSDOF 7
ENDMDL
MODEL 4
REMARK VINA RESULT:      -7.5      2.645      5.803
REMARK  7 active torsions:
REMARK  status: ('A' for Active; 'I' for Inactive)
REMARK    1  A    between atoms: C2_2  and  N1_4 
REMARK    2  A    between atoms: N1_4  and  C4_5 
REMARK    3  A    between atoms: N1_4  and  C18_26 
REMARK    4  A    between atoms: C4_5  and  C5_6 
REMARK    5  A    between atoms: C6_7  and  C7_8 
REMARK    6  A    between atoms: C11_15  and  N5_16 
REMARK    7  A    between atoms: N5_16  and  C12_17 
ROOT
HETATM    1  C7  UNL     1      24.688   0.607  52.339  1.00  0.00     0.294 A 
HETATM    2  N2  UNL     1      26.118   0.468  52.472  1.00  0.00    -0.260 NA
HETATM    3  C8  UNL     1      26.410  -0.182  53.538  1.00  0.00     0.164 A 
HETATM    4  C9  UNL     1      25.241  -0.592  54.304  1.00  0.00     0.149 A 
HETATM    5  N3  UNL     1      24.967  -1.234  55.387  1.00  0.00    -0.223 NA
HETATM    6  C10 UNL     1      23.570  -1.352  55.691  1.00  0.00     0.233 A 
HETATM    7  N4  UNL     1      22.580  -0.893  55.006  1.00  0.00    -0.237 NA
HETATM    8  C11 UNL     1      22.760  -0.152  53.772  1.00  0.00     0.319 A 
HETATM    9  N6  UNL     1      24.183  -0.071  53.513  1.00  0.00    -0.290 N 
ENDROOT
BRANCH   1  10
HETATM   10  C6  UNL     1      24.374   2.051  52.418  1.00  0.00    -0.056 C 
HETATM   11  C5  UNL     1      24.113   3.222  52.464  1.00  0.00    -0.083 C 
BRANCH  11  12
HETATM   12  C4  UNL     1      23.801   4.646  52.495  1.00  0.00     0.212 C 
BRANCH  12  13
HETATM   13  N1  UNL     1      23.032   5.049  51.408  1.00  0.00    -0.395 N 
BRANCH  13  14
HETATM   14  C2  UNL     1      23.681   5.406  50.206  1.00  0.00     0.072 C 
HETATM   15  C1  UNL     1      24.990   6.114  50.457  1.00  0.00     0.031 C 
HETATM   16  C3  UNL     1      23.824   4.297  49.191  1.00  0.00     0.031 C 
ENDBRANCH  13  14
BRANCH  13  17
HETATM   17  C18 UNL     1      21.709   5.495  51.582  1.00  0.00     0.072 C 
HETATM   18  C19 UNL     1      21.428   6.715  50.753  1.00  0.00     0.031 C 
HETATM   19  C20 UNL     1      20.691   4.437  51.135  1.00  0.00     0.031 C 
ENDBRANCH  13  17
ENDBRANCH  12  13
ENDBRANCH  11  12
ENDBRANCH   1  10
BRANCH   8  20
HETATM   20  N5  UNL     1      21.977  -0.713  52.731  1.00  0.00    -0.351 N 
HETATM   21  H14 UNL     1      22.077  -1.762  52.558  1.00  0.00     0.163 HD
BRANCH  20  22
HETATM   22  C12 UNL     1      21.062  -0.103  51.860  1.00  0.00     0.032 A 
HETATM   23  C13 UNL     1      19.710   0.018  52.095  1.00  0.00     0.032 A 
HETATM   24  C14 UNL     1      18.787   0.615  51.264  1.00  0.00     0.046 A 
HETATM   25  C15 UNL     1      19.229   1.147  50.084  1.00  0.00     0.138 A 
HETATM   26  F1  UNL     1      18.401   1.752  49.203  1.00  0.00    -0.204 F 
HETATM   27  C16 UNL     1      20.567   1.064  49.778  1.00  0.00     0.074 A 
HETATM   28 CL1  UNL     1      21.170   1.733  48.276  1.00  0.00    -0.081 Cl
HETATM   29  C17 UNL     1      21.433   0.455  50.655  1.00  0.00     0.056 A 
ENDBRANCH  20  22
ENDBRANCH   8  20
TORSDOF 7
ENDMDL
MODEL 5
REMARK VINA RESULT:      -7.2      3.437      6.681
REMARK  7 active torsions:
REMARK  status: ('A' for Active; 'I' for Inactive)
REMARK    1  A    between atoms: C2_2  and  N1_4 
REMARK    2  A    between atoms: N1_4  and  C4_5 
REMARK    3  A    between atoms: N1_4  and  C18_26 
REMARK    4  A    between atoms: C4_5  and  C5_6 
REMARK    5  A    between atoms: C6_7  and  C7_8 
REMARK    6  A    between atoms: C11_15  and  N5_16 
REMARK    7  A    between atoms: N5_16  and  C12_17 
ROOT
HETATM    1  C7  UNL     1      23.171   3.759  52.423  1.00  0.00     0.294 A 
HETATM    2  N2  UNL     1      21.899   4.438  52.397  1.00  0.00    -0.260 NA
HETATM    3  C8  UNL     1      20.936   3.592  52.360  1.00  0.00     0.164 A 
HETATM    4  C9  UNL     1      21.385   2.206  52.353  1.00  0.00     0.149 A 
HETATM    5  N3  UNL     1      20.877   1.022  52.328  1.00  0.00    -0.223 NA
HETATM    6  C10 UNL     1      21.828  -0.051  52.335  1.00  0.00     0.233 A 
HETATM    7  N4  UNL     1      23.113   0.044  52.365  1.00  0.00    -0.237 NA
HETATM    8  C11 UNL     1      23.803   1.319  52.393  1.00  0.00     0.319 A 
HETATM    9  N6  UNL     1      22.796   2.361  52.392  1.00  0.00    -0.290 N 
ENDROOT
BRANCH   1  10
HETATM   10  C6  UNL     1      23.889   4.115  51.181  1.00  0.00    -0.056 C 
HETATM   11  C5  UNL     1      24.457   4.415  50.166  1.00  0.00    -0.083 C 
BRANCH  11  12
HETATM   12  C4  UNL     1      25.124   4.777  48.920  1.00  0.00     0.212 C 
BRANCH  12  13
HETATM   13  N1  UNL     1      25.605   6.083  48.931  1.00  0.00    -0.395 N 
BRANCH  13  14
HETATM   14  C2  UNL     1      24.731   7.136  48.586  1.00  0.00     0.072 C 
HETATM   15  C1  UNL     1      23.642   6.684  47.643  1.00  0.00     0.031 C 
HETATM   16  C3  UNL     1      24.180   7.931  49.746  1.00  0.00     0.031 C 
ENDBRANCH  13  14
BRANCH  13  17
HETATM   17  C18 UNL     1      26.986   6.346  48.875  1.00  0.00     0.072 C 
HETATM   18  C19 UNL     1      27.766   5.109  48.533  1.00  0.00     0.031 C 
HETATM   19  C20 UNL     1      27.323   7.372  47.785  1.00  0.00     0.031 C 
ENDBRANCH  13  17
ENDBRANCH  12  13
ENDBRANCH  11  12
ENDBRANCH   1  10
BRANCH   8  20
HETATM   20  N5  UNL     1      24.732   1.365  53.463  1.00  0.00    -0.351 N 
HETATM   21  H14 UNL     1      24.351   1.614  54.429  1.00  0.00     0.163 HD
BRANCH  20  22
HETATM   22  C12 UNL     1      26.115   1.129  53.468  1.00  0.00     0.032 A 
HETATM   23  C13 UNL     1      27.080   2.098  53.638  1.00  0.00     0.032 A 
HETATM   24  C14 UNL     1      28.443   1.898  53.653  1.00  0.00     0.046 A 
HETATM   25  C15 UNL     1      28.912   0.624  53.484  1.00  0.00     0.138 A 
HETATM   26  F1  UNL     1      30.231   0.328  53.483  1.00  0.00    -0.204 F 
HETATM   27  C16 UNL     1      28.009  -0.398  53.307  1.00  0.00     0.074 A 
HETATM   28 CL1  UNL     1      28.570  -2.041  53.087  1.00  0.00    -0.081 Cl
HETATM   29  C17 UNL     1      26.661  -0.127  53.304  1.00  0.00     0.056 A 
ENDBRANCH  20  22
ENDBRANCH   8  20
TORSDOF 7
ENDMDL
MODEL 6
REMARK VINA RESULT:      -7.2      4.474      6.814
REMARK  7 active torsions:
REMARK  status: ('A' for Active; 'I' for Inactive)
REMARK    1  A    between atoms: C2_2  and  N1_4 
REMARK    2  A    between atoms: N1_4  and  C4_5 
REMARK    3  A    between atoms: N1_4  and  C18_26 
REMARK    4  A    between atoms: C4_5  and  C5_6 
REMARK    5  A    between atoms: C6_7  and  C7_8 
REMARK    6  A    between atoms: C11_15  and  N5_16 
REMARK    7  A    between atoms: N5_16  and  C12_17 
ROOT
HETATM    1  C7  UNL     1      23.680   2.610  50.462  1.00  0.00     0.294 A 
HETATM    2  N2  UNL     1      22.480   1.825  50.619  1.00  0.00    -0.260 NA
HETATM    3  C8  UNL     1      21.455   2.586  50.735  1.00  0.00     0.164 A 
HETATM    4  C9  UNL     1      21.779   4.005  50.678  1.00  0.00     0.149 A 
HETATM    5  N3  UNL     1      21.173   5.141  50.734  1.00  0.00    -0.223 NA
HETATM    6  C10 UNL     1      22.022   6.292  50.620  1.00  0.00     0.233 A 
HETATM    7  N4  UNL     1      23.302   6.306  50.470  1.00  0.00    -0.237 NA
HETATM    8  C11 UNL     1      24.095   5.095  50.396  1.00  0.00     0.319 A 
HETATM    9  N6  UNL     1      23.188   3.971  50.508  1.00  0.00    -0.290 N 
ENDROOT
BRANCH   1  10
HETATM   10  C6  UNL     1      24.539   2.346  51.637  1.00  0.00    -0.056 C 
HETATM   11  C5  UNL     1      25.250   2.123  52.579  1.00  0.00    -0.083 C 
BRANCH  11  12
HETATM   12  C4  UNL     1      26.120   1.829  53.712  1.00  0.00     0.212 C 
BRANCH  12  13
HETATM   13  N1  UNL     1      27.022   0.805  53.442  1.00  0.00    -0.395 N 
BRANCH  13  14
HETATM   14  C2  UNL     1      26.630  -0.530  53.678  1.00  0.00     0.072 C 
HETATM   15  C1  UNL     1      25.388  -0.615  54.532  1.00  0.00     0.031 C 
HETATM   16  C3  UNL     1      26.531  -1.405  52.450  1.00  0.00     0.031 C 
ENDBRANCH  13  14
BRANCH  13  17
HETATM   17  C18 UNL     1      28.402   1.063  53.340  1.00  0.00     0.072 C 
HETATM   18  C19 UNL     1      28.717   2.494  53.670  1.00  0.00     0.031 C 
HETATM   19  C20 UNL     1      29.212   0.213  54.328  1.00  0.00     0.031 C 
ENDBRANCH  13  17
ENDBRANCH  12  13
ENDBRANCH  11  12
ENDBRANCH   1  10
BRANCH   8  20
HETATM   20  N5  UNL     1      24.921   5.105  49.244  1.00  0.00    -0.351 N 
HETATM   21  H14 UNL     1      24.651   4.450  48.445  1.00  0.00     0.163 HD
BRANCH  20  22
HETATM   22  C12 UNL     1      26.073   5.856  48.965  1.00  0.00     0.032 A 
HETATM   23  C13 UNL     1      26.149   7.231  49.010  1.00  0.00     0.032 A 
HETATM   24  C14 UNL     1      27.264   7.996  48.747  1.00  0.00     0.046 A 
HETATM   25  C15 UNL     1      28.422   7.353  48.403  1.00  0.00     0.138 A 
HETATM   26  F1  UNL     1      29.567   8.016  48.127  1.00  0.00    -0.204 F 
HETATM   27  C16 UNL     1      28.425   5.980  48.336  1.00  0.00     0.074 A 
HETATM   28 CL1  UNL     1      29.888   5.123  47.900  1.00  0.00    -0.081 Cl
HETATM   29  C17 UNL     1      27.275   5.279  48.613  1.00  0.00     0.056 A 
ENDBRANCH  20  22
ENDBRANCH   8  20
TORSDOF 7
ENDMDL
MODEL 7
REMARK VINA RESULT:      -7.1      1.678      2.279
REMARK  7 active torsions:
REMARK  status: ('A' for Active; 'I' for Inactive)
REMARK    1  A    between atoms: C2_2  and  N1_4 
REMARK    2  A    between atoms: N1_4  and  C4_5 
REMARK    3  A    between atoms: N1_4  and  C18_26 
REMARK    4  A    between atoms: C4_5  and  C5_6 
REMARK    5  A    between atoms: C6_7  and  C7_8 
REMARK    6  A    between atoms: C11_15  and  N5_16 
REMARK    7  A    between atoms: N5_16  and  C12_17 
ROOT
HETATM    1  C7  UNL     1      21.603   3.628  52.247  1.00  0.00     0.294 A 
HETATM    2  N2  UNL     1      22.303   4.886  52.340  1.00  0.00    -0.260 NA
HETATM    3  C8  UNL     1      22.106   5.589  51.286  1.00  0.00     0.164 A 
HETATM    4  C9  UNL     1      21.248   4.936  50.307  1.00  0.00     0.149 A 
HETATM    5  N3  UNL     1      20.747   5.175  49.143  1.00  0.00    -0.223 NA
HETATM    6  C10 UNL     1      19.926   4.129  48.606  1.00  0.00     0.233 A 
HETATM    7  N4  UNL     1      19.643   2.998  49.155  1.00  0.00    -0.237 NA
HETATM    8  C11 UNL     1      20.148   2.613  50.458  1.00  0.00     0.319 A 
HETATM    9  N6  UNL     1      20.959   3.705  50.954  1.00  0.00    -0.290 N 
ENDROOT
BRANCH   1  10
HETATM   10  C6  UNL     1      22.622   2.555  52.238  1.00  0.00    -0.056 C 
HETATM   11  C5  UNL     1      23.452   1.688  52.212  1.00  0.00    -0.083 C 
BRANCH  11  12
HETATM   12  C4  UNL     1      24.453   0.629  52.157  1.00  0.00     0.212 C 
BRANCH  12  13
HETATM   13  N1  UNL     1      25.577   0.914  52.926  1.00  0.00    -0.395 N 
BRANCH  13  14
HETATM   14  C2  UNL     1      26.330   2.071  52.633  1.00  0.00     0.072 C 
HETATM   15  C1  UNL     1      27.550   2.192  53.512  1.00  0.00     0.031 C 
HETATM   16  C3  UNL     1      26.662   2.278  51.174  1.00  0.00     0.031 C 
ENDBRANCH  13  14
BRANCH  13  17
HETATM   17  C18 UNL     1      26.204  -0.087  53.691  1.00  0.00     0.072 C 
HETATM   18  C19 UNL     1      25.260  -0.679  54.698  1.00  0.00     0.031 C 
HETATM   19  C20 UNL     1      26.676  -1.257  52.816  1.00  0.00     0.031 C 
ENDBRANCH  13  17
ENDBRANCH  12  13
ENDBRANCH  11  12
ENDBRANCH   1  10
BRANCH   8  20
HETATM   20  N5  UNL     1      19.088   2.202  51.306  1.00  0.00    -0.351 N 
HETATM   21  H14 UNL     1      18.313   2.912  51.497  1.00  0.00     0.163 HD
BRANCH  20  22
HETATM   22  C12 UNL     1      18.876   0.978  51.960  1.00  0.00     0.032 A 
HETATM   23  C13 UNL     1      17.723   0.229  51.876  1.00  0.00     0.032 A 
HETATM   24  C14 UNL     1      17.487  -0.977  52.501  1.00  0.00     0.046 A 
HETATM   25  C15 UNL     1      18.476  -1.502  53.287  1.00  0.00     0.138 A 
HETATM   26  F1  UNL     1      18.338  -2.678  53.939  1.00  0.00    -0.204 F 
HETATM   27  C16 UNL     1      19.657  -0.811  53.419  1.00  0.00     0.074 A 
HETATM   28 CL1  UNL     1      20.945  -1.452  54.417  1.00  0.00    -0.081 Cl
HETATM   29  C17 UNL     1      19.825   0.387  52.767  1.00  0.00     0.056 A 
ENDBRANCH  20  22
ENDBRANCH   8  20
TORSDOF 7
ENDMDL
MODEL 8
REMARK VINA RESULT:      -7.1      3.656      6.417
REMARK  7 active torsions:
REMARK  status: ('A' for Active; 'I' for Inactive)
REMARK    1  A    between atoms: C2_2  and  N1_4 
REMARK    2  A    between atoms: N1_4  and  C4_5 
REMARK    3  A    between atoms: N1_4  and  C18_26 
REMARK    4  A    between atoms: C4_5  and  C5_6 
REMARK    5  A    between atoms: C6_7  and  C7_8 
REMARK    6  A    between atoms: C11_15  and  N5_16 
REMARK    7  A    between atoms: N5_16  and  C12_17 
ROOT
HETATM    1  C7  UNL     1      23.991   6.552  51.101  1.00  0.00     0.294 A 
HETATM    2  N2  UNL     1      22.846   7.383  50.818  1.00  0.00    -0.260 NA
HETATM    3  C8  UNL     1      22.041   6.784  50.020  1.00  0.00     0.164 A 
HETATM    4  C9  UNL     1      22.497   5.458  49.626  1.00  0.00     0.149 A 
HETATM    5  N3  UNL     1      22.104   4.475  48.891  1.00  0.00    -0.223 NA
HETATM    6  C10 UNL     1      22.988   3.346  48.856  1.00  0.00     0.233 A 
HETATM    7  N4  UNL     1      24.112   3.215  49.472  1.00  0.00    -0.237 NA
HETATM    8  C11 UNL     1      24.662   4.251  50.325  1.00  0.00     0.319 A 
HETATM    9  N6  UNL     1      23.727   5.358  50.329  1.00  0.00    -0.290 N 
ENDROOT
BRANCH   1  10
HETATM   10  C6  UNL     1      25.183   7.245  50.566  1.00  0.00    -0.056 C 
HETATM   11  C5  UNL     1      26.140   7.814  50.117  1.00  0.00    -0.083 C 
BRANCH  11  12
HETATM   12  C4  UNL     1      27.294   8.502  49.548  1.00  0.00     0.212 C 
BRANCH  12  13
HETATM   13  N1  UNL     1      27.686   7.967  48.325  1.00  0.00    -0.395 N 
BRANCH  13  14
HETATM   14  C2  UNL     1      28.722   7.008  48.300  1.00  0.00     0.072 C 
HETATM   15  C1  UNL     1      28.189   5.596  48.329  1.00  0.00     0.031 C 
HETATM   16  C3  UNL     1      29.758   7.199  47.218  1.00  0.00     0.031 C 
ENDBRANCH  13  14
BRANCH  13  17
HETATM   17  C18 UNL     1      27.385   8.623  47.117  1.00  0.00     0.072 C 
HETATM   18  C19 UNL     1      26.042   8.209  46.589  1.00  0.00     0.031 C 
HETATM   19  C20 UNL     1      27.317  10.144  47.300  1.00  0.00     0.031 C 
ENDBRANCH  13  17
ENDBRANCH  12  13
ENDBRANCH  11  12
ENDBRANCH   1  10
BRANCH   8  20
HETATM   20  N5  UNL     1      24.997   3.726  51.600  1.00  0.00    -0.351 N 
HETATM   21  H14 UNL     1      25.032   4.414  52.416  1.00  0.00     0.163 HD
BRANCH  20  22
HETATM   22  C12 UNL     1      25.300   2.411  51.984  1.00  0.00     0.032 A 
HETATM   23  C13 UNL     1      26.483   1.761  51.707  1.00  0.00     0.032 A 
HETATM   24  C14 UNL     1      26.812   0.474  52.073  1.00  0.00     0.046 A 
HETATM   25  C15 UNL     1      25.893  -0.252  52.780  1.00  0.00     0.138 A 
HETATM   26  F1  UNL     1      26.123  -1.521  53.184  1.00  0.00    -0.204 F 
HETATM   27  C16 UNL     1      24.687   0.329  53.094  1.00  0.00     0.074 A 
HETATM   28 CL1  UNL     1      23.486  -0.569  53.997  1.00  0.00    -0.081 Cl
HETATM   29  C17 UNL     1      24.425   1.619  52.697  1.00  0.00     0.056 A 
ENDBRANCH  20  22
ENDBRANCH   8  20
TORSDOF 7
ENDMDL
MODEL 9
REMARK VINA RESULT:      -7.0      3.678      6.456
REMARK  7 active torsions:
REMARK  status: ('A' for Active; 'I' for Inactive)
REMARK    1  A    between atoms: C2_2  and  N1_4 
REMARK    2  A    between atoms: N1_4  and  C4_5 
REMARK    3  A    between atoms: N1_4  and  C18_26 
REMARK    4  A    between atoms: C4_5  and  C5_6 
REMARK    5  A    between atoms: C6_7  and  C7_8 
REMARK    6  A    between atoms: C11_15  and  N5_16 
REMARK    7  A    between atoms: N5_16  and  C12_17 
ROOT
HETATM    1  C7  UNL     1      23.413   4.686  51.631  1.00  0.00     0.294 A 
HETATM    2  N2  UNL     1      22.416   5.722  51.521  1.00  0.00    -0.260 NA
HETATM    3  C8  UNL     1      21.307   5.237  51.097  1.00  0.00     0.164 A 
HETATM    4  C9  UNL     1      21.361   3.803  50.849  1.00  0.00     0.149 A 
HETATM    5  N3  UNL     1      20.583   2.858  50.445  1.00  0.00    -0.223 NA
HETATM    6  C10 UNL     1      21.183   1.557  50.382  1.00  0.00     0.233 A 
HETATM    7  N4  UNL     1      22.395   1.241  50.683  1.00  0.00    -0.237 NA
HETATM    8  C11 UNL     1      23.366   2.213  51.146  1.00  0.00     0.319 A 
HETATM    9  N6  UNL     1      22.705   3.502  51.196  1.00  0.00    -0.290 N 
ENDROOT
BRANCH   1  10
HETATM   10  C6  UNL     1      24.493   5.006  50.673  1.00  0.00    -0.056 C 
HETATM   11  C5  UNL     1      25.377   5.280  49.907  1.00  0.00    -0.083 C 
BRANCH  11  12
HETATM   12  C4  UNL     1      26.448   5.636  48.984  1.00  0.00     0.212 C 
BRANCH  12  13
HETATM   13  N1  UNL     1      26.663   7.009  48.918  1.00  0.00    -0.395 N 
BRANCH  13  14
HETATM   14  C2  UNL     1      27.711   7.499  48.109  1.00  0.00     0.072 C 
HETATM   15  C1  UNL     1      28.844   6.510  47.988  1.00  0.00     0.031 C 
HETATM   16  C3  UNL     1      27.293   8.047  46.766  1.00  0.00     0.031 C 
ENDBRANCH  13  14
BRANCH  13  17
HETATM   17  C18 UNL     1      26.158   7.870  49.911  1.00  0.00     0.072 C 
HETATM   18  C19 UNL     1      27.151   8.941  50.262  1.00  0.00     0.031 C 
HETATM   19  C20 UNL     1      24.896   8.602  49.437  1.00  0.00     0.031 C 
ENDBRANCH  13  17
ENDBRANCH  12  13
ENDBRANCH  11  12
ENDBRANCH   1  10
BRANCH   8  20
HETATM   20  N5  UNL     1      23.968   1.785  52.356  1.00  0.00    -0.351 N 
HETATM   21  H14 UNL     1      23.387   1.872  53.247  1.00  0.00     0.163 HD
BRANCH  20  22
HETATM   22  C12 UNL     1      25.244   1.246  52.588  1.00  0.00     0.032 A 
HETATM   23  C13 UNL     1      25.571  -0.086  52.465  1.00  0.00     0.032 A 
HETATM   24  C14 UNL     1      26.812  -0.645  52.681  1.00  0.00     0.046 A 
HETATM   25  C15 UNL     1      27.836   0.181  53.056  1.00  0.00     0.138 A 
HETATM   26  F1  UNL     1      29.087  -0.273  53.291  1.00  0.00    -0.204 F 
HETATM   27  C16 UNL     1      27.586   1.526  53.201  1.00  0.00     0.074 A 
HETATM   28 CL1  UNL     1      28.872   2.613  53.680  1.00  0.00    -0.081 Cl
HETATM   29  C17 UNL     1      26.323   2.015  52.968  1.00  0.00     0.056 A 
ENDBRANCH  20  22
ENDBRANCH   8  20
TORSDOF 7
ENDMDL
