MODEL 1
REMARK VINA RESULT:      -9.3      0.000      0.000
REMARK  4 active torsions:
REMARK  status: ('A' for Active; 'I' for Inactive)
REMARK    1  A    between atoms: O1_2  and  C2_3 
REMARK    2  A    between atoms: C8_9  and  C9_10 
REMARK    3  A    between atoms: N2_18  and  C14_19 
REMARK    4  A    between atoms: C19_25  and  O3_26 
ROOT
HETATM    1  C2  UNL     1      26.871   7.030  48.211  1.00  0.00     0.068 A 
HETATM    2  C3  UNL     1      27.977   6.251  48.119  1.00  0.00     0.037 A 
HETATM    3  C4  UNL     1      27.933   4.968  48.597  1.00  0.00     0.016 A 
HETATM    4  C5  UNL     1      26.810   4.443  49.167  1.00  0.00    -0.010 A 
HETATM    5  C6  UNL     1      25.608   5.182  49.307  1.00  0.00    -0.033 A 
HETATM    6  C7  UNL     1      25.725   6.488  48.795  1.00  0.00     0.045 A 
HETATM    7  C8  UNL     1      24.210   5.018  49.821  1.00  0.00     0.086 C 
HETATM    8  C10 UNL     1      24.157   3.831  50.782  1.00  0.00     0.068 C 
HETATM    9  C11 UNL     1      22.777   3.543  51.311  1.00  0.00     0.025 C 
HETATM   10 CL1  UNL     1      21.039   3.504  51.181  1.00  0.00    -0.088 Cl
HETATM   11  C12 UNL     1      23.010   2.980  52.503  1.00  0.00     0.011 C 
HETATM   12  C13 UNL     1      23.803   1.906  52.440  1.00  0.00     0.123 C 
HETATM   13  N1  UNL     1      25.205   2.007  52.152  1.00  0.00    -0.288 N 
HETATM   14  N2  UNL     1      26.611   2.088  51.819  1.00  0.00    -0.172 N 
HETATM   15  N3  UNL     1      26.786   3.241  51.011  1.00  0.00    -0.163 NA
HETATM   16  C20 UNL     1      26.580   3.120  49.711  1.00  0.00     0.152 C 
HETATM   17  H12 UNL     1      25.433   2.489  53.084  1.00  0.00     0.188 HD
ENDROOT
BRANCH  14  18
HETATM   18  C14 UNL     1      27.366   1.043  52.355  1.00  0.00     0.110 A 
HETATM   19  C15 UNL     1      27.116  -0.322  52.355  1.00  0.00     0.038 A 
HETATM   20  C16 UNL     1      27.961  -1.216  52.947  1.00  0.00     0.026 A 
HETATM   21  C17 UNL     1      29.105  -0.767  53.571  1.00  0.00     0.036 A 
HETATM   22 CL2  UNL     1      30.156  -1.966  54.318  1.00  0.00    -0.084 Cl
HETATM   23  C18 UNL     1      29.395   0.590  53.594  1.00  0.00     0.062 A 
HETATM   24  C19 UNL     1      28.520   1.484  52.984  1.00  0.00     0.097 A 
BRANCH  24  25
HETATM   25  O3  UNL     1      28.912   2.804  53.074  1.00  0.00    -0.358 OA
HETATM   26  H16 UNL     1      28.495   3.510  52.477  1.00  0.00     0.217 HD
ENDBRANCH  24  25
ENDBRANCH  14  18
BRANCH   7  27
HETATM   27  C9  UNL     1      23.775   6.240  50.549  1.00  0.00     0.240 C 
HETATM   28  O2  UNL     1      22.845   7.013  50.788  1.00  0.00    -0.306 OA
ENDBRANCH   7  27
BRANCH   1  29
HETATM   29  O1  UNL     1      26.953   8.310  47.719  1.00  0.00    -0.356 OA
HETATM   30  C1  UNL     1      28.064   9.127  47.960  1.00  0.00     0.210 C 
ENDBRANCH   1  29
TORSDOF 4
ENDMDL
MODEL 2
REMARK VINA RESULT:      -9.1      3.471      8.178
REMARK  4 active torsions:
REMARK  status: ('A' for Active; 'I' for Inactive)
REMARK    1  A    between atoms: O1_2  and  C2_3 
REMARK    2  A    between atoms: C8_9  and  C9_10 
REMARK    3  A    between atoms: N2_18  and  C14_19 
REMARK    4  A    between atoms: C19_25  and  O3_26 
ROOT
HETATM    1  C2  UNL     1      20.747  -0.764  53.379  1.00  0.00     0.068 A 
HETATM    2  C3  UNL     1      20.172   0.103  52.509  1.00  0.00     0.037 A 
HETATM    3  C4  UNL     1      20.971   0.894  51.726  1.00  0.00     0.016 A 
HETATM    4  C5  UNL     1      22.333   0.841  51.790  1.00  0.00    -0.010 A 
HETATM    5  C6  UNL     1      23.022  -0.034  52.668  1.00  0.00    -0.033 A 
HETATM    6  C7  UNL     1      22.142  -0.814  53.440  1.00  0.00     0.045 A 
HETATM    7  C8  UNL     1      24.421  -0.421  53.041  1.00  0.00     0.086 C 
HETATM    8  C10 UNL     1      25.388   0.677  52.602  1.00  0.00     0.068 C 
HETATM    9  C11 UNL     1      26.832   0.357  52.880  1.00  0.00     0.025 C 
HETATM   10 CL1  UNL     1      28.174  -0.741  53.059  1.00  0.00    -0.088 Cl
HETATM   11  C12 UNL     1      27.396   1.562  53.034  1.00  0.00     0.011 C 
HETATM   12  C13 UNL     1      27.211   2.374  51.989  1.00  0.00     0.123 C 
HETATM   13  N1  UNL     1      25.932   2.950  51.687  1.00  0.00    -0.288 N 
HETATM   14  N2  UNL     1      24.641   3.504  51.343  1.00  0.00    -0.172 N 
HETATM   15  N3  UNL     1      23.655   2.600  51.817  1.00  0.00    -0.163 NA
HETATM   16  C20 UNL     1      23.324   1.584  51.040  1.00  0.00     0.152 C 
HETATM   17  H12 UNL     1      25.933   3.580  52.556  1.00  0.00     0.188 HD
ENDROOT
BRANCH  14  18
HETATM   18  C14 UNL     1      24.724   4.717  50.656  1.00  0.00     0.110 A 
HETATM   19  C15 UNL     1      25.213   4.984  49.385  1.00  0.00     0.038 A 
HETATM   20  C16 UNL     1      25.238   6.247  48.867  1.00  0.00     0.026 A 
HETATM   21  C17 UNL     1      24.768   7.304  49.616  1.00  0.00     0.036 A 
HETATM   22 CL2  UNL     1      24.828   8.910  48.895  1.00  0.00    -0.084 Cl
HETATM   23  C18 UNL     1      24.271   7.082  50.892  1.00  0.00     0.062 A 
HETATM   24  C19 UNL     1      24.254   5.788  51.401  1.00  0.00     0.097 A 
BRANCH  24  25
HETATM   25  O3  UNL     1      23.740   5.693  52.678  1.00  0.00    -0.358 OA
HETATM   26  H16 UNL     1      24.258   6.053  53.472  1.00  0.00     0.217 HD
ENDBRANCH  24  25
ENDBRANCH  14  18
BRANCH   7  27
HETATM   27  C9  UNL     1      24.537  -0.598  54.514  1.00  0.00     0.240 C 
HETATM   28  O2  UNL     1      25.046  -1.248  55.430  1.00  0.00    -0.306 OA
ENDBRANCH   7  27
BRANCH   1  29
HETATM   29  O1  UNL     1      19.914  -1.541  54.146  1.00  0.00    -0.356 OA
HETATM   30  C1  UNL     1      18.629  -1.893  53.719  1.00  0.00     0.210 C 
ENDBRANCH   1  29
TORSDOF 4
ENDMDL
MODEL 3
REMARK VINA RESULT:      -8.8      3.227      6.175
REMARK  4 active torsions:
REMARK  status: ('A' for Active; 'I' for Inactive)
REMARK    1  A    between atoms: O1_2  and  C2_3 
REMARK    2  A    between atoms: C8_9  and  C9_10 
REMARK    3  A    between atoms: N2_18  and  C14_19 
REMARK    4  A    between atoms: C19_25  and  O3_26 
ROOT
HETATM    1  C2  UNL     1      20.021  -0.054  52.611  1.00  0.00     0.068 A 
HETATM    2  C3  UNL     1      20.676  -0.649  53.638  1.00  0.00     0.037 A 
HETATM    3  C4  UNL     1      21.974  -0.296  53.897  1.00  0.00     0.016 A 
HETATM    4  C5  UNL     1      22.636   0.637  53.153  1.00  0.00    -0.010 A 
HETATM    5  C6  UNL     1      22.033   1.310  52.061  1.00  0.00    -0.033 A 
HETATM    6  C7  UNL     1      20.703   0.900  51.853  1.00  0.00     0.045 A 
HETATM    7  C8  UNL     1      22.351   2.357  51.037  1.00  0.00     0.086 C 
HETATM    8  C10 UNL     1      23.868   2.499  50.909  1.00  0.00     0.068 C 
HETATM    9  C11 UNL     1      24.295   3.571  49.943  1.00  0.00     0.025 C 
HETATM   10 CL1  UNL     1      24.092   5.098  49.127  1.00  0.00    -0.088 Cl
HETATM   11  C12 UNL     1      25.485   3.143  49.506  1.00  0.00     0.011 C 
HETATM   12  C13 UNL     1      26.363   2.916  50.488  1.00  0.00     0.123 C 
HETATM   13  N1  UNL     1      26.232   1.805  51.387  1.00  0.00    -0.288 N 
HETATM   14  N2  UNL     1      26.090   0.716  52.329  1.00  0.00    -0.172 N 
HETATM   15  N3  UNL     1      24.705   0.427  52.433  1.00  0.00    -0.163 NA
HETATM   16  C20 UNL     1      23.989   1.137  53.287  1.00  0.00     0.152 C 
HETATM   17  H12 UNL     1      26.441   1.076  50.627  1.00  0.00     0.188 HD
ENDROOT
BRANCH  14  18
HETATM   18  C14 UNL     1      27.307   0.282  52.859  1.00  0.00     0.110 A 
HETATM   19  C15 UNL     1      28.347   1.018  53.409  1.00  0.00     0.038 A 
HETATM   20  C16 UNL     1      29.489   0.430  53.871  1.00  0.00     0.026 A 
HETATM   21  C17 UNL     1      29.633  -0.938  53.796  1.00  0.00     0.036 A 
HETATM   22 CL2  UNL     1      31.128  -1.641  54.406  1.00  0.00    -0.084 Cl
HETATM   23  C18 UNL     1      28.618  -1.713  53.254  1.00  0.00     0.062 A 
HETATM   24  C19 UNL     1      27.461  -1.094  52.789  1.00  0.00     0.097 A 
BRANCH  24  25
HETATM   25  O3  UNL     1      26.526  -1.966  52.271  1.00  0.00    -0.358 OA
HETATM   26  H16 UNL     1      25.693  -1.617  51.809  1.00  0.00     0.217 HD
ENDBRANCH  24  25
ENDBRANCH  14  18
BRANCH   7  27
HETATM   27  C9  UNL     1      21.794   1.976  49.711  1.00  0.00     0.240 C 
HETATM   28  O2  UNL     1      22.005   1.406  48.638  1.00  0.00    -0.306 OA
ENDBRANCH   7  27
BRANCH   1  29
HETATM   29  O1  UNL     1      18.719  -0.432  52.383  1.00  0.00    -0.356 OA
HETATM   30  C1  UNL     1      18.052  -0.111  51.195  1.00  0.00     0.210 C 
ENDBRANCH   1  29
TORSDOF 4
ENDMDL
MODEL 4
REMARK VINA RESULT:      -8.7      3.757      7.003
REMARK  4 active torsions:
REMARK  status: ('A' for Active; 'I' for Inactive)
REMARK    1  A    between atoms: O1_2  and  C2_3 
REMARK    2  A    between atoms: C8_9  and  C9_10 
REMARK    3  A    between atoms: N2_18  and  C14_19 
REMARK    4  A    between atoms: C19_25  and  O3_26 
ROOT
HETATM    1  C2  UNL     1      19.074  -1.175  53.295  1.00  0.00     0.068 A 
HETATM    2  C3  UNL     1      19.886  -1.993  54.010  1.00  0.00     0.037 A 
HETATM    3  C4  UNL     1      21.177  -1.608  54.252  1.00  0.00     0.016 A 
HETATM    4  C5  UNL     1      21.682  -0.425  53.797  1.00  0.00    -0.010 A 
HETATM    5  C6  UNL     1      20.909   0.493  53.041  1.00  0.00    -0.033 A 
HETATM    6  C7  UNL     1      19.595   0.035  52.831  1.00  0.00     0.045 A 
HETATM    7  C8  UNL     1      21.032   1.837  52.389  1.00  0.00     0.086 C 
HETATM    8  C10 UNL     1      22.509   2.167  52.179  1.00  0.00     0.068 C 
HETATM    9  C11 UNL     1      22.745   3.528  51.581  1.00  0.00     0.025 C 
HETATM   10 CL1  UNL     1      22.342   5.205  51.327  1.00  0.00    -0.088 Cl
HETATM   11  C12 UNL     1      23.902   3.385  50.924  1.00  0.00     0.011 C 
HETATM   12  C13 UNL     1      24.903   2.951  51.695  1.00  0.00     0.123 C 
HETATM   13  N1  UNL     1      24.956   1.606  52.192  1.00  0.00    -0.288 N 
HETATM   14  N2  UNL     1      25.001   0.266  52.737  1.00  0.00    -0.172 N 
HETATM   15  N3  UNL     1      23.661  -0.182  52.865  1.00  0.00    -0.163 NA
HETATM   16  C20 UNL     1      23.003   0.144  53.964  1.00  0.00     0.152 C 
HETATM   17  H12 UNL     1      25.123   1.179  51.221  1.00  0.00     0.188 HD
ENDROOT
BRANCH  14  18
HETATM   18  C14 UNL     1      26.299  -0.186  52.987  1.00  0.00     0.110 A 
HETATM   19  C15 UNL     1      26.983  -1.262  52.440  1.00  0.00     0.038 A 
HETATM   20  C16 UNL     1      28.257  -1.578  52.814  1.00  0.00     0.026 A 
HETATM   21  C17 UNL     1      28.901  -0.816  53.764  1.00  0.00     0.036 A 
HETATM   22 CL2  UNL     1      30.543  -1.273  54.207  1.00  0.00    -0.084 Cl
HETATM   23  C18 UNL     1      28.254   0.269  54.337  1.00  0.00     0.062 A 
HETATM   24  C19 UNL     1      26.956   0.575  53.942  1.00  0.00     0.097 A 
BRANCH  24  25
HETATM   25  O3  UNL     1      26.417   1.673  54.582  1.00  0.00    -0.358 OA
HETATM   26  H16 UNL     1      25.414   1.822  54.597  1.00  0.00     0.217 HD
ENDBRANCH  24  25
ENDBRANCH  14  18
BRANCH   7  27
HETATM   27  C9  UNL     1      20.350   1.839  51.067  1.00  0.00     0.240 C 
HETATM   28  O2  UNL     1      20.435   1.550  49.871  1.00  0.00    -0.306 OA
ENDBRANCH   7  27
BRANCH   1  29
HETATM   29  O1  UNL     1      17.784  -1.594  53.074  1.00  0.00    -0.356 OA
HETATM   30  C1  UNL     1      17.343  -2.865  53.458  1.00  0.00     0.210 C 
ENDBRANCH   1  29
TORSDOF 4
ENDMDL
MODEL 5
REMARK VINA RESULT:      -8.6      4.707      8.001
REMARK  4 active torsions:
REMARK  status: ('A' for Active; 'I' for Inactive)
REMARK    1  A    between atoms: O1_2  and  C2_3 
REMARK    2  A    between atoms: C8_9  and  C9_10 
REMARK    3  A    between atoms: N2_18  and  C14_19 
REMARK    4  A    between atoms: C19_25  and  O3_26 
ROOT
HETATM    1  C2  UNL     1      26.002   0.724  54.255  1.00  0.00     0.068 A 
HETATM    2  C3  UNL     1      25.449  -0.514  54.271  1.00  0.00     0.037 A 
HETATM    3  C4  UNL     1      24.276  -0.732  53.598  1.00  0.00     0.016 A 
HETATM    4  C5  UNL     1      23.640   0.259  52.907  1.00  0.00    -0.010 A 
HETATM    5  C6  UNL     1      24.143   1.582  52.834  1.00  0.00    -0.033 A 
HETATM    6  C7  UNL     1      25.347   1.733  53.547  1.00  0.00     0.045 A 
HETATM    7  C8  UNL     1      23.811   2.907  52.216  1.00  0.00     0.086 C 
HETATM    8  C10 UNL     1      22.331   2.935  51.837  1.00  0.00     0.068 C 
HETATM    9  C11 UNL     1      21.907   4.206  51.152  1.00  0.00     0.025 C 
HETATM   10 CL1  UNL     1      22.187   5.586  50.124  1.00  0.00    -0.088 Cl
HETATM   11  C12 UNL     1      20.611   4.316  51.470  1.00  0.00     0.011 C 
HETATM   12  C13 UNL     1      19.885   3.247  51.128  1.00  0.00     0.123 C 
HETATM   13  N1  UNL     1      20.004   1.993  51.815  1.00  0.00    -0.288 N 
HETATM   14  N2  UNL     1      20.144   0.709  52.468  1.00  0.00    -0.172 N 
HETATM   15  N3  UNL     1      21.472   0.631  52.963  1.00  0.00    -0.163 NA
HETATM   16  C20 UNL     1      22.414   0.210  52.138  1.00  0.00     0.152 C 
HETATM   17  H12 UNL     1      19.569   2.368  52.721  1.00  0.00     0.188 HD
ENDROOT
BRANCH  14  18
HETATM   18  C14 UNL     1      18.983  -0.066  52.417  1.00  0.00     0.110 A 
HETATM   19  C15 UNL     1      17.874   0.052  51.591  1.00  0.00     0.038 A 
HETATM   20  C16 UNL     1      16.804  -0.790  51.687  1.00  0.00     0.026 A 
HETATM   21  C17 UNL     1      16.806  -1.795  52.630  1.00  0.00     0.036 A 
HETATM   22 CL2  UNL     1      15.397  -2.849  52.709  1.00  0.00    -0.084 Cl
HETATM   23  C18 UNL     1      17.894  -1.949  53.477  1.00  0.00     0.062 A 
HETATM   24  C19 UNL     1      18.975  -1.081  53.362  1.00  0.00     0.097 A 
BRANCH  24  25
HETATM   25  O3  UNL     1      19.995  -1.331  54.258  1.00  0.00    -0.358 OA
HETATM   26  H16 UNL     1      20.084  -2.239  54.699  1.00  0.00     0.217 HD
ENDBRANCH  24  25
ENDBRANCH  14  18
BRANCH   7  27
HETATM   27  C9  UNL     1      24.079   4.012  53.175  1.00  0.00     0.240 C 
HETATM   28  O2  UNL     1      23.729   5.123  53.580  1.00  0.00    -0.306 OA
ENDBRANCH   7  27
BRANCH   1  29
HETATM   29  O1  UNL     1      27.179   0.903  54.940  1.00  0.00    -0.356 OA
HETATM   30  C1  UNL     1      28.355   0.235  54.579  1.00  0.00     0.210 C 
ENDBRANCH   1  29
TORSDOF 4
ENDMDL
MODEL 6
REMARK VINA RESULT:      -8.4      3.172      7.404
REMARK  4 active torsions:
REMARK  status: ('A' for Active; 'I' for Inactive)
REMARK    1  A    between atoms: O1_2  and  C2_3 
REMARK    2  A    between atoms: C8_9  and  C9_10 
REMARK    3  A    between atoms: N2_18  and  C14_19 
REMARK    4  A    between atoms: C19_25  and  O3_26 
ROOT
HETATM    1  C2  UNL     1      29.067   0.395  53.772  1.00  0.00     0.068 A 
HETATM    2  C3  UNL     1      29.210   1.739  53.665  1.00  0.00     0.037 A 
HETATM    3  C4  UNL     1      28.093   2.529  53.609  1.00  0.00     0.016 A 
HETATM    4  C5  UNL     1      26.832   2.009  53.656  1.00  0.00    -0.010 A 
HETATM    5  C6  UNL     1      26.584   0.617  53.767  1.00  0.00    -0.033 A 
HETATM    6  C7  UNL     1      27.774  -0.132  53.820  1.00  0.00     0.045 A 
HETATM    7  C8  UNL     1      25.438  -0.343  53.865  1.00  0.00     0.086 C 
HETATM    8  C10 UNL     1      24.164   0.331  53.357  1.00  0.00     0.068 C 
HETATM    9  C11 UNL     1      22.937  -0.533  53.469  1.00  0.00     0.025 C 
HETATM   10 CL1  UNL     1      21.969  -1.768  54.230  1.00  0.00    -0.088 Cl
HETATM   11  C12 UNL     1      22.151  -0.092  52.479  1.00  0.00     0.011 C 
HETATM   12  C13 UNL     1      21.900   1.219  52.542  1.00  0.00     0.123 C 
HETATM   13  N1  UNL     1      22.904   2.204  52.258  1.00  0.00    -0.288 N 
HETATM   14  N2  UNL     1      23.917   3.209  52.019  1.00  0.00    -0.172 N 
HETATM   15  N3  UNL     1      25.169   2.634  52.357  1.00  0.00    -0.163 NA
HETATM   16  C20 UNL     1      25.551   2.683  53.621  1.00  0.00     0.152 C 
HETATM   17  H12 UNL     1      22.948   1.960  51.214  1.00  0.00     0.188 HD
ENDROOT
BRANCH  14  18
HETATM   18  C14 UNL     1      23.396   4.419  51.555  1.00  0.00     0.110 A 
HETATM   19  C15 UNL     1      22.111   4.932  51.669  1.00  0.00     0.038 A 
HETATM   20  C16 UNL     1      21.762   6.139  51.134  1.00  0.00     0.026 A 
HETATM   21  C17 UNL     1      22.700   6.885  50.456  1.00  0.00     0.036 A 
HETATM   22 CL2  UNL     1      22.190   8.433  49.787  1.00  0.00    -0.084 Cl
HETATM   23  C18 UNL     1      23.996   6.410  50.318  1.00  0.00     0.062 A 
HETATM   24  C19 UNL     1      24.332   5.178  50.871  1.00  0.00     0.097 A 
BRANCH  24  25
HETATM   25  O3  UNL     1      25.647   4.811  50.668  1.00  0.00    -0.358 OA
HETATM   26  H16 UNL     1      25.877   4.006  50.094  1.00  0.00     0.217 HD
ENDBRANCH  24  25
ENDBRANCH  14  18
BRANCH   7  27
HETATM   27  C9  UNL     1      25.698  -1.553  53.039  1.00  0.00     0.240 C 
HETATM   28  O2  UNL     1      26.433  -2.082  52.202  1.00  0.00    -0.306 OA
ENDBRANCH   7  27
BRANCH   1  29
HETATM   29  O1  UNL     1      30.211  -0.364  53.827  1.00  0.00    -0.356 OA
HETATM   30  C1  UNL     1      30.176  -1.761  53.752  1.00  0.00     0.210 C 
ENDBRANCH   1  29
TORSDOF 4
ENDMDL
MODEL 7
REMARK VINA RESULT:      -8.4      3.123      4.181
REMARK  4 active torsions:
REMARK  status: ('A' for Active; 'I' for Inactive)
REMARK    1  A    between atoms: O1_2  and  C2_3 
REMARK    2  A    between atoms: C8_9  and  C9_10 
REMARK    3  A    between atoms: N2_18  and  C14_19 
REMARK    4  A    between atoms: C19_25  and  O3_26 
ROOT
HETATM    1  C2  UNL     1      28.883   6.830  48.058  1.00  0.00     0.068 A 
HETATM    2  C3  UNL     1      29.001   5.492  48.248  1.00  0.00     0.037 A 
HETATM    3  C4  UNL     1      27.894   4.767  48.598  1.00  0.00     0.016 A 
HETATM    4  C5  UNL     1      26.669   5.344  48.766  1.00  0.00    -0.010 A 
HETATM    5  C6  UNL     1      26.450   6.734  48.590  1.00  0.00    -0.033 A 
HETATM    6  C7  UNL     1      27.628   7.416  48.231  1.00  0.00     0.045 A 
HETATM    7  C8  UNL     1      25.341   7.740  48.646  1.00  0.00     0.086 C 
HETATM    8  C10 UNL     1      24.179   7.172  49.459  1.00  0.00     0.068 C 
HETATM    9  C11 UNL     1      22.985   8.086  49.527  1.00  0.00     0.025 C 
HETATM   10 CL1  UNL     1      21.922   9.305  48.878  1.00  0.00    -0.088 Cl
HETATM   11  C12 UNL     1      22.408   7.762  50.691  1.00  0.00     0.011 C 
HETATM   12  C13 UNL     1      22.105   6.464  50.794  1.00  0.00     0.123 C 
HETATM   13  N1  UNL     1      23.113   5.455  50.949  1.00  0.00    -0.288 N 
HETATM   14  N2  UNL     1      24.119   4.421  51.061  1.00  0.00    -0.172 N 
HETATM   15  N3  UNL     1      25.293   4.905  50.426  1.00  0.00    -0.163 NA
HETATM   16  C20 UNL     1      25.401   4.740  49.120  1.00  0.00     0.152 C 
HETATM   17  H12 UNL     1      23.381   5.775  51.937  1.00  0.00     0.188 HD
ENDROOT
BRANCH  14  18
HETATM   18  C14 UNL     1      23.666   3.278  51.723  1.00  0.00     0.110 A 
HETATM   19  C15 UNL     1      22.378   2.778  51.847  1.00  0.00     0.038 A 
HETATM   20  C16 UNL     1      22.104   1.643  52.554  1.00  0.00     0.026 A 
HETATM   21  C17 UNL     1      23.127   0.958  53.173  1.00  0.00     0.036 A 
HETATM   22 CL2  UNL     1      22.713  -0.498  54.073  1.00  0.00    -0.084 Cl
HETATM   23  C18 UNL     1      24.430   1.423  53.076  1.00  0.00     0.062 A 
HETATM   24  C19 UNL     1      24.688   2.582  52.350  1.00  0.00     0.097 A 
BRANCH  24  25
HETATM   25  O3  UNL     1      26.019   2.946  52.326  1.00  0.00    -0.358 OA
HETATM   26  H16 UNL     1      26.696   2.399  51.805  1.00  0.00     0.217 HD
ENDBRANCH  24  25
ENDBRANCH  14  18
BRANCH   7  27
HETATM   27  C9  UNL     1      25.808   8.995  49.295  1.00  0.00     0.240 C 
HETATM   28  O2  UNL     1      26.022   9.578  50.360  1.00  0.00    -0.306 OA
ENDBRANCH   7  27
BRANCH   1  29
HETATM   29  O1  UNL     1      30.015   7.524  47.705  1.00  0.00    -0.356 OA
HETATM   30  C1  UNL     1      31.242   7.315  48.346  1.00  0.00     0.210 C 
ENDBRANCH   1  29
TORSDOF 4
ENDMDL
MODEL 8
REMARK VINA RESULT:      -8.1      3.539      7.006
REMARK  4 active torsions:
REMARK  status: ('A' for Active; 'I' for Inactive)
REMARK    1  A    between atoms: O1_2  and  C2_3 
REMARK    2  A    between atoms: C8_9  and  C9_10 
REMARK    3  A    between atoms: N2_18  and  C14_19 
REMARK    4  A    between atoms: C19_25  and  O3_26 
ROOT
HETATM    1  C2  UNL     1      23.093  -0.054  53.419  1.00  0.00     0.068 A 
HETATM    2  C3  UNL     1      24.391   0.320  53.540  1.00  0.00     0.037 A 
HETATM    3  C4  UNL     1      24.793   1.520  53.016  1.00  0.00     0.016 A 
HETATM    4  C5  UNL     1      23.929   2.358  52.373  1.00  0.00    -0.010 A 
HETATM    5  C6  UNL     1      22.556   2.052  52.200  1.00  0.00    -0.033 A 
HETATM    6  C7  UNL     1      22.214   0.808  52.761  1.00  0.00     0.045 A 
HETATM    7  C8  UNL     1      21.311   2.644  51.612  1.00  0.00     0.086 C 
HETATM    8  C10 UNL     1      21.689   3.734  50.610  1.00  0.00     0.068 C 
HETATM    9  C11 UNL     1      20.504   4.436  50.003  1.00  0.00     0.025 C 
HETATM   10 CL1  UNL     1      18.874   5.053  50.046  1.00  0.00    -0.088 Cl
HETATM   11  C12 UNL     1      20.952   4.831  48.805  1.00  0.00     0.011 C 
HETATM   12  C13 UNL     1      22.054   5.585  48.871  1.00  0.00     0.123 C 
HETATM   13  N1  UNL     1      23.331   5.040  49.231  1.00  0.00    -0.288 N 
HETATM   14  N2  UNL     1      24.618   4.515  49.636  1.00  0.00    -0.172 N 
HETATM   15  N3  UNL     1      24.372   3.410  50.491  1.00  0.00    -0.163 NA
HETATM   16  C20 UNL     1      24.172   3.654  51.774  1.00  0.00     0.152 C 
HETATM   17  H12 UNL     1      23.419   4.465  48.329  1.00  0.00     0.188 HD
ENDROOT
BRANCH  14  18
HETATM   18  C14 UNL     1      25.696   5.224  49.103  1.00  0.00     0.110 A 
HETATM   19  C15 UNL     1      25.748   6.521  48.612  1.00  0.00     0.038 A 
HETATM   20  C16 UNL     1      26.895   7.060  48.104  1.00  0.00     0.026 A 
HETATM   21  C17 UNL     1      28.048   6.307  48.069  1.00  0.00     0.036 A 
HETATM   22 CL2  UNL     1      29.497   7.055  47.401  1.00  0.00    -0.084 Cl
HETATM   23  C18 UNL     1      28.042   5.006  48.549  1.00  0.00     0.062 A 
HETATM   24  C19 UNL     1      26.862   4.476  49.063  1.00  0.00     0.097 A 
BRANCH  24  25
HETATM   25  O3  UNL     1      26.978   3.174  49.508  1.00  0.00    -0.358 OA
HETATM   26  H16 UNL     1      27.329   2.975  50.439  1.00  0.00     0.217 HD
ENDBRANCH  24  25
ENDBRANCH  14  18
BRANCH   7  27
HETATM   27  C9  UNL     1      20.520   1.601  50.905  1.00  0.00     0.240 C 
HETATM   28  O2  UNL     1      20.350   0.985  49.850  1.00  0.00    -0.306 OA
ENDBRANCH   7  27
BRANCH   1  29
HETATM   29  O1  UNL     1      22.727  -1.263  53.959  1.00  0.00    -0.356 OA
HETATM   30  C1  UNL     1      21.393  -1.571  54.248  1.00  0.00     0.210 C 
ENDBRANCH   1  29
TORSDOF 4
ENDMDL
MODEL 9
REMARK VINA RESULT:      -7.8      4.386      5.866
REMARK  4 active torsions:
REMARK  status: ('A' for Active; 'I' for Inactive)
REMARK    1  A    between atoms: O1_2  and  C2_3 
REMARK    2  A    between atoms: C8_9  and  C9_10 
REMARK    3  A    between atoms: N2_18  and  C14_19 
REMARK    4  A    between atoms: C19_25  and  O3_26 
ROOT
HETATM    1  C2  UNL     1      25.761  11.474  47.949  1.00  0.00     0.068 A 
HETATM    2  C3  UNL     1      26.996  11.616  47.409  1.00  0.00     0.037 A 
HETATM    3  C4  UNL     1      27.743  10.499  47.144  1.00  0.00     0.016 A 
HETATM    4  C5  UNL     1      27.287   9.240  47.406  1.00  0.00    -0.010 A 
HETATM    5  C6  UNL     1      26.009   8.994  47.970  1.00  0.00    -0.033 A 
HETATM    6  C7  UNL     1      25.298  10.183  48.215  1.00  0.00     0.045 A 
HETATM    7  C8  UNL     1      25.137   7.848  48.387  1.00  0.00     0.086 C 
HETATM    8  C10 UNL     1      25.996   6.599  48.583  1.00  0.00     0.068 C 
HETATM    9  C11 UNL     1      25.204   5.372  48.947  1.00  0.00     0.025 C 
HETATM   10 CL1  UNL     1      23.777   4.372  48.899  1.00  0.00    -0.088 Cl
HETATM   11  C12 UNL     1      26.072   4.638  49.654  1.00  0.00     0.011 C 
HETATM   12  C13 UNL     1      27.207   4.377  48.999  1.00  0.00     0.123 C 
HETATM   13  N1  UNL     1      28.190   5.390  48.740  1.00  0.00    -0.288 N 
HETATM   14  N2  UNL     1      29.171   6.409  48.433  1.00  0.00    -0.172 N 
HETATM   15  N3  UNL     1      28.479   7.645  48.343  1.00  0.00    -0.163 NA
HETATM   16  C20 UNL     1      27.925   7.959  47.185  1.00  0.00     0.152 C 
HETATM   17  H12 UNL     1      28.461   5.489  49.774  1.00  0.00     0.188 HD
ENDROOT
BRANCH  14  18
HETATM   18  C14 UNL     1      30.467   5.907  48.304  1.00  0.00     0.110 A 
HETATM   19  C15 UNL     1      30.929   4.824  47.570  1.00  0.00     0.038 A 
HETATM   20  C16 UNL     1      32.243   4.454  47.568  1.00  0.00     0.026 A 
HETATM   21  C17 UNL     1      33.156   5.167  48.315  1.00  0.00     0.036 A 
HETATM   22 CL2  UNL     1      34.837   4.643  48.275  1.00  0.00    -0.084 Cl
HETATM   23  C18 UNL     1      32.738   6.258  49.063  1.00  0.00     0.062 A 
HETATM   24  C19 UNL     1      31.394   6.618  49.051  1.00  0.00     0.097 A 
BRANCH  24  25
HETATM   25  O3  UNL     1      31.098   7.715  49.834  1.00  0.00    -0.358 OA
HETATM   26  H16 UNL     1      30.197   7.797  50.291  1.00  0.00     0.217 HD
ENDBRANCH  24  25
ENDBRANCH  14  18
BRANCH   7  27
HETATM   27  C9  UNL     1      24.447   8.158  49.669  1.00  0.00     0.240 C 
HETATM   28  O2  UNL     1      24.277   7.829  50.845  1.00  0.00    -0.306 OA
ENDBRANCH   7  27
BRANCH   1  29
HETATM   29  O1  UNL     1      25.040  12.617  48.199  1.00  0.00    -0.356 OA
HETATM   30  C1  UNL     1      25.227  13.787  47.454  1.00  0.00     0.210 C 
ENDBRANCH   1  29
TORSDOF 4
ENDMDL
