MODEL 1
REMARK VINA RESULT:      -8.5      0.000      0.000
REMARK  6 active torsions:
REMARK  status: ('A' for Active; 'I' for Inactive)
REMARK    1  A    between atoms: O1_2  and  C2_3 
REMARK    2  A    between atoms: C2_3  and  C3_4 
REMARK    3  A    between atoms: C4_5  and  C5_6 
REMARK       I    between atoms: C5_6  and  N1_8 
REMARK    4  A    between atoms: N1_8  and  C6_9 
REMARK    5  A    between atoms: C13_18  and  N4_19 
REMARK    6  A    between atoms: N4_19  and  C14_20 
ROOT
HETATM    1  C6  UNL     1      23.885   2.886  49.859  1.00  0.00     0.036 A 
HETATM    2  C7  UNL     1      22.727   2.636  49.155  1.00  0.00     0.032 A 
HETATM    3  C8  UNL     1      21.756   1.760  49.637  1.00  0.00     0.035 A 
HETATM    4  C9  UNL     1      22.028   1.158  50.866  1.00  0.00     0.069 A 
HETATM    5  N2  UNL     1      21.069   0.320  51.279  1.00  0.00    -0.259 NA
HETATM    6  C10 UNL     1      21.175  -0.345  52.440  1.00  0.00     0.142 A 
HETATM    7  C11 UNL     1      22.296  -0.145  53.192  1.00  0.00     0.089 A 
HETATM    8  C12 UNL     1      22.536  -0.813  54.444  1.00  0.00     0.103 C 
HETATM    9  N3  UNL     1      22.718  -1.370  55.459  1.00  0.00    -0.191 NA
HETATM   10  C13 UNL     1      23.329   0.698  52.838  1.00  0.00     0.067 A 
HETATM   11  C18 UNL     1      23.177   1.370  51.625  1.00  0.00     0.023 A 
HETATM   12  C19 UNL     1      24.079   2.259  51.057  1.00  0.00     0.045 A 
ENDROOT
BRANCH  10  13
HETATM   13  N4  UNL     1      24.555   1.040  53.430  1.00  0.00    -0.358 N 
HETATM   14  H10 UNL     1      24.626   1.983  53.877  1.00  0.00     0.166 HD
BRANCH  13  15
HETATM   15  C14 UNL     1      25.792   0.379  53.576  1.00  0.00     0.008 A 
HETATM   16  C15 UNL     1      26.544  -0.133  54.501  1.00  0.00     0.014 A 
HETATM   17  C16 UNL     1      27.585  -0.549  53.581  1.00  0.00     0.088 A 
HETATM   18 BR1  UNL     1      29.232   0.467  53.709  1.00  0.00    -0.086 Br
HETATM   19  C17 UNL     1      26.726   0.015  52.516  1.00  0.00     0.076 A 
ENDBRANCH  13  15
ENDBRANCH  10  13
BRANCH   1  20
HETATM   20  N1  UNL     1      24.885   3.765  49.366  1.00  0.00    -0.316 N 
HETATM   21  C5  UNL     1      26.292   3.620  49.509  1.00  0.00     0.301 C 
HETATM   22  O2  UNL     1      26.837   2.638  50.125  1.00  0.00    -0.258 OA
HETATM   23  H6  UNL     1      24.469   4.578  48.863  1.00  0.00     0.170 HD
BRANCH  21  24
HETATM   24  C4  UNL     1      27.190   4.594  48.955  1.00  0.00    -0.003 C 
HETATM   25  C3  UNL     1      27.954   5.430  48.479  1.00  0.00    -0.070 C 
BRANCH  25  26
HETATM   26  C2  UNL     1      28.884   6.418  47.889  1.00  0.00     0.261 C 
BRANCH  26  27
HETATM   27  O1  UNL     1      30.149   6.303  48.471  1.00  0.00    -0.384 OA
HETATM   28  C1  UNL     1      30.901   5.340  47.828  1.00  0.00     0.202 C 
ENDBRANCH  26  27
ENDBRANCH  25  26
ENDBRANCH  21  24
ENDBRANCH   1  20
TORSDOF 6
ENDMDL
MODEL 2
REMARK VINA RESULT:      -7.9      2.565      4.338
REMARK  6 active torsions:
REMARK  status: ('A' for Active; 'I' for Inactive)
REMARK    1  A    between atoms: O1_2  and  C2_3 
REMARK    2  A    between atoms: C2_3  and  C3_4 
REMARK    3  A    between atoms: C4_5  and  C5_6 
REMARK       I    between atoms: C5_6  and  N1_8 
REMARK    4  A    between atoms: N1_8  and  C6_9 
REMARK    5  A    between atoms: C13_18  and  N4_19 
REMARK    6  A    between atoms: N4_19  and  C14_20 
ROOT
HETATM    1  C6  UNL     1      26.739   2.195  52.137  1.00  0.00     0.036 A 
HETATM    2  C7  UNL     1      27.737   1.488  52.772  1.00  0.00     0.032 A 
HETATM    3  C8  UNL     1      27.447   0.426  53.626  1.00  0.00     0.035 A 
HETATM    4  C9  UNL     1      26.095   0.125  53.796  1.00  0.00     0.069 A 
HETATM    5  N2  UNL     1      25.871  -0.896  54.632  1.00  0.00    -0.259 NA
HETATM    6  C10 UNL     1      24.625  -1.312  54.908  1.00  0.00     0.142 A 
HETATM    7  C11 UNL     1      23.585  -0.659  54.312  1.00  0.00     0.089 A 
HETATM    8  C12 UNL     1      22.206  -0.996  54.543  1.00  0.00     0.103 C 
HETATM    9  N3  UNL     1      21.087  -1.281  54.746  1.00  0.00    -0.191 NA
HETATM   10  C13 UNL     1      23.731   0.401  53.442  1.00  0.00     0.067 A 
HETATM   11  C18 UNL     1      25.042   0.800  53.181  1.00  0.00     0.023 A 
HETATM   12  C19 UNL     1      25.437   1.839  52.351  1.00  0.00     0.045 A 
ENDROOT
BRANCH  10  13
HETATM   13  N4  UNL     1      22.829   1.216  52.739  1.00  0.00    -0.358 N 
HETATM   14  H10 UNL     1      22.539   2.113  53.191  1.00  0.00     0.166 HD
BRANCH  13  15
HETATM   15  C14 UNL     1      22.178   1.110  51.492  1.00  0.00     0.008 A 
HETATM   16  C15 UNL     1      22.278   1.552  50.277  1.00  0.00     0.014 A 
HETATM   17  C16 UNL     1      21.111   0.834  49.800  1.00  0.00     0.088 A 
HETATM   18 BR1  UNL     1      19.581   1.953  49.394  1.00  0.00    -0.086 Br
HETATM   19  C17 UNL     1      21.001   0.308  51.179  1.00  0.00     0.076 A 
ENDBRANCH  13  15
ENDBRANCH  10  13
BRANCH   1  20
HETATM   20  N1  UNL     1      27.027   3.287  51.277  1.00  0.00    -0.316 N 
HETATM   21  C5  UNL     1      26.409   3.576  50.030  1.00  0.00     0.301 C 
HETATM   22  O2  UNL     1      25.483   2.851  49.522  1.00  0.00    -0.258 OA
HETATM   23  H6  UNL     1      27.782   3.893  51.665  1.00  0.00     0.170 HD
BRANCH  21  24
HETATM   24  C4  UNL     1      26.803   4.724  49.264  1.00  0.00    -0.003 C 
HETATM   25  C3  UNL     1      27.145   5.703  48.606  1.00  0.00    -0.070 C 
BRANCH  25  26
HETATM   26  C2  UNL     1      27.561   6.898  47.836  1.00  0.00     0.261 C 
BRANCH  26  27
HETATM   27  O1  UNL     1      28.681   7.490  48.426  1.00  0.00    -0.384 OA
HETATM   28  C1  UNL     1      29.805   6.712  48.238  1.00  0.00     0.202 C 
ENDBRANCH  26  27
ENDBRANCH  25  26
ENDBRANCH  21  24
ENDBRANCH   1  20
TORSDOF 6
ENDMDL
MODEL 3
REMARK VINA RESULT:      -7.8      3.728      7.459
REMARK  6 active torsions:
REMARK  status: ('A' for Active; 'I' for Inactive)
REMARK    1  A    between atoms: O1_2  and  C2_3 
REMARK    2  A    between atoms: C2_3  and  C3_4 
REMARK    3  A    between atoms: C4_5  and  C5_6 
REMARK       I    between atoms: C5_6  and  N1_8 
REMARK    4  A    between atoms: N1_8  and  C6_9 
REMARK    5  A    between atoms: C13_18  and  N4_19 
REMARK    6  A    between atoms: N4_19  and  C14_20 
ROOT
HETATM    1  C6  UNL     1      22.255   0.423  53.341  1.00  0.00     0.036 A 
HETATM    2  C7  UNL     1      22.438  -0.739  54.060  1.00  0.00     0.032 A 
HETATM    3  C8  UNL     1      23.697  -1.122  54.518  1.00  0.00     0.035 A 
HETATM    4  C9  UNL     1      24.752  -0.263  54.206  1.00  0.00     0.069 A 
HETATM    5  N2  UNL     1      25.940  -0.681  54.661  1.00  0.00    -0.259 NA
HETATM    6  C10 UNL     1      27.059   0.026  54.443  1.00  0.00     0.142 A 
HETATM    7  C11 UNL     1      26.954   1.190  53.739  1.00  0.00     0.089 A 
HETATM    8  C12 UNL     1      28.082   2.026  53.424  1.00  0.00     0.103 C 
HETATM    9  N3  UNL     1      29.012   2.693  53.171  1.00  0.00    -0.191 NA
HETATM   10  C13 UNL     1      25.771   1.689  53.236  1.00  0.00     0.067 A 
HETATM   11  C18 UNL     1      24.632   0.923  53.485  1.00  0.00     0.023 A 
HETATM   12  C19 UNL     1      23.338   1.214  53.076  1.00  0.00     0.045 A 
ENDROOT
BRANCH  10  13
HETATM   13  N4  UNL     1      25.433   2.828  52.487  1.00  0.00    -0.358 N 
HETATM   14  H10 UNL     1      24.909   3.588  52.977  1.00  0.00     0.166 HD
BRANCH  13  15
HETATM   15  C14 UNL     1      25.640   3.217  51.147  1.00  0.00     0.008 A 
HETATM   16  C15 UNL     1      26.443   2.983  50.156  1.00  0.00     0.014 A 
HETATM   17  C16 UNL     1      25.775   3.899  49.251  1.00  0.00     0.088 A 
HETATM   18 BR1  UNL     1      26.778   5.507  48.840  1.00  0.00    -0.086 Br
HETATM   19  C17 UNL     1      24.842   4.159  50.370  1.00  0.00     0.076 A 
ENDBRANCH  13  15
ENDBRANCH  10  13
BRANCH   1  20
HETATM   20  N1  UNL     1      20.978   0.811  52.859  1.00  0.00    -0.316 N 
HETATM   21  C5  UNL     1      20.502   0.702  51.524  1.00  0.00     0.301 C 
HETATM   22  O2  UNL     1      21.204   0.219  50.567  1.00  0.00    -0.258 OA
HETATM   23  H6  UNL     1      20.386   1.212  53.618  1.00  0.00     0.170 HD
BRANCH  21  24
HETATM   24  C4  UNL     1      19.178   1.138  51.178  1.00  0.00    -0.003 C 
HETATM   25  C3  UNL     1      18.047   1.509  50.878  1.00  0.00    -0.070 C 
BRANCH  25  26
HETATM   26  C2  UNL     1      16.690   1.982  50.522  1.00  0.00     0.261 C 
BRANCH  26  27
HETATM   27  O1  UNL     1      16.078   2.576  51.628  1.00  0.00    -0.384 OA
HETATM   28  C1  UNL     1      16.382   3.921  51.696  1.00  0.00     0.202 C 
ENDBRANCH  26  27
ENDBRANCH  25  26
ENDBRANCH  21  24
ENDBRANCH   1  20
TORSDOF 6
ENDMDL
MODEL 4
REMARK VINA RESULT:      -7.6      4.397      8.224
REMARK  6 active torsions:
REMARK  status: ('A' for Active; 'I' for Inactive)
REMARK    1  A    between atoms: O1_2  and  C2_3 
REMARK    2  A    between atoms: C2_3  and  C3_4 
REMARK    3  A    between atoms: C4_5  and  C5_6 
REMARK       I    between atoms: C5_6  and  N1_8 
REMARK    4  A    between atoms: N1_8  and  C6_9 
REMARK    5  A    between atoms: C13_18  and  N4_19 
REMARK    6  A    between atoms: N4_19  and  C14_20 
ROOT
HETATM    1  C6  UNL     1      22.296  -0.806  53.675  1.00  0.00     0.036 A 
HETATM    2  C7  UNL     1      22.582  -1.511  54.824  1.00  0.00     0.032 A 
HETATM    3  C8  UNL     1      23.830  -1.429  55.437  1.00  0.00     0.035 A 
HETATM    4  C9  UNL     1      24.765  -0.596  54.820  1.00  0.00     0.069 A 
HETATM    5  N2  UNL     1      25.949  -0.560  55.444  1.00  0.00    -0.259 NA
HETATM    6  C10 UNL     1      26.960   0.190  54.979  1.00  0.00     0.142 A 
HETATM    7  C11 UNL     1      26.748   0.918  53.844  1.00  0.00     0.089 A 
HETATM    8  C12 UNL     1      27.758   1.743  53.236  1.00  0.00     0.103 C 
HETATM    9  N3  UNL     1      28.594   2.407  52.752  1.00  0.00    -0.191 NA
HETATM   10  C13 UNL     1      25.561   0.934  53.143  1.00  0.00     0.067 A 
HETATM   11  C18 UNL     1      24.536   0.142  53.661  1.00  0.00     0.023 A 
HETATM   12  C19 UNL     1      23.263  -0.009  53.130  1.00  0.00     0.045 A 
ENDROOT
BRANCH  10  13
HETATM   13  N4  UNL     1      25.129   1.577  51.972  1.00  0.00    -0.358 N 
HETATM   14  H10 UNL     1      25.452   1.182  51.059  1.00  0.00     0.166 HD
BRANCH  13  15
HETATM   15  C14 UNL     1      24.315   2.700  51.712  1.00  0.00     0.008 A 
HETATM   16  C15 UNL     1      23.951   3.814  52.266  1.00  0.00     0.014 A 
HETATM   17  C16 UNL     1      23.102   4.217  51.162  1.00  0.00     0.088 A 
HETATM   18 BR1  UNL     1      21.200   4.159  51.540  1.00  0.00    -0.086 Br
HETATM   19  C17 UNL     1      23.526   2.957  50.513  1.00  0.00     0.076 A 
ENDBRANCH  13  15
ENDBRANCH  10  13
BRANCH   1  20
HETATM   20  N1  UNL     1      21.031  -0.897  53.037  1.00  0.00    -0.316 N 
HETATM   21  C5  UNL     1      20.041   0.120  52.960  1.00  0.00     0.301 C 
HETATM   22  O2  UNL     1      20.187   1.281  53.481  1.00  0.00    -0.258 OA
HETATM   23  H6  UNL     1      20.884  -1.836  52.607  1.00  0.00     0.170 HD
BRANCH  21  24
HETATM   24  C4  UNL     1      18.800  -0.114  52.277  1.00  0.00    -0.003 C 
HETATM   25  C3  UNL     1      17.738  -0.309  51.692  1.00  0.00    -0.070 C 
BRANCH  25  26
HETATM   26  C2  UNL     1      16.448  -0.559  51.009  1.00  0.00     0.261 C 
BRANCH  26  27
HETATM   27  O1  UNL     1      15.506   0.403  51.383  1.00  0.00    -0.384 OA
HETATM   28  C1  UNL     1      15.137   0.243  52.703  1.00  0.00     0.202 C 
ENDBRANCH  26  27
ENDBRANCH  25  26
ENDBRANCH  21  24
ENDBRANCH   1  20
TORSDOF 6
ENDMDL
MODEL 5
REMARK VINA RESULT:      -7.6      3.859      8.183
REMARK  6 active torsions:
REMARK  status: ('A' for Active; 'I' for Inactive)
REMARK    1  A    between atoms: O1_2  and  C2_3 
REMARK    2  A    between atoms: C2_3  and  C3_4 
REMARK    3  A    between atoms: C4_5  and  C5_6 
REMARK       I    between atoms: C5_6  and  N1_8 
REMARK    4  A    between atoms: N1_8  and  C6_9 
REMARK    5  A    between atoms: C13_18  and  N4_19 
REMARK    6  A    between atoms: N4_19  and  C14_20 
ROOT
HETATM    1  C6  UNL     1      25.779   3.867  49.603  1.00  0.00     0.036 A 
HETATM    2  C7  UNL     1      24.454   4.038  49.263  1.00  0.00     0.032 A 
HETATM    3  C8  UNL     1      23.999   5.216  48.675  1.00  0.00     0.035 A 
HETATM    4  C9  UNL     1      24.960   6.203  48.454  1.00  0.00     0.069 A 
HETATM    5  N2  UNL     1      24.469   7.317  47.895  1.00  0.00    -0.259 NA
HETATM    6  C10 UNL     1      25.260   8.366  47.619  1.00  0.00     0.142 A 
HETATM    7  C11 UNL     1      26.585   8.267  47.928  1.00  0.00     0.089 A 
HETATM    8  C12 UNL     1      27.529   9.329  47.699  1.00  0.00     0.103 C 
HETATM    9  N3  UNL     1      28.283  10.206  47.511  1.00  0.00    -0.191 NA
HETATM   10  C13 UNL     1      27.168   7.158  48.504  1.00  0.00     0.067 A 
HETATM   11  C18 UNL     1      26.311   6.091  48.773  1.00  0.00     0.023 A 
HETATM   12  C19 UNL     1      26.661   4.879  49.353  1.00  0.00     0.045 A 
ENDROOT
BRANCH  10  13
HETATM   13  N4  UNL     1      28.474   6.845  48.914  1.00  0.00    -0.358 N 
HETATM   14  H10 UNL     1      28.695   6.943  49.931  1.00  0.00     0.166 HD
BRANCH  13  15
HETATM   15  C14 UNL     1      29.634   6.404  48.243  1.00  0.00     0.008 A 
HETATM   16  C15 UNL     1      30.204   5.304  47.860  1.00  0.00     0.014 A 
HETATM   17  C16 UNL     1      31.347   5.970  47.267  1.00  0.00     0.088 A 
HETATM   18 BR1  UNL     1      33.012   5.737  48.233  1.00  0.00    -0.086 Br
HETATM   19  C17 UNL     1      30.695   7.232  47.682  1.00  0.00     0.076 A 
ENDBRANCH  13  15
ENDBRANCH  10  13
BRANCH   1  20
HETATM   20  N1  UNL     1      26.246   2.675  50.217  1.00  0.00    -0.316 N 
HETATM   21  C5  UNL     1      25.927   2.206  51.520  1.00  0.00     0.301 C 
HETATM   22  O2  UNL     1      25.148   2.834  52.320  1.00  0.00    -0.258 OA
HETATM   23  H6  UNL     1      26.888   2.145  49.588  1.00  0.00     0.170 HD
BRANCH  21  24
HETATM   24  C4  UNL     1      26.477   0.974  52.012  1.00  0.00    -0.003 C 
HETATM   25  C3  UNL     1      26.951  -0.076  52.436  1.00  0.00    -0.070 C 
BRANCH  25  26
HETATM   26  C2  UNL     1      27.530  -1.349  52.922  1.00  0.00     0.261 C 
BRANCH  26  27
HETATM   27  O1  UNL     1      28.380  -1.113  54.007  1.00  0.00    -0.384 OA
HETATM   28  C1  UNL     1      29.698  -1.077  53.600  1.00  0.00     0.202 C 
ENDBRANCH  26  27
ENDBRANCH  25  26
ENDBRANCH  21  24
ENDBRANCH   1  20
TORSDOF 6
ENDMDL
MODEL 6
REMARK VINA RESULT:      -7.4      3.063      4.568
REMARK  6 active torsions:
REMARK  status: ('A' for Active; 'I' for Inactive)
REMARK    1  A    between atoms: O1_2  and  C2_3 
REMARK    2  A    between atoms: C2_3  and  C3_4 
REMARK    3  A    between atoms: C4_5  and  C5_6 
REMARK       I    between atoms: C5_6  and  N1_8 
REMARK    4  A    between atoms: N1_8  and  C6_9 
REMARK    5  A    between atoms: C13_18  and  N4_19 
REMARK    6  A    between atoms: N4_19  and  C14_20 
ROOT
HETATM    1  C6  UNL     1      25.588   3.064  51.150  1.00  0.00     0.036 A 
HETATM    2  C7  UNL     1      26.786   2.399  51.292  1.00  0.00     0.032 A 
HETATM    3  C8  UNL     1      26.882   1.217  52.022  1.00  0.00     0.035 A 
HETATM    4  C9  UNL     1      25.697   0.751  52.595  1.00  0.00     0.069 A 
HETATM    5  N2  UNL     1      25.846  -0.383  53.292  1.00  0.00    -0.259 NA
HETATM    6  C10 UNL     1      24.805  -0.962  53.911  1.00  0.00     0.142 A 
HETATM    7  C11 UNL     1      23.585  -0.360  53.811  1.00  0.00     0.089 A 
HETATM    8  C12 UNL     1      22.399  -0.873  54.445  1.00  0.00     0.103 C 
HETATM    9  N3  UNL     1      21.444  -1.301  54.972  1.00  0.00    -0.191 NA
HETATM   10  C13 UNL     1      23.349   0.806  53.115  1.00  0.00     0.067 A 
HETATM   11  C18 UNL     1      24.457   1.375  52.487  1.00  0.00     0.023 A 
HETATM   12  C19 UNL     1      24.470   2.544  51.739  1.00  0.00     0.045 A 
ENDROOT
BRANCH  10  13
HETATM   13  N4  UNL     1      22.210   1.596  52.894  1.00  0.00    -0.358 N 
HETATM   14  H10 UNL     1      22.183   2.539  53.346  1.00  0.00     0.166 HD
BRANCH  13  15
HETATM   15  C14 UNL     1      21.015   1.414  52.165  1.00  0.00     0.008 A 
HETATM   16  C15 UNL     1      19.834   1.936  52.044  1.00  0.00     0.014 A 
HETATM   17  C16 UNL     1      19.398   0.993  51.032  1.00  0.00     0.088 A 
HETATM   18 BR1  UNL     1      18.066  -0.282  51.633  1.00  0.00    -0.086 Br
HETATM   19  C17 UNL     1      20.750   0.402  51.149  1.00  0.00     0.076 A 
ENDBRANCH  13  15
ENDBRANCH  10  13
BRANCH   1  20
HETATM   20  N1  UNL     1      25.487   4.277  50.420  1.00  0.00    -0.316 N 
HETATM   21  C5  UNL     1      26.353   4.723  49.385  1.00  0.00     0.301 C 
HETATM   22  O2  UNL     1      27.364   4.050  48.978  1.00  0.00    -0.258 OA
HETATM   23  H6  UNL     1      24.672   4.848  50.734  1.00  0.00     0.170 HD
BRANCH  21  24
HETATM   24  C4  UNL     1      26.127   5.981  48.730  1.00  0.00    -0.003 C 
HETATM   25  C3  UNL     1      25.940   7.058  48.171  1.00  0.00    -0.070 C 
BRANCH  25  26
HETATM   26  C2  UNL     1      25.697   8.364  47.516  1.00  0.00     0.261 C 
BRANCH  26  27
HETATM   27  O1  UNL     1      26.886   8.869  46.984  1.00  0.00    -0.384 OA
HETATM   28  C1  UNL     1      27.150  10.130  47.478  1.00  0.00     0.202 C 
ENDBRANCH  26  27
ENDBRANCH  25  26
ENDBRANCH  21  24
ENDBRANCH   1  20
TORSDOF 6
ENDMDL
MODEL 7
REMARK VINA RESULT:      -7.4      4.639      8.925
REMARK  6 active torsions:
REMARK  status: ('A' for Active; 'I' for Inactive)
REMARK    1  A    between atoms: O1_2  and  C2_3 
REMARK    2  A    between atoms: C2_3  and  C3_4 
REMARK    3  A    between atoms: C4_5  and  C5_6 
REMARK       I    between atoms: C5_6  and  N1_8 
REMARK    4  A    between atoms: N1_8  and  C6_9 
REMARK    5  A    between atoms: C13_18  and  N4_19 
REMARK    6  A    between atoms: N4_19  and  C14_20 
ROOT
HETATM    1  C6  UNL     1      20.934  -0.364  53.700  1.00  0.00     0.036 A 
HETATM    2  C7  UNL     1      21.540  -1.262  54.550  1.00  0.00     0.032 A 
HETATM    3  C8  UNL     1      22.927  -1.341  54.659  1.00  0.00     0.035 A 
HETATM    4  C9  UNL     1      23.657  -0.461  53.859  1.00  0.00     0.069 A 
HETATM    5  N2  UNL     1      24.983  -0.584  53.995  1.00  0.00    -0.259 NA
HETATM    6  C10 UNL     1      25.830   0.185  53.294  1.00  0.00     0.142 A 
HETATM    7  C11 UNL     1      25.300   1.101  52.432  1.00  0.00     0.089 A 
HETATM    8  C12 UNL     1      26.103   1.969  51.611  1.00  0.00     0.103 C 
HETATM    9  N3  UNL     1      26.772   2.664  50.946  1.00  0.00    -0.191 NA
HETATM   10  C13 UNL     1      23.949   1.289  52.234  1.00  0.00     0.067 A 
HETATM   11  C18 UNL     1      23.104   0.469  52.982  1.00  0.00     0.023 A 
HETATM   12  C19 UNL     1      21.716   0.468  52.949  1.00  0.00     0.045 A 
ENDROOT
BRANCH  10  13
HETATM   13  N4  UNL     1      23.193   2.137  51.409  1.00  0.00    -0.358 N 
HETATM   14  H10 UNL     1      22.702   2.940  51.865  1.00  0.00     0.166 HD
BRANCH  13  15
HETATM   15  C14 UNL     1      22.917   2.170  50.025  1.00  0.00     0.008 A 
HETATM   16  C15 UNL     1      23.330   2.751  48.942  1.00  0.00     0.014 A 
HETATM   17  C16 UNL     1      22.374   2.080  48.083  1.00  0.00     0.088 A 
HETATM   18 BR1  UNL     1      20.969   3.223  47.389  1.00  0.00    -0.086 Br
HETATM   19  C17 UNL     1      21.908   1.397  49.310  1.00  0.00     0.076 A 
ENDBRANCH  13  15
ENDBRANCH  10  13
BRANCH   1  20
HETATM   20  N1  UNL     1      19.522  -0.288  53.573  1.00  0.00    -0.316 N 
HETATM   21  C5  UNL     1      18.778  -0.193  52.365  1.00  0.00     0.301 C 
HETATM   22  O2  UNL     1      19.324  -0.164  51.206  1.00  0.00    -0.258 OA
HETATM   23  H6  UNL     1      19.051  -0.306  54.503  1.00  0.00     0.170 HD
BRANCH  21  24
HETATM   24  C4  UNL     1      17.344  -0.124  52.389  1.00  0.00    -0.003 C 
HETATM   25  C3  UNL     1      16.118  -0.062  52.405  1.00  0.00    -0.070 C 
BRANCH  25  26
HETATM   26  C2  UNL     1      14.641   0.023  52.450  1.00  0.00     0.261 C 
BRANCH  26  27
HETATM   27  O1  UNL     1      14.223   0.562  53.670  1.00  0.00    -0.384 OA
HETATM   28  C1  UNL     1      12.919   0.201  53.947  1.00  0.00     0.202 C 
ENDBRANCH  26  27
ENDBRANCH  25  26
ENDBRANCH  21  24
ENDBRANCH   1  20
TORSDOF 6
ENDMDL
MODEL 8
REMARK VINA RESULT:      -7.4      2.841      4.596
REMARK  6 active torsions:
REMARK  status: ('A' for Active; 'I' for Inactive)
REMARK    1  A    between atoms: O1_2  and  C2_3 
REMARK    2  A    between atoms: C2_3  and  C3_4 
REMARK    3  A    between atoms: C4_5  and  C5_6 
REMARK       I    between atoms: C5_6  and  N1_8 
REMARK    4  A    between atoms: N1_8  and  C6_9 
REMARK    5  A    between atoms: C13_18  and  N4_19 
REMARK    6  A    between atoms: N4_19  and  C14_20 
ROOT
HETATM    1  C6  UNL     1      25.633   1.293  52.292  1.00  0.00     0.036 A 
HETATM    2  C7  UNL     1      26.231   0.566  53.298  1.00  0.00     0.032 A 
HETATM    3  C8  UNL     1      25.492  -0.270  54.132  1.00  0.00     0.035 A 
HETATM    4  C9  UNL     1      24.119  -0.325  53.886  1.00  0.00     0.069 A 
HETATM    5  N2  UNL     1      23.455  -1.136  54.719  1.00  0.00    -0.259 NA
HETATM    6  C10 UNL     1      22.126  -1.299  54.622  1.00  0.00     0.142 A 
HETATM    7  C11 UNL     1      21.466  -0.610  53.647  1.00  0.00     0.089 A 
HETATM    8  C12 UNL     1      20.042  -0.686  53.454  1.00  0.00     0.103 C 
HETATM    9  N3  UNL     1      18.880  -0.755  53.314  1.00  0.00    -0.191 NA
HETATM   10  C13 UNL     1      22.075   0.243  52.751  1.00  0.00     0.067 A 
HETATM   11  C18 UNL     1      23.456   0.383  52.886  1.00  0.00     0.023 A 
HETATM   12  C19 UNL     1      24.283   1.186  52.112  1.00  0.00     0.045 A 
ENDROOT
BRANCH  10  13
HETATM   13  N4  UNL     1      21.608   1.049  51.701  1.00  0.00    -0.358 N 
HETATM   14  H10 UNL     1      21.756   0.702  50.725  1.00  0.00     0.166 HD
BRANCH  13  15
HETATM   15  C14 UNL     1      20.946   2.294  51.639  1.00  0.00     0.008 A 
HETATM   16  C15 UNL     1      20.029   2.965  52.264  1.00  0.00     0.014 A 
HETATM   17  C16 UNL     1      20.114   4.116  51.385  1.00  0.00     0.088 A 
HETATM   18 BR1  UNL     1      18.585   4.358  50.218  1.00  0.00    -0.086 Br
HETATM   19  C17 UNL     1      21.176   3.366  50.677  1.00  0.00     0.076 A 
ENDBRANCH  13  15
ENDBRANCH  10  13
BRANCH   1  20
HETATM   20  N1  UNL     1      26.378   2.159  51.449  1.00  0.00    -0.316 N 
HETATM   21  C5  UNL     1      25.864   3.005  50.429  1.00  0.00     0.301 C 
HETATM   22  O2  UNL     1      24.617   3.084  50.145  1.00  0.00    -0.258 OA
HETATM   23  H6  UNL     1      27.399   2.112  51.656  1.00  0.00     0.170 HD
BRANCH  21  24
HETATM   24  C4  UNL     1      26.742   3.833  49.650  1.00  0.00    -0.003 C 
HETATM   25  C3  UNL     1      27.496   4.536  48.984  1.00  0.00    -0.070 C 
BRANCH  25  26
HETATM   26  C2  UNL     1      28.408   5.401  48.201  1.00  0.00     0.261 C 
BRANCH  26  27
HETATM   27  O1  UNL     1      29.696   5.364  48.742  1.00  0.00    -0.384 OA
HETATM   28  C1  UNL     1      30.649   5.525  47.757  1.00  0.00     0.202 C 
ENDBRANCH  26  27
ENDBRANCH  25  26
ENDBRANCH  21  24
ENDBRANCH   1  20
TORSDOF 6
ENDMDL
MODEL 9
REMARK VINA RESULT:      -7.1      4.206      5.904
REMARK  6 active torsions:
REMARK  status: ('A' for Active; 'I' for Inactive)
REMARK    1  A    between atoms: O1_2  and  C2_3 
REMARK    2  A    between atoms: C2_3  and  C3_4 
REMARK    3  A    between atoms: C4_5  and  C5_6 
REMARK       I    between atoms: C5_6  and  N1_8 
REMARK    4  A    between atoms: N1_8  and  C6_9 
REMARK    5  A    between atoms: C13_18  and  N4_19 
REMARK    6  A    between atoms: N4_19  and  C14_20 
ROOT
HETATM    1  C6  UNL     1      24.110   4.046  50.368  1.00  0.00     0.036 A 
HETATM    2  C7  UNL     1      25.348   4.104  49.765  1.00  0.00     0.032 A 
HETATM    3  C8  UNL     1      26.385   3.256  50.148  1.00  0.00     0.035 A 
HETATM    4  C9  UNL     1      26.094   2.352  51.171  1.00  0.00     0.069 A 
HETATM    5  N2  UNL     1      27.126   1.568  51.506  1.00  0.00    -0.259 NA
HETATM    6  C10 UNL     1      27.016   0.646  52.475  1.00  0.00     0.142 A 
HETATM    7  C11 UNL     1      25.817   0.531  53.116  1.00  0.00     0.089 A 
HETATM    8  C12 UNL     1      25.580  -0.405  54.183  1.00  0.00     0.103 C 
HETATM    9  N3  UNL     1      25.406  -1.169  55.055  1.00  0.00    -0.191 NA
HETATM   10  C13 UNL     1      24.708   1.299  52.832  1.00  0.00     0.067 A 
HETATM   11  C18 UNL     1      24.865   2.244  51.817  1.00  0.00     0.023 A 
HETATM   12  C19 UNL     1      23.901   3.132  51.362  1.00  0.00     0.045 A 
ENDROOT
BRANCH  10  13
HETATM   13  N4  UNL     1      23.408   1.366  53.357  1.00  0.00    -0.358 N 
HETATM   14  H10 UNL     1      23.153   2.222  53.902  1.00  0.00     0.166 HD
BRANCH  13  15
HETATM   15  C14 UNL     1      22.292   0.503  53.328  1.00  0.00     0.008 A 
HETATM   16  C15 UNL     1      21.868  -0.553  52.706  1.00  0.00     0.014 A 
HETATM   17  C16 UNL     1      20.614  -0.614  53.433  1.00  0.00     0.088 A 
HETATM   18 BR1  UNL     1      19.048  -0.159  52.383  1.00  0.00    -0.086 Br
HETATM   19  C17 UNL     1      21.098   0.580  54.161  1.00  0.00     0.076 A 
ENDBRANCH  13  15
ENDBRANCH  10  13
BRANCH   1  20
HETATM   20  N1  UNL     1      23.054   4.917  49.993  1.00  0.00    -0.316 N 
HETATM   21  C5  UNL     1      22.863   6.259  50.423  1.00  0.00     0.301 C 
HETATM   22  O2  UNL     1      23.658   6.856  51.231  1.00  0.00    -0.258 OA
HETATM   23  H6  UNL     1      22.388   4.454  49.338  1.00  0.00     0.170 HD
BRANCH  21  24
HETATM   24  C4  UNL     1      21.742   7.026  49.959  1.00  0.00    -0.003 C 
HETATM   25  C3  UNL     1      20.785   7.686  49.563  1.00  0.00    -0.070 C 
BRANCH  25  26
HETATM   26  C2  UNL     1      19.616   8.471  49.104  1.00  0.00     0.261 C 
BRANCH  26  27
HETATM   27  O1  UNL     1      19.427   9.586  49.925  1.00  0.00    -0.384 OA
HETATM   28  C1  UNL     1      20.115  10.679  49.436  1.00  0.00     0.202 C 
ENDBRANCH  26  27
ENDBRANCH  25  26
ENDBRANCH  21  24
ENDBRANCH   1  20
TORSDOF 6
ENDMDL
