MODEL 1
REMARK VINA RESULT:      -8.2      0.000      0.000
REMARK  2 active torsions:
REMARK  status: ('A' for Active; 'I' for Inactive)
REMARK    1  A    between atoms: C2_2  and  C3_3 
REMARK    2  A    between atoms: C3_3  and  N1_4 
ROOT
HETATM    1  C3  UNL     1      23.174   2.825  51.635  1.00  0.00     0.193 C 
HETATM    2  C4  UNL     1      24.312   2.657  50.697  1.00  0.00     0.045 C 
HETATM    3  C5  UNL     1      25.335   2.435  51.566  1.00  0.00     0.026 C 
HETATM    4  C6  UNL     1      26.793   2.178  51.399  1.00  0.00     0.006 C 
HETATM    5  C7  UNL     1      27.242   2.040  52.673  1.00  0.00     0.039 C 
HETATM    6  C8  UNL     1      26.547   2.108  53.994  1.00  0.00     0.136 C 
HETATM    7  C9  UNL     1      26.691   0.727  54.588  1.00  0.00     0.101 C 
HETATM    8  N2  UNL     1      27.965   0.597  54.882  1.00  0.00    -0.229 NA
HETATM    9  C10 UNL     1      29.001   1.155  54.049  1.00  0.00     0.235 C 
HETATM   10  N3  UNL     1      28.595   1.785  53.002  1.00  0.00    -0.246 NA
HETATM   11  N4  UNL     1      26.034  -0.452  54.952  1.00  0.00    -0.379 NA
HETATM   12  C11 UNL     1      24.917  -0.930  54.676  1.00  0.00     0.264 C 
HETATM   13  C12 UNL     1      23.876  -0.373  53.832  1.00  0.00     0.073 C 
HETATM   14  C13 UNL     1      22.696  -0.894  53.544  1.00  0.00     0.018 C 
HETATM   15  C14 UNL     1      22.456   0.319  52.725  1.00  0.00    -0.025 A 
HETATM   16 BR1  UNL     1      20.961   0.859  51.668  1.00  0.00    -0.123 Br
HETATM   17  C15 UNL     1      22.861   1.507  52.240  1.00  0.00     0.129 A 
ENDROOT
BRANCH   1  18
HETATM   18  C2  UNL     1      21.943   3.350  50.961  1.00  0.00     0.006 C 
HETATM   19  C1  UNL     1      21.500   4.592  51.117  1.00  0.00     0.009 C 
ENDBRANCH   1  18
BRANCH   1  20
HETATM   20  N1  UNL     1      23.441   3.768  52.708  1.00  0.00     0.093 N 
HETATM   21  H4  UNL     1      24.444   3.838  52.901  1.00  0.00     0.314 HD
HETATM   22  H5  UNL     1      22.939   3.447  53.554  1.00  0.00     0.314 HD
ENDBRANCH   1  20
TORSDOF 2
ENDMDL
MODEL 2
REMARK VINA RESULT:      -7.4      2.367      4.308
REMARK  2 active torsions:
REMARK  status: ('A' for Active; 'I' for Inactive)
REMARK    1  A    between atoms: C2_2  and  C3_3 
REMARK    2  A    between atoms: C3_3  and  N1_4 
ROOT
HETATM    1  C3  UNL     1      20.705   0.439  52.562  1.00  0.00     0.193 C 
HETATM    2  C4  UNL     1      20.807   0.312  51.087  1.00  0.00     0.045 C 
HETATM    3  C5  UNL     1      21.714   1.286  50.804  1.00  0.00     0.026 C 
HETATM    4  C6  UNL     1      22.335   1.782  49.544  1.00  0.00     0.006 C 
HETATM    5  C7  UNL     1      23.161   2.775  49.963  1.00  0.00     0.039 C 
HETATM    6  C8  UNL     1      23.458   3.326  51.321  1.00  0.00     0.136 C 
HETATM    7  C9  UNL     1      24.920   3.030  51.556  1.00  0.00     0.101 C 
HETATM    8  N2  UNL     1      25.579   3.806  50.724  1.00  0.00    -0.229 NA
HETATM    9  C10 UNL     1      25.088   4.096  49.400  1.00  0.00     0.235 C 
HETATM   10  N3  UNL     1      23.965   3.545  49.089  1.00  0.00    -0.246 NA
HETATM   11  N4  UNL     1      25.848   2.284  52.287  1.00  0.00    -0.379 NA
HETATM   12  C11 UNL     1      25.757   1.266  53.000  1.00  0.00     0.264 C 
HETATM   13  C12 UNL     1      24.576   0.484  53.317  1.00  0.00     0.073 C 
HETATM   14  C13 UNL     1      24.494  -0.598  54.072  1.00  0.00     0.018 C 
HETATM   15  C14 UNL     1      23.041  -0.592  53.773  1.00  0.00    -0.025 A 
HETATM   16 BR1  UNL     1      21.631  -1.756  54.319  1.00  0.00    -0.123 Br
HETATM   17  C15 UNL     1      21.969  -0.049  53.167  1.00  0.00     0.129 A 
ENDROOT
BRANCH   1  18
HETATM   18  C2  UNL     1      19.564  -0.347  53.132  1.00  0.00     0.006 C 
HETATM   19  C1  UNL     1      18.417  -0.535  52.490  1.00  0.00     0.009 C 
ENDBRANCH   1  18
BRANCH   1  20
HETATM   20  N1  UNL     1      20.480   1.802  53.013  1.00  0.00     0.093 N 
HETATM   21  H4  UNL     1      20.976   2.476  52.423  1.00  0.00     0.314 HD
HETATM   22  H5  UNL     1      20.810   1.879  53.992  1.00  0.00     0.314 HD
ENDBRANCH   1  20
TORSDOF 2
ENDMDL
MODEL 3
REMARK VINA RESULT:      -7.4      2.437      3.666
REMARK  2 active torsions:
REMARK  status: ('A' for Active; 'I' for Inactive)
REMARK    1  A    between atoms: C2_2  and  C3_3 
REMARK    2  A    between atoms: C3_3  and  N1_4 
ROOT
HETATM    1  C3  UNL     1      24.891   4.255  49.956  1.00  0.00     0.193 C 
HETATM    2  C4  UNL     1      26.058   3.345  49.844  1.00  0.00     0.045 C 
HETATM    3  C5  UNL     1      25.872   2.549  50.933  1.00  0.00     0.026 C 
HETATM    4  C6  UNL     1      26.623   1.399  51.509  1.00  0.00     0.006 C 
HETATM    5  C7  UNL     1      25.896   1.058  52.605  1.00  0.00     0.039 C 
HETATM    6  C8  UNL     1      24.641   1.621  53.190  1.00  0.00     0.136 C 
HETATM    7  C9  UNL     1      23.626   0.507  53.094  1.00  0.00     0.101 C 
HETATM    8  N2  UNL     1      24.019  -0.407  53.952  1.00  0.00    -0.229 NA
HETATM    9  C10 UNL     1      25.414  -0.696  54.174  1.00  0.00     0.235 C 
HETATM   10  N3  UNL     1      26.245  -0.000  53.477  1.00  0.00    -0.246 NA
HETATM   11  N4  UNL     1      22.455   0.057  52.479  1.00  0.00    -0.379 NA
HETATM   12  C11 UNL     1      21.834   0.408  51.458  1.00  0.00     0.264 C 
HETATM   13  C12 UNL     1      22.155   1.471  50.523  1.00  0.00     0.073 C 
HETATM   14  C13 UNL     1      21.489   1.831  49.440  1.00  0.00     0.018 C 
HETATM   15  C14 UNL     1      22.531   2.871  49.249  1.00  0.00    -0.025 A 
HETATM   16 BR1  UNL     1      22.757   4.206  47.904  1.00  0.00    -0.123 Br
HETATM   17  C15 UNL     1      23.661   3.486  49.643  1.00  0.00     0.129 A 
ENDROOT
BRANCH   1  18
HETATM   18  C2  UNL     1      24.979   5.423  49.023  1.00  0.00     0.006 C 
HETATM   19  C1  UNL     1      26.121   6.028  48.718  1.00  0.00     0.009 C 
ENDBRANCH   1  18
BRANCH   1  20
HETATM   20  N1  UNL     1      24.737   4.843  51.275  1.00  0.00     0.093 N 
HETATM   21  H4  UNL     1      25.573   4.696  51.848  1.00  0.00     0.314 HD
HETATM   22  H5  UNL     1      23.915   4.409  51.731  1.00  0.00     0.314 HD
ENDBRANCH   1  20
TORSDOF 2
ENDMDL
MODEL 4
REMARK VINA RESULT:      -7.2      2.672      5.851
REMARK  2 active torsions:
REMARK  status: ('A' for Active; 'I' for Inactive)
REMARK    1  A    between atoms: C2_2  and  C3_3 
REMARK    2  A    between atoms: C3_3  and  N1_4 
ROOT
HETATM    1  C3  UNL     1      25.771   2.042  52.434  1.00  0.00     0.193 C 
HETATM    2  C4  UNL     1      25.623   0.572  52.577  1.00  0.00     0.045 C 
HETATM    3  C5  UNL     1      24.296   0.470  52.858  1.00  0.00     0.026 C 
HETATM    4  C6  UNL     1      23.385  -0.676  53.135  1.00  0.00     0.006 C 
HETATM    5  C7  UNL     1      22.178  -0.086  53.333  1.00  0.00     0.039 C 
HETATM    6  C8  UNL     1      21.745   1.344  53.307  1.00  0.00     0.136 C 
HETATM    7  C9  UNL     1      20.766   1.440  52.162  1.00  0.00     0.101 C 
HETATM    8  N2  UNL     1      19.702   0.771  52.547  1.00  0.00    -0.229 NA
HETATM    9  C10 UNL     1      19.801  -0.432  53.336  1.00  0.00     0.235 C 
HETATM   10  N3  UNL     1      20.997  -0.804  53.636  1.00  0.00    -0.246 NA
HETATM   11  N4  UNL     1      20.527   1.943  50.880  1.00  0.00    -0.379 NA
HETATM   12  C11 UNL     1      21.265   2.416  49.995  1.00  0.00     0.264 C 
HETATM   13  C12 UNL     1      22.703   2.606  50.020  1.00  0.00     0.073 C 
HETATM   14  C13 UNL     1      23.476   3.105  49.071  1.00  0.00     0.018 C 
HETATM   15  C14 UNL     1      24.613   2.884  49.998  1.00  0.00    -0.025 A 
HETATM   16 BR1  UNL     1      26.482   3.223  49.814  1.00  0.00    -0.123 Br
HETATM   17  C15 UNL     1      25.098   2.464  51.180  1.00  0.00     0.129 A 
ENDROOT
BRANCH   1  18
HETATM   18  C2  UNL     1      27.204   2.475  52.381  1.00  0.00     0.006 C 
HETATM   19  C1  UNL     1      28.100   2.143  53.303  1.00  0.00     0.009 C 
ENDBRANCH   1  18
BRANCH   1  20
HETATM   20  N1  UNL     1      25.195   2.794  53.536  1.00  0.00     0.093 N 
HETATM   21  H4  UNL     1      25.919   3.115  54.185  1.00  0.00     0.314 HD
HETATM   22  H5  UNL     1      24.523   2.182  54.030  1.00  0.00     0.314 HD
ENDBRANCH   1  20
TORSDOF 2
ENDMDL
MODEL 5
REMARK VINA RESULT:      -7.1      1.518      1.858
REMARK  2 active torsions:
REMARK  status: ('A' for Active; 'I' for Inactive)
REMARK    1  A    between atoms: C2_2  and  C3_3 
REMARK    2  A    between atoms: C3_3  and  N1_4 
ROOT
HETATM    1  C3  UNL     1      23.139   4.586  51.829  1.00  0.00     0.193 C 
HETATM    2  C4  UNL     1      24.130   4.244  50.779  1.00  0.00     0.045 C 
HETATM    3  C5  UNL     1      24.966   3.420  51.468  1.00  0.00     0.026 C 
HETATM    4  C6  UNL     1      26.202   2.671  51.109  1.00  0.00     0.006 C 
HETATM    5  C7  UNL     1      26.538   2.037  52.262  1.00  0.00     0.039 C 
HETATM    6  C8  UNL     1      25.907   2.017  53.616  1.00  0.00     0.136 C 
HETATM    7  C9  UNL     1      25.479   0.586  53.832  1.00  0.00     0.101 C 
HETATM    8  N2  UNL     1      26.590  -0.102  53.967  1.00  0.00    -0.229 NA
HETATM    9  C10 UNL     1      27.776   0.207  53.208  1.00  0.00     0.235 C 
HETATM   10  N3  UNL     1      27.672   1.199  52.392  1.00  0.00    -0.246 NA
HETATM   11  N4  UNL     1      24.400  -0.295  53.950  1.00  0.00    -0.379 NA
HETATM   12  C11 UNL     1      23.190  -0.211  53.667  1.00  0.00     0.264 C 
HETATM   13  C12 UNL     1      22.471   0.910  53.088  1.00  0.00     0.073 C 
HETATM   14  C13 UNL     1      21.186   0.985  52.789  1.00  0.00     0.018 C 
HETATM   15  C14 UNL     1      21.463   2.366  52.322  1.00  0.00    -0.025 A 
HETATM   16 BR1  UNL     1      20.325   3.703  51.575  1.00  0.00    -0.123 Br
HETATM   17  C15 UNL     1      22.317   3.385  52.113  1.00  0.00     0.129 A 
ENDROOT
BRANCH   1  18
HETATM   18  C2  UNL     1      22.231   5.707  51.423  1.00  0.00     0.006 C 
HETATM   19  C1  UNL     1      22.655   6.795  50.791  1.00  0.00     0.009 C 
ENDBRANCH   1  18
BRANCH   1  20
HETATM   20  N1  UNL     1      23.743   5.031  53.074  1.00  0.00     0.093 N 
HETATM   21  H4  UNL     1      24.746   4.826  53.095  1.00  0.00     0.314 HD
HETATM   22  H5  UNL     1      23.267   4.548  53.856  1.00  0.00     0.314 HD
ENDBRANCH   1  20
TORSDOF 2
ENDMDL
MODEL 6
REMARK VINA RESULT:      -7.0      2.595      4.700
REMARK  2 active torsions:
REMARK  status: ('A' for Active; 'I' for Inactive)
REMARK    1  A    between atoms: C2_2  and  C3_3 
REMARK    2  A    between atoms: C3_3  and  N1_4 
ROOT
HETATM    1  C3  UNL     1      23.259   3.306  49.784  1.00  0.00     0.193 C 
HETATM    2  C4  UNL     1      22.392   3.879  50.843  1.00  0.00     0.045 C 
HETATM    3  C5  UNL     1      22.082   2.764  51.558  1.00  0.00     0.026 C 
HETATM    4  C6  UNL     1      21.253   2.513  52.770  1.00  0.00     0.006 C 
HETATM    5  C7  UNL     1      21.365   1.174  52.963  1.00  0.00     0.039 C 
HETATM    6  C8  UNL     1      22.103   0.111  52.216  1.00  0.00     0.136 C 
HETATM    7  C9  UNL     1      23.127  -0.419  53.190  1.00  0.00     0.101 C 
HETATM    8  N2  UNL     1      22.445  -1.064  54.109  1.00  0.00    -0.229 NA
HETATM    9  C10 UNL     1      21.158  -0.602  54.568  1.00  0.00     0.235 C 
HETATM   10  N3  UNL     1      20.726   0.480  54.019  1.00  0.00    -0.246 NA
HETATM   11  N4  UNL     1      24.485  -0.507  53.510  1.00  0.00    -0.379 NA
HETATM   12  C11 UNL     1      25.497   0.110  53.126  1.00  0.00     0.264 C 
HETATM   13  C12 UNL     1      25.589   1.186  52.157  1.00  0.00     0.073 C 
HETATM   14  C13 UNL     1      26.671   1.835  51.762  1.00  0.00     0.018 C 
HETATM   15  C14 UNL     1      25.773   2.618  50.877  1.00  0.00    -0.025 A 
HETATM   16 BR1  UNL     1      26.126   4.032  49.644  1.00  0.00    -0.123 Br
HETATM   17  C15 UNL     1      24.546   2.895  50.398  1.00  0.00     0.129 A 
ENDROOT
BRANCH   1  18
HETATM   18  C2  UNL     1      23.541   4.278  48.680  1.00  0.00     0.006 C 
HETATM   19  C1  UNL     1      22.602   4.755  47.871  1.00  0.00     0.009 C 
ENDBRANCH   1  18
BRANCH   1  20
HETATM   20  N1  UNL     1      22.680   2.149  49.122  1.00  0.00     0.093 N 
HETATM   21  H4  UNL     1      23.099   2.000  48.200  1.00  0.00     0.314 HD
HETATM   22  H5  UNL     1      21.661   2.307  49.026  1.00  0.00     0.314 HD
ENDBRANCH   1  20
TORSDOF 2
ENDMDL
MODEL 7
REMARK VINA RESULT:      -6.9      2.886      5.915
REMARK  2 active torsions:
REMARK  status: ('A' for Active; 'I' for Inactive)
REMARK    1  A    between atoms: C2_2  and  C3_3 
REMARK    2  A    between atoms: C3_3  and  N1_4 
ROOT
HETATM    1  C3  UNL     1      24.497   1.972  52.233  1.00  0.00     0.193 C 
HETATM    2  C4  UNL     1      23.921   3.238  52.750  1.00  0.00     0.045 C 
HETATM    3  C5  UNL     1      22.631   3.127  52.332  1.00  0.00     0.026 C 
HETATM    4  C6  UNL     1      21.428   3.996  52.460  1.00  0.00     0.006 C 
HETATM    5  C7  UNL     1      20.457   3.294  51.820  1.00  0.00     0.039 C 
HETATM    6  C8  UNL     1      20.469   1.972  51.122  1.00  0.00     0.136 C 
HETATM    7  C9  UNL     1      19.535   1.095  51.920  1.00  0.00     0.101 C 
HETATM    8  N2  UNL     1      18.330   1.576  51.712  1.00  0.00    -0.229 NA
HETATM    9  C10 UNL     1      18.085   2.992  51.582  1.00  0.00     0.235 C 
HETATM   10  N3  UNL     1      19.123   3.748  51.685  1.00  0.00    -0.246 NA
HETATM   11  N4  UNL     1      19.425  -0.005  52.775  1.00  0.00    -0.379 NA
HETATM   12  C11 UNL     1      20.248  -0.644  53.457  1.00  0.00     0.264 C 
HETATM   13  C12 UNL     1      21.678  -0.432  53.586  1.00  0.00     0.073 C 
HETATM   14  C13 UNL     1      22.540  -1.116  54.318  1.00  0.00     0.018 C 
HETATM   15  C14 UNL     1      23.582  -0.199  53.794  1.00  0.00    -0.025 A 
HETATM   16 BR1  UNL     1      25.462  -0.105  54.109  1.00  0.00    -0.123 Br
HETATM   17  C15 UNL     1      23.950   0.845  53.029  1.00  0.00     0.129 A 
ENDROOT
BRANCH   1  18
HETATM   18  C2  UNL     1      25.992   1.941  52.319  1.00  0.00     0.006 C 
HETATM   19  C1  UNL     1      26.787   2.408  51.363  1.00  0.00     0.009 C 
ENDBRANCH   1  18
BRANCH   1  20
HETATM   20  N1  UNL     1      24.199   1.728  50.832  1.00  0.00     0.093 N 
HETATM   21  H4  UNL     1      23.267   1.321  50.715  1.00  0.00     0.314 HD
HETATM   22  H5  UNL     1      24.916   1.083  50.456  1.00  0.00     0.314 HD
ENDBRANCH   1  20
TORSDOF 2
ENDMDL
MODEL 8
REMARK VINA RESULT:      -6.8      2.252      5.377
REMARK  2 active torsions:
REMARK  status: ('A' for Active; 'I' for Inactive)
REMARK    1  A    between atoms: C2_2  and  C3_3 
REMARK    2  A    between atoms: C3_3  and  N1_4 
ROOT
HETATM    1  C3  UNL     1      25.588   0.680  53.585  1.00  0.00     0.193 C 
HETATM    2  C4  UNL     1      25.416   2.137  53.805  1.00  0.00     0.045 C 
HETATM    3  C5  UNL     1      24.710   2.486  52.695  1.00  0.00     0.026 C 
HETATM    4  C6  UNL     1      24.158   3.773  52.187  1.00  0.00     0.006 C 
HETATM    5  C7  UNL     1      23.556   3.425  51.020  1.00  0.00     0.039 C 
HETATM    6  C8  UNL     1      23.416   2.113  50.317  1.00  0.00     0.136 C 
HETATM    7  C9  UNL     1      21.933   1.831  50.298  1.00  0.00     0.101 C 
HETATM    8  N2  UNL     1      21.413   2.714  49.475  1.00  0.00    -0.229 NA
HETATM    9  C10 UNL     1      21.909   4.065  49.393  1.00  0.00     0.235 C 
HETATM   10  N3  UNL     1      22.892   4.347  50.177  1.00  0.00    -0.246 NA
HETATM   11  N4  UNL     1      20.901   1.026  50.786  1.00  0.00    -0.379 NA
HETATM   12  C11 UNL     1      20.813   0.233  51.743  1.00  0.00     0.264 C 
HETATM   13  C12 UNL     1      21.827  -0.129  52.716  1.00  0.00     0.073 C 
HETATM   14  C13 UNL     1      21.719  -0.970  53.730  1.00  0.00     0.018 C 
HETATM   15  C14 UNL     1      23.136  -0.649  54.036  1.00  0.00    -0.025 A 
HETATM   16 BR1  UNL     1      24.307  -1.268  55.410  1.00  0.00    -0.123 Br
HETATM   17  C15 UNL     1      24.273   0.016  53.765  1.00  0.00     0.129 A 
ENDROOT
BRANCH   1  18
HETATM   18  C2  UNL     1      26.571   0.065  54.534  1.00  0.00     0.006 C 
HETATM   19  C1  UNL     1      27.884   0.233  54.433  1.00  0.00     0.009 C 
ENDBRANCH   1  18
BRANCH   1  20
HETATM   20  N1  UNL     1      26.090   0.347  52.263  1.00  0.00     0.093 N 
HETATM   21  H4  UNL     1      26.981   0.815  52.074  1.00  0.00     0.314 HD
HETATM   22  H5  UNL     1      25.383   0.637  51.564  1.00  0.00     0.314 HD
ENDBRANCH   1  20
TORSDOF 2
ENDMDL
MODEL 9
REMARK VINA RESULT:      -6.8      2.622      5.775
REMARK  2 active torsions:
REMARK  status: ('A' for Active; 'I' for Inactive)
REMARK    1  A    between atoms: C2_2  and  C3_3 
REMARK    2  A    between atoms: C3_3  and  N1_4 
ROOT
HETATM    1  C3  UNL     1      24.459   1.293  52.836  1.00  0.00     0.193 C 
HETATM    2  C4  UNL     1      24.705   2.621  53.450  1.00  0.00     0.045 C 
HETATM    3  C5  UNL     1      23.941   3.420  52.655  1.00  0.00     0.026 C 
HETATM    4  C6  UNL     1      23.662   4.883  52.628  1.00  0.00     0.006 C 
HETATM    5  C7  UNL     1      22.811   5.028  51.580  1.00  0.00     0.039 C 
HETATM    6  C8  UNL     1      22.227   4.043  50.620  1.00  0.00     0.136 C 
HETATM    7  C9  UNL     1      20.738   4.082  50.869  1.00  0.00     0.101 C 
HETATM    8  N2  UNL     1      20.335   5.256  50.437  1.00  0.00    -0.229 NA
HETATM    9  C10 UNL     1      21.141   6.442  50.587  1.00  0.00     0.235 C 
HETATM   10  N3  UNL     1      22.277   6.273  51.172  1.00  0.00    -0.246 NA
HETATM   11  N4  UNL     1      19.628   3.391  51.361  1.00  0.00    -0.379 NA
HETATM   12  C11 UNL     1      19.496   2.382  52.080  1.00  0.00     0.264 C 
HETATM   13  C12 UNL     1      20.527   1.551  52.672  1.00  0.00     0.073 C 
HETATM   14  C13 UNL     1      20.373   0.485  53.438  1.00  0.00     0.018 C 
HETATM   15  C14 UNL     1      21.855   0.409  53.483  1.00  0.00    -0.025 A 
HETATM   16 BR1  UNL     1      23.035  -0.813  54.352  1.00  0.00    -0.123 Br
HETATM   17  C15 UNL     1      23.065   0.884  53.137  1.00  0.00     0.129 A 
ENDROOT
BRANCH   1  18
HETATM   18  C2  UNL     1      25.392   0.239  53.349  1.00  0.00     0.006 C 
HETATM   19  C1  UNL     1      26.400  -0.251  52.637  1.00  0.00     0.009 C 
ENDBRANCH   1  18
BRANCH   1  20
HETATM   20  N1  UNL     1      24.637   1.277  51.394  1.00  0.00     0.093 N 
HETATM   21  H4  UNL     1      23.770   1.522  50.909  1.00  0.00     0.314 HD
HETATM   22  H5  UNL     1      24.943   0.329  51.114  1.00  0.00     0.314 HD
ENDBRANCH   1  20
TORSDOF 2
ENDMDL
