MODEL 1
REMARK VINA RESULT:      -8.0      0.000      0.000
REMARK  8 active torsions:
REMARK  status: ('A' for Active; 'I' for Inactive)
REMARK    1  A    between atoms: C3_3  and  C4_4 
REMARK    2  A    between atoms: C4_4  and  N1_5 
REMARK    3  A    between atoms: N1_5  and  C5_6 
REMARK    4  A    between atoms: C8_9  and  N2_10 
REMARK       I    between atoms: N2_10  and  C9_11 
REMARK    5  A    between atoms: C9_11  and  C10_13 
REMARK    6  A    between atoms: C11_14  and  C12_16 
REMARK    7  A    between atoms: C18_25  and  O2_26 
REMARK    8  A    between atoms: O2_26  and  C19_27 
ROOT
HETATM    1  C5  UNL     1      24.138   0.578  52.681  1.00  0.00     0.063 A 
HETATM    2  C6  UNL     1      24.541   1.799  52.192  1.00  0.00     0.048 A 
HETATM    3  C7  UNL     1      23.533   2.725  51.976  1.00  0.00     0.023 A 
HETATM    4  C8  UNL     1      23.786   3.990  51.488  1.00  0.00     0.070 A 
HETATM    5  C13 UNL     1      22.804   4.933  51.262  1.00  0.00     0.089 A 
HETATM    6  C14 UNL     1      23.141   6.235  50.750  1.00  0.00     0.103 C 
HETATM    7  N3  UNL     1      23.406   7.296  50.333  1.00  0.00    -0.191 NA
HETATM    8  C15 UNL     1      21.485   4.613  51.533  1.00  0.00     0.142 A 
HETATM    9  N4  UNL     1      21.232   3.377  52.010  1.00  0.00    -0.259 NA
HETATM   10  C16 UNL     1      22.203   2.462  52.227  1.00  0.00     0.071 A 
HETATM   11  C17 UNL     1      21.846   1.228  52.716  1.00  0.00     0.071 A 
HETATM   12  C18 UNL     1      22.820   0.273  52.947  1.00  0.00     0.097 A 
ENDROOT
BRANCH   4  13
HETATM   13  N2  UNL     1      25.137   4.387  51.185  1.00  0.00    -0.321 N 
HETATM   14  C9  UNL     1      25.472   3.995  49.861  1.00  0.00     0.247 C 
HETATM   15  O1  UNL     1      24.525   3.405  49.281  1.00  0.00    -0.268 OA
HETATM   16  H10 UNL     1      25.848   4.891  51.776  1.00  0.00     0.169 HD
BRANCH  14  17
HETATM   17  C10 UNL     1      26.773   4.254  49.258  1.00  0.00     0.096 C 
HETATM   18  C11 UNL     1      27.292   5.367  48.763  1.00  0.00     0.045 C 
HETATM   19 CL1  UNL     1      28.896   5.514  48.065  1.00  0.00    -0.086 Cl
BRANCH  18  20
HETATM   20  C12 UNL     1      26.697   6.714  48.666  1.00  0.00     0.273 C 
HETATM   21  F1  UNL     1      26.545   7.213  49.947  1.00  0.00    -0.250 F 
ENDBRANCH  18  20
ENDBRANCH  14  17
ENDBRANCH   4  13
BRANCH   1  22
HETATM   22  N1  UNL     1      25.193  -0.375  52.902  1.00  0.00    -0.384 N 
HETATM   23  H8  UNL     1      25.229  -1.209  52.276  1.00  0.00     0.160 HD
BRANCH  22  24
HETATM   24  C4  UNL     1      26.224  -0.302  53.909  1.00  0.00     0.147 C 
BRANCH  24  25
HETATM   25  C3  UNL     1      27.585  -0.554  53.375  1.00  0.00    -0.012 C 
HETATM   26  C2  UNL     1      28.702  -0.402  54.100  1.00  0.00    -0.033 C 
HETATM   27  C1  UNL     1      30.028  -0.685  53.464  1.00  0.00     0.036 C 
ENDBRANCH  24  25
ENDBRANCH  22  24
ENDBRANCH   1  22
BRANCH  12  28
HETATM   28  O2  UNL     1      22.587  -0.990  53.432  1.00  0.00    -0.349 OA
BRANCH  28  29
HETATM   29  C19 UNL     1      22.113  -1.087  54.776  1.00  0.00     0.171 C 
HETATM   30  C20 UNL     1      23.263  -1.440  55.702  1.00  0.00     0.034 C 
ENDBRANCH  28  29
ENDBRANCH  12  28
TORSDOF 8
ENDMDL
MODEL 2
REMARK VINA RESULT:      -7.9      3.487      5.712
REMARK  8 active torsions:
REMARK  status: ('A' for Active; 'I' for Inactive)
REMARK    1  A    between atoms: C3_3  and  C4_4 
REMARK    2  A    between atoms: C4_4  and  N1_5 
REMARK    3  A    between atoms: N1_5  and  C5_6 
REMARK    4  A    between atoms: C8_9  and  N2_10 
REMARK       I    between atoms: N2_10  and  C9_11 
REMARK    5  A    between atoms: C9_11  and  C10_13 
REMARK    6  A    between atoms: C11_14  and  C12_16 
REMARK    7  A    between atoms: C18_25  and  O2_26 
REMARK    8  A    between atoms: O2_26  and  C19_27 
ROOT
HETATM    1  C5  UNL     1      25.948  -0.101  53.750  1.00  0.00     0.063 A 
HETATM    2  C6  UNL     1      24.974   0.379  52.904  1.00  0.00     0.048 A 
HETATM    3  C7  UNL     1      25.371   1.381  52.034  1.00  0.00     0.023 A 
HETATM    4  C8  UNL     1      24.504   1.958  51.129  1.00  0.00     0.070 A 
HETATM    5  C13 UNL     1      24.870   2.957  50.250  1.00  0.00     0.089 A 
HETATM    6  C14 UNL     1      23.911   3.514  49.332  1.00  0.00     0.103 C 
HETATM    7  N3  UNL     1      23.138   3.973  48.584  1.00  0.00    -0.191 NA
HETATM    8  C15 UNL     1      26.174   3.421  50.259  1.00  0.00     0.142 A 
HETATM    9  N4  UNL     1      27.026   2.860  51.142  1.00  0.00    -0.259 NA
HETATM   10  C16 UNL     1      26.655   1.882  51.998  1.00  0.00     0.071 A 
HETATM   11  C17 UNL     1      27.596   1.372  52.861  1.00  0.00     0.071 A 
HETATM   12  C18 UNL     1      27.243   0.371  53.748  1.00  0.00     0.097 A 
ENDROOT
BRANCH   4  13
HETATM   13  N2  UNL     1      23.133   1.522  51.067  1.00  0.00    -0.321 N 
HETATM   14  C9  UNL     1      22.334   2.308  51.941  1.00  0.00     0.247 C 
HETATM   15  O1  UNL     1      23.005   3.182  52.548  1.00  0.00    -0.268 OA
HETATM   16  H10 UNL     1      22.687   0.753  50.501  1.00  0.00     0.169 HD
BRANCH  14  17
HETATM   17  C10 UNL     1      20.900   2.110  52.104  1.00  0.00     0.096 C 
HETATM   18  C11 UNL     1      19.920   2.100  51.213  1.00  0.00     0.045 C 
HETATM   19 CL1  UNL     1      18.223   1.842  51.578  1.00  0.00    -0.086 Cl
BRANCH  18  20
HETATM   20  C12 UNL     1      19.984   2.291  49.751  1.00  0.00     0.273 C 
HETATM   21  F1  UNL     1      20.529   1.152  49.188  1.00  0.00    -0.250 F 
ENDBRANCH  18  20
ENDBRANCH  14  17
ENDBRANCH   4  13
BRANCH   1  22
HETATM   22  N1  UNL     1      25.523  -1.141  54.649  1.00  0.00    -0.384 N 
HETATM   23  H8  UNL     1      25.980  -2.075  54.556  1.00  0.00     0.160 HD
BRANCH  22  24
HETATM   24  C4  UNL     1      24.522  -1.032  55.681  1.00  0.00     0.147 C 
BRANCH  24  25
HETATM   25  C3  UNL     1      23.201  -1.573  55.277  1.00  0.00    -0.012 C 
HETATM   26  C2  UNL     1      22.232  -0.824  54.732  1.00  0.00    -0.033 C 
HETATM   27  C1  UNL     1      20.933  -1.470  54.359  1.00  0.00     0.036 C 
ENDBRANCH  24  25
ENDBRANCH  22  24
ENDBRANCH   1  22
BRANCH  12  28
HETATM   28  O2  UNL     1      28.092  -0.215  54.654  1.00  0.00    -0.349 OA
BRANCH  28  29
HETATM   29  C19 UNL     1      29.405  -0.537  54.194  1.00  0.00     0.171 C 
HETATM   30  C20 UNL     1      29.356  -1.786  53.333  1.00  0.00     0.034 C 
ENDBRANCH  28  29
ENDBRANCH  12  28
TORSDOF 8
ENDMDL
MODEL 3
REMARK VINA RESULT:      -7.7      2.895      5.666
REMARK  8 active torsions:
REMARK  status: ('A' for Active; 'I' for Inactive)
REMARK    1  A    between atoms: C3_3  and  C4_4 
REMARK    2  A    between atoms: C4_4  and  N1_5 
REMARK    3  A    between atoms: N1_5  and  C5_6 
REMARK    4  A    between atoms: C8_9  and  N2_10 
REMARK       I    between atoms: N2_10  and  C9_11 
REMARK    5  A    between atoms: C9_11  and  C10_13 
REMARK    6  A    between atoms: C11_14  and  C12_16 
REMARK    7  A    between atoms: C18_25  and  O2_26 
REMARK    8  A    between atoms: O2_26  and  C19_27 
ROOT
HETATM    1  C5  UNL     1      21.154   0.069  52.319  1.00  0.00     0.063 A 
HETATM    2  C6  UNL     1      22.521   0.181  52.216  1.00  0.00     0.048 A 
HETATM    3  C7  UNL     1      23.246  -0.245  53.317  1.00  0.00     0.023 A 
HETATM    4  C8  UNL     1      24.624  -0.193  53.359  1.00  0.00     0.070 A 
HETATM    5  C13 UNL     1      25.372  -0.610  54.441  1.00  0.00     0.089 A 
HETATM    6  C14 UNL     1      26.809  -0.526  54.415  1.00  0.00     0.103 C 
HETATM    7  N3  UNL     1      27.977  -0.459  54.404  1.00  0.00    -0.191 NA
HETATM    8  C15 UNL     1      24.726  -1.113  55.557  1.00  0.00     0.142 A 
HETATM    9  N4  UNL     1      23.378  -1.166  55.521  1.00  0.00    -0.259 NA
HETATM   10  C16 UNL     1      22.656  -0.754  54.455  1.00  0.00     0.071 A 
HETATM   11  C17 UNL     1      21.286  -0.849  54.513  1.00  0.00     0.071 A 
HETATM   12  C18 UNL     1      20.523  -0.434  53.436  1.00  0.00     0.097 A 
ENDROOT
BRANCH   4  13
HETATM   13  N2  UNL     1      25.359   0.319  52.232  1.00  0.00    -0.321 N 
HETATM   14  C9  UNL     1      25.571   1.716  52.385  1.00  0.00     0.247 C 
HETATM   15  O1  UNL     1      25.075   2.162  53.451  1.00  0.00    -0.268 OA
HETATM   16  H10 UNL     1      25.727  -0.174  51.377  1.00  0.00     0.169 HD
BRANCH  14  17
HETATM   17  C10 UNL     1      26.285   2.526  51.407  1.00  0.00     0.096 C 
HETATM   18  C11 UNL     1      25.838   3.271  50.407  1.00  0.00     0.045 C 
HETATM   19 CL1  UNL     1      26.843   4.197  49.306  1.00  0.00    -0.086 Cl
BRANCH  18  20
HETATM   20  C12 UNL     1      24.449   3.513  49.969  1.00  0.00     0.273 C 
HETATM   21  F1  UNL     1      23.758   4.087  51.021  1.00  0.00    -0.250 F 
ENDBRANCH  18  20
ENDBRANCH  14  17
ENDBRANCH   4  13
BRANCH   1  22
HETATM   22  N1  UNL     1      20.413   0.515  51.168  1.00  0.00    -0.384 N 
HETATM   23  H8  UNL     1      19.981  -0.215  50.559  1.00  0.00     0.160 HD
BRANCH  22  24
HETATM   24  C4  UNL     1      20.196   1.880  50.759  1.00  0.00     0.147 C 
BRANCH  24  25
HETATM   25  C3  UNL     1      20.950   2.253  49.536  1.00  0.00    -0.012 C 
HETATM   26  C2  UNL     1      21.636   1.374  48.795  1.00  0.00    -0.033 C 
HETATM   27  C1  UNL     1      22.363   1.856  47.576  1.00  0.00     0.036 C 
ENDBRANCH  24  25
ENDBRANCH  22  24
ENDBRANCH   1  22
BRANCH  12  28
HETATM   28  O2  UNL     1      19.152  -0.479  53.377  1.00  0.00    -0.349 OA
BRANCH  28  29
HETATM   29  C19 UNL     1      18.544  -1.767  53.484  1.00  0.00     0.171 C 
HETATM   30  C20 UNL     1      17.146  -1.727  52.896  1.00  0.00     0.034 C 
ENDBRANCH  28  29
ENDBRANCH  12  28
TORSDOF 8
ENDMDL
MODEL 4
REMARK VINA RESULT:      -7.7      3.066      5.896
REMARK  8 active torsions:
REMARK  status: ('A' for Active; 'I' for Inactive)
REMARK    1  A    between atoms: C3_3  and  C4_4 
REMARK    2  A    between atoms: C4_4  and  N1_5 
REMARK    3  A    between atoms: N1_5  and  C5_6 
REMARK    4  A    between atoms: C8_9  and  N2_10 
REMARK       I    between atoms: N2_10  and  C9_11 
REMARK    5  A    between atoms: C9_11  and  C10_13 
REMARK    6  A    between atoms: C11_14  and  C12_16 
REMARK    7  A    between atoms: C18_25  and  O2_26 
REMARK    8  A    between atoms: O2_26  and  C19_27 
ROOT
HETATM    1  C5  UNL     1      25.589   1.730  52.403  1.00  0.00     0.063 A 
HETATM    2  C6  UNL     1      24.224   1.738  52.232  1.00  0.00     0.048 A 
HETATM    3  C7  UNL     1      23.523   0.770  52.933  1.00  0.00     0.023 A 
HETATM    4  C8  UNL     1      22.150   0.655  52.861  1.00  0.00     0.070 A 
HETATM    5  C13 UNL     1      21.425  -0.298  53.547  1.00  0.00     0.089 A 
HETATM    6  C14 UNL     1      19.993  -0.358  53.423  1.00  0.00     0.103 C 
HETATM    7  N3  UNL     1      18.828  -0.416  53.327  1.00  0.00    -0.191 NA
HETATM    8  C15 UNL     1      22.091  -1.199  54.358  1.00  0.00     0.142 A 
HETATM    9  N4  UNL     1      23.434  -1.092  54.433  1.00  0.00    -0.259 NA
HETATM   10  C16 UNL     1      24.133  -0.154  53.755  1.00  0.00     0.071 A 
HETATM   11  C17 UNL     1      25.501  -0.124  53.897  1.00  0.00     0.071 A 
HETATM   12  C18 UNL     1      26.240   0.826  53.214  1.00  0.00     0.097 A 
ENDROOT
BRANCH   4  13
HETATM   13  N2  UNL     1      21.396   1.562  52.034  1.00  0.00    -0.321 N 
HETATM   14  C9  UNL     1      21.250   1.020  50.728  1.00  0.00     0.247 C 
HETATM   15  O1  UNL     1      21.805  -0.102  50.610  1.00  0.00    -0.268 OA
HETATM   16  H10 UNL     1      20.975   2.500  52.260  1.00  0.00     0.169 HD
BRANCH  14  17
HETATM   17  C10 UNL     1      20.535   1.702  49.658  1.00  0.00     0.096 C 
HETATM   18  C11 UNL     1      20.947   2.124  48.472  1.00  0.00     0.045 C 
HETATM   19 CL1  UNL     1      19.946   2.939  47.283  1.00  0.00    -0.086 Cl
BRANCH  18  20
HETATM   20  C12 UNL     1      22.287   2.031  47.861  1.00  0.00     0.273 C 
HETATM   21  F1  UNL     1      23.187   2.678  48.688  1.00  0.00    -0.250 F 
ENDBRANCH  18  20
ENDBRANCH  14  17
ENDBRANCH   4  13
BRANCH   1  22
HETATM   22  N1  UNL     1      26.306   2.740  51.670  1.00  0.00    -0.384 N 
HETATM   23  H8  UNL     1      26.760   3.504  52.218  1.00  0.00     0.160 HD
BRANCH  22  24
HETATM   24  C4  UNL     1      26.470   2.813  50.239  1.00  0.00     0.147 C 
BRANCH  24  25
HETATM   25  C3  UNL     1      26.412   4.199  49.711  1.00  0.00    -0.012 C 
HETATM   26  C2  UNL     1      27.321   4.706  48.867  1.00  0.00    -0.033 C 
HETATM   27  C1  UNL     1      27.168   6.119  48.393  1.00  0.00     0.036 C 
ENDBRANCH  24  25
ENDBRANCH  22  24
ENDBRANCH   1  22
BRANCH  12  28
HETATM   28  O2  UNL     1      27.605   0.955  53.275  1.00  0.00    -0.349 OA
BRANCH  28  29
HETATM   29  C19 UNL     1      28.274   0.252  54.323  1.00  0.00     0.171 C 
HETATM   30  C20 UNL     1      29.387  -0.601  53.743  1.00  0.00     0.034 C 
ENDBRANCH  28  29
ENDBRANCH  12  28
TORSDOF 8
ENDMDL
MODEL 5
REMARK VINA RESULT:      -7.5      2.525      6.249
REMARK  8 active torsions:
REMARK  status: ('A' for Active; 'I' for Inactive)
REMARK    1  A    between atoms: C3_3  and  C4_4 
REMARK    2  A    between atoms: C4_4  and  N1_5 
REMARK    3  A    between atoms: N1_5  and  C5_6 
REMARK    4  A    between atoms: C8_9  and  N2_10 
REMARK       I    between atoms: N2_10  and  C9_11 
REMARK    5  A    between atoms: C9_11  and  C10_13 
REMARK    6  A    between atoms: C11_14  and  C12_16 
REMARK    7  A    between atoms: C18_25  and  O2_26 
REMARK    8  A    between atoms: O2_26  and  C19_27 
ROOT
HETATM    1  C5  UNL     1      23.763   2.986  50.385  1.00  0.00     0.063 A 
HETATM    2  C6  UNL     1      23.989   1.872  51.160  1.00  0.00     0.048 A 
HETATM    3  C7  UNL     1      22.975   1.534  52.042  1.00  0.00     0.023 A 
HETATM    4  C8  UNL     1      23.060   0.443  52.882  1.00  0.00     0.070 A 
HETATM    5  C13 UNL     1      22.067   0.083  53.770  1.00  0.00     0.089 A 
HETATM    6  C14 UNL     1      22.225  -1.070  54.617  1.00  0.00     0.103 C 
HETATM    7  N3  UNL     1      22.345  -2.004  55.311  1.00  0.00    -0.191 NA
HETATM    8  C15 UNL     1      20.913   0.843  53.839  1.00  0.00     0.142 A 
HETATM    9  N4  UNL     1      20.824   1.912  53.020  1.00  0.00    -0.259 NA
HETATM   10  C16 UNL     1      21.804   2.255  52.154  1.00  0.00     0.071 A 
HETATM   11  C17 UNL     1      21.621   3.362  51.359  1.00  0.00     0.071 A 
HETATM   12  C18 UNL     1      22.608   3.735  50.465  1.00  0.00     0.097 A 
ENDROOT
BRANCH   4  13
HETATM   13  N2  UNL     1      24.234  -0.390  52.861  1.00  0.00    -0.321 N 
HETATM   14  C9  UNL     1      25.257   0.192  53.657  1.00  0.00     0.247 C 
HETATM   15  O1  UNL     1      24.897   1.278  54.181  1.00  0.00    -0.268 OA
HETATM   16  H10 UNL     1      24.413  -1.303  52.367  1.00  0.00     0.169 HD
BRANCH  14  17
HETATM   17  C10 UNL     1      26.570  -0.413  53.836  1.00  0.00     0.096 C 
HETATM   18  C11 UNL     1      27.784   0.095  53.693  1.00  0.00     0.045 C 
HETATM   19 CL1  UNL     1      29.284  -0.780  53.950  1.00  0.00    -0.086 Cl
BRANCH  18  20
HETATM   20  C12 UNL     1      28.187   1.459  53.299  1.00  0.00     0.273 C 
HETATM   21  F1  UNL     1      27.569   1.764  52.100  1.00  0.00    -0.250 F 
ENDBRANCH  18  20
ENDBRANCH  14  17
ENDBRANCH   4  13
BRANCH   1  22
HETATM   22  N1  UNL     1      24.823   3.326  49.474  1.00  0.00    -0.384 N 
HETATM   23  H8  UNL     1      24.555   3.600  48.502  1.00  0.00     0.160 HD
BRANCH  22  24
HETATM   24  C4  UNL     1      26.236   3.331  49.759  1.00  0.00     0.147 C 
BRANCH  24  25
HETATM   25  C3  UNL     1      26.979   4.388  49.029  1.00  0.00    -0.012 C 
HETATM   26  C2  UNL     1      26.555   5.656  48.931  1.00  0.00    -0.033 C 
HETATM   27  C1  UNL     1      27.383   6.646  48.171  1.00  0.00     0.036 C 
ENDBRANCH  24  25
ENDBRANCH  22  24
ENDBRANCH   1  22
BRANCH  12  28
HETATM   28  O2  UNL     1      22.540   4.816  49.622  1.00  0.00    -0.349 OA
BRANCH  28  29
HETATM   29  C19 UNL     1      22.290   6.088  50.221  1.00  0.00     0.171 C 
HETATM   30  C20 UNL     1      23.535   6.572  50.941  1.00  0.00     0.034 C 
ENDBRANCH  28  29
ENDBRANCH  12  28
TORSDOF 8
ENDMDL
MODEL 6
REMARK VINA RESULT:      -7.5      2.881      5.816
REMARK  8 active torsions:
REMARK  status: ('A' for Active; 'I' for Inactive)
REMARK    1  A    between atoms: C3_3  and  C4_4 
REMARK    2  A    between atoms: C4_4  and  N1_5 
REMARK    3  A    between atoms: N1_5  and  C5_6 
REMARK    4  A    between atoms: C8_9  and  N2_10 
REMARK       I    between atoms: N2_10  and  C9_11 
REMARK    5  A    between atoms: C9_11  and  C10_13 
REMARK    6  A    between atoms: C11_14  and  C12_16 
REMARK    7  A    between atoms: C18_25  and  O2_26 
REMARK    8  A    between atoms: O2_26  and  C19_27 
ROOT
HETATM    1  C5  UNL     1      26.053   2.652  51.361  1.00  0.00     0.063 A 
HETATM    2  C6  UNL     1      24.716   2.514  51.065  1.00  0.00     0.048 A 
HETATM    3  C7  UNL     1      24.026   1.575  51.815  1.00  0.00     0.023 A 
HETATM    4  C8  UNL     1      22.682   1.326  51.631  1.00  0.00     0.070 A 
HETATM    5  C13 UNL     1      21.969   0.398  52.362  1.00  0.00     0.089 A 
HETATM    6  C14 UNL     1      20.566   0.192  52.114  1.00  0.00     0.103 C 
HETATM    7  N3  UNL     1      19.425   0.016  51.919  1.00  0.00    -0.191 NA
HETATM    8  C15 UNL     1      22.617  -0.336  53.339  1.00  0.00     0.142 A 
HETATM    9  N4  UNL     1      23.933  -0.097  53.523  1.00  0.00    -0.259 NA
HETATM   10  C16 UNL     1      24.620   0.815  52.800  1.00  0.00     0.071 A 
HETATM   11  C17 UNL     1      25.959   0.987  53.063  1.00  0.00     0.071 A 
HETATM   12  C18 UNL     1      26.686   1.914  52.337  1.00  0.00     0.097 A 
ENDROOT
BRANCH   4  13
HETATM   13  N2  UNL     1      21.947   2.056  50.630  1.00  0.00    -0.321 N 
HETATM   14  C9  UNL     1      21.406   3.243  51.194  1.00  0.00     0.247 C 
HETATM   15  O1  UNL     1      21.696   3.370  52.411  1.00  0.00    -0.268 OA
HETATM   16  H10 UNL     1      21.773   1.834  49.615  1.00  0.00     0.169 HD
BRANCH  14  17
HETATM   17  C10 UNL     1      20.609   4.196  50.432  1.00  0.00     0.096 C 
HETATM   18  C11 UNL     1      20.691   5.514  50.337  1.00  0.00     0.045 C 
HETATM   19 CL1  UNL     1      19.640   6.526  49.362  1.00  0.00    -0.086 Cl
BRANCH  18  20
HETATM   20  C12 UNL     1      21.637   6.441  50.989  1.00  0.00     0.273 C 
HETATM   21  F1  UNL     1      21.229   7.735  50.721  1.00  0.00    -0.250 F 
ENDBRANCH  18  20
ENDBRANCH  14  17
ENDBRANCH   4  13
BRANCH   1  22
HETATM   22  N1  UNL     1      26.758   3.630  50.576  1.00  0.00    -0.384 N 
HETATM   23  H8  UNL     1      27.664   3.988  50.951  1.00  0.00     0.160 HD
BRANCH  22  24
HETATM   24  C4  UNL     1      26.344   4.179  49.308  1.00  0.00     0.147 C 
BRANCH  24  25
HETATM   25  C3  UNL     1      27.168   5.333  48.870  1.00  0.00    -0.012 C 
HETATM   26  C2  UNL     1      28.402   5.209  48.364  1.00  0.00    -0.033 C 
HETATM   27  C1  UNL     1      29.149   6.441  47.951  1.00  0.00     0.036 C 
ENDBRANCH  24  25
ENDBRANCH  22  24
ENDBRANCH   1  22
BRANCH  12  28
HETATM   28  O2  UNL     1      28.023   2.175  52.508  1.00  0.00    -0.349 OA
BRANCH  28  29
HETATM   29  C19 UNL     1      28.594   1.824  53.769  1.00  0.00     0.171 C 
HETATM   30  C20 UNL     1      29.471   0.595  53.614  1.00  0.00     0.034 C 
ENDBRANCH  28  29
ENDBRANCH  12  28
TORSDOF 8
ENDMDL
MODEL 7
REMARK VINA RESULT:      -7.4      3.007      6.346
REMARK  8 active torsions:
REMARK  status: ('A' for Active; 'I' for Inactive)
REMARK    1  A    between atoms: C3_3  and  C4_4 
REMARK    2  A    between atoms: C4_4  and  N1_5 
REMARK    3  A    between atoms: N1_5  and  C5_6 
REMARK    4  A    between atoms: C8_9  and  N2_10 
REMARK       I    between atoms: N2_10  and  C9_11 
REMARK    5  A    between atoms: C9_11  and  C10_13 
REMARK    6  A    between atoms: C11_14  and  C12_16 
REMARK    7  A    between atoms: C18_25  and  O2_26 
REMARK    8  A    between atoms: O2_26  and  C19_27 
ROOT
HETATM    1  C5  UNL     1      24.018   2.913  49.718  1.00  0.00     0.063 A 
HETATM    2  C6  UNL     1      24.207   2.343  50.957  1.00  0.00     0.048 A 
HETATM    3  C7  UNL     1      23.197   1.501  51.393  1.00  0.00     0.023 A 
HETATM    4  C8  UNL     1      23.247   0.859  52.613  1.00  0.00     0.070 A 
HETATM    5  C13 UNL     1      22.257   0.015  53.074  1.00  0.00     0.089 A 
HETATM    6  C14 UNL     1      22.376  -0.621  54.359  1.00  0.00     0.103 C 
HETATM    7  N3  UNL     1      22.464  -1.141  55.404  1.00  0.00    -0.191 NA
HETATM    8  C15 UNL     1      21.144  -0.216  52.285  1.00  0.00     0.142 A 
HETATM    9  N4  UNL     1      21.090   0.409  51.091  1.00  0.00    -0.259 NA
HETATM   10  C16 UNL     1      22.065   1.234  50.651  1.00  0.00     0.071 A 
HETATM   11  C17 UNL     1      21.920   1.825  49.417  1.00  0.00     0.071 A 
HETATM   12  C18 UNL     1      22.904   2.674  48.943  1.00  0.00     0.097 A 
ENDROOT
BRANCH   4  13
HETATM   13  N2  UNL     1      24.377   1.056  53.483  1.00  0.00    -0.321 N 
HETATM   14  C9  UNL     1      25.371   0.076  53.215  1.00  0.00     0.247 C 
HETATM   15  O1  UNL     1      25.031  -0.715  52.298  1.00  0.00    -0.268 OA
HETATM   16  H10 UNL     1      24.544   1.777  54.232  1.00  0.00     0.169 HD
BRANCH  14  17
HETATM   17  C10 UNL     1      26.638   0.008  53.933  1.00  0.00     0.096 C 
HETATM   18  C11 UNL     1      27.693   0.808  53.905  1.00  0.00     0.045 C 
HETATM   19 CL1  UNL     1      29.158   0.584  54.844  1.00  0.00    -0.086 Cl
BRANCH  18  20
HETATM   20  C12 UNL     1      27.913   2.038  53.119  1.00  0.00     0.273 C 
HETATM   21  F1  UNL     1      28.822   2.829  53.799  1.00  0.00    -0.250 F 
ENDBRANCH  18  20
ENDBRANCH  14  17
ENDBRANCH   4  13
BRANCH   1  22
HETATM   22  N1  UNL     1      25.074   3.786  49.276  1.00  0.00    -0.384 N 
HETATM   23  H8  UNL     1      25.768   3.399  48.599  1.00  0.00     0.160 HD
BRANCH  22  24
HETATM   24  C4  UNL     1      25.280   5.157  49.671  1.00  0.00     0.147 C 
BRANCH  24  25
HETATM   25  C3  UNL     1      26.490   5.767  49.066  1.00  0.00    -0.012 C 
HETATM   26  C2  UNL     1      27.581   5.066  48.730  1.00  0.00    -0.033 C 
HETATM   27  C1  UNL     1      28.750   5.781  48.123  1.00  0.00     0.036 C 
ENDBRANCH  24  25
ENDBRANCH  22  24
ENDBRANCH   1  22
BRANCH  12  28
HETATM   28  O2  UNL     1      22.871   3.320  47.732  1.00  0.00    -0.349 OA
BRANCH  28  29
HETATM   29  C19 UNL     1      21.582   3.637  47.204  1.00  0.00     0.171 C 
HETATM   30  C20 UNL     1      21.652   3.718  45.690  1.00  0.00     0.034 C 
ENDBRANCH  28  29
ENDBRANCH  12  28
TORSDOF 8
ENDMDL
MODEL 8
REMARK VINA RESULT:      -7.1      3.402      5.618
REMARK  8 active torsions:
REMARK  status: ('A' for Active; 'I' for Inactive)
REMARK    1  A    between atoms: C3_3  and  C4_4 
REMARK    2  A    between atoms: C4_4  and  N1_5 
REMARK    3  A    between atoms: N1_5  and  C5_6 
REMARK    4  A    between atoms: C8_9  and  N2_10 
REMARK       I    between atoms: N2_10  and  C9_11 
REMARK    5  A    between atoms: C9_11  and  C10_13 
REMARK    6  A    between atoms: C11_14  and  C12_16 
REMARK    7  A    between atoms: C18_25  and  O2_26 
REMARK    8  A    between atoms: O2_26  and  C19_27 
ROOT
HETATM    1  C5  UNL     1      25.090   0.399  52.506  1.00  0.00     0.063 A 
HETATM    2  C6  UNL     1      24.253   1.327  51.931  1.00  0.00     0.048 A 
HETATM    3  C7  UNL     1      24.874   2.334  51.210  1.00  0.00     0.023 A 
HETATM    4  C8  UNL     1      24.165   3.335  50.578  1.00  0.00     0.070 A 
HETATM    5  C13 UNL     1      24.756   4.349  49.852  1.00  0.00     0.089 A 
HETATM    6  C14 UNL     1      23.952   5.361  49.219  1.00  0.00     0.103 C 
HETATM    7  N3  UNL     1      23.306   6.190  48.703  1.00  0.00    -0.191 NA
HETATM    8  C15 UNL     1      26.134   4.385  49.739  1.00  0.00     0.142 A 
HETATM    9  N4  UNL     1      26.833   3.409  50.355  1.00  0.00    -0.259 NA
HETATM   10  C16 UNL     1      26.243   2.420  51.063  1.00  0.00     0.071 A 
HETATM   11  C17 UNL     1      27.041   1.469  51.654  1.00  0.00     0.071 A 
HETATM   12  C18 UNL     1      26.462   0.447  52.385  1.00  0.00     0.097 A 
ENDROOT
BRANCH   4  13
HETATM   13  N2  UNL     1      22.728   3.356  50.657  1.00  0.00    -0.321 N 
HETATM   14  C9  UNL     1      22.171   2.637  49.564  1.00  0.00     0.247 C 
HETATM   15  O1  UNL     1      23.053   2.162  48.804  1.00  0.00    -0.268 OA
HETATM   16  H10 UNL     1      22.090   3.804  51.366  1.00  0.00     0.169 HD
BRANCH  14  17
HETATM   17  C10 UNL     1      20.737   2.479  49.363  1.00  0.00     0.096 C 
HETATM   18  C11 UNL     1      19.862   1.680  49.955  1.00  0.00     0.045 C 
HETATM   19 CL1  UNL     1      18.146   1.611  49.592  1.00  0.00    -0.086 Cl
BRANCH  18  20
HETATM   20  C12 UNL     1      20.078   0.684  51.022  1.00  0.00     0.273 C 
HETATM   21  F1  UNL     1      21.193  -0.067  50.695  1.00  0.00    -0.250 F 
ENDBRANCH  18  20
ENDBRANCH  14  17
ENDBRANCH   4  13
BRANCH   1  22
HETATM   22  N1  UNL     1      24.433  -0.641  53.253  1.00  0.00    -0.384 N 
HETATM   23  H8  UNL     1      24.767  -1.621  53.113  1.00  0.00     0.160 HD
BRANCH  22  24
HETATM   24  C4  UNL     1      23.349  -0.477  54.189  1.00  0.00     0.147 C 
BRANCH  24  25
HETATM   25  C3  UNL     1      22.092  -1.135  53.754  1.00  0.00    -0.012 C 
HETATM   26  C2  UNL     1      20.908  -0.934  54.348  1.00  0.00    -0.033 C 
HETATM   27  C1  UNL     1      19.699  -1.649  53.828  1.00  0.00     0.036 C 
ENDBRANCH  24  25
ENDBRANCH  22  24
ENDBRANCH   1  22
BRANCH  12  28
HETATM   28  O2  UNL     1      27.152  -0.557  53.019  1.00  0.00    -0.349 OA
BRANCH  28  29
HETATM   29  C19 UNL     1      28.141  -0.160  53.969  1.00  0.00     0.171 C 
HETATM   30  C20 UNL     1      29.492  -0.730  53.575  1.00  0.00     0.034 C 
ENDBRANCH  28  29
ENDBRANCH  12  28
TORSDOF 8
ENDMDL
MODEL 9
REMARK VINA RESULT:      -7.1      1.762      2.254
REMARK  8 active torsions:
REMARK  status: ('A' for Active; 'I' for Inactive)
REMARK    1  A    between atoms: C3_3  and  C4_4 
REMARK    2  A    between atoms: C4_4  and  N1_5 
REMARK    3  A    between atoms: N1_5  and  C5_6 
REMARK    4  A    between atoms: C8_9  and  N2_10 
REMARK       I    between atoms: N2_10  and  C9_11 
REMARK    5  A    between atoms: C9_11  and  C10_13 
REMARK    6  A    between atoms: C11_14  and  C12_16 
REMARK    7  A    between atoms: C18_25  and  O2_26 
REMARK    8  A    between atoms: O2_26  and  C19_27 
ROOT
HETATM    1  C5  UNL     1      23.052   2.180  52.297  1.00  0.00     0.063 A 
HETATM    2  C6  UNL     1      23.850   3.198  51.827  1.00  0.00     0.048 A 
HETATM    3  C7  UNL     1      23.193   4.367  51.478  1.00  0.00     0.023 A 
HETATM    4  C8  UNL     1      23.861   5.472  50.992  1.00  0.00     0.070 A 
HETATM    5  C13 UNL     1      23.235   6.649  50.636  1.00  0.00     0.089 A 
HETATM    6  C14 UNL     1      23.996   7.763  50.136  1.00  0.00     0.103 C 
HETATM    7  N3  UNL     1      24.608   8.673  49.726  1.00  0.00    -0.191 NA
HETATM    8  C15 UNL     1      21.861   6.749  50.766  1.00  0.00     0.142 A 
HETATM    9  N4  UNL     1      21.202   5.671  51.241  1.00  0.00    -0.259 NA
HETATM   10  C16 UNL     1      21.828   4.524  51.585  1.00  0.00     0.071 A 
HETATM   11  C17 UNL     1      21.070   3.480  52.061  1.00  0.00     0.071 A 
HETATM   12  C18 UNL     1      21.685   2.294  52.420  1.00  0.00     0.097 A 
ENDROOT
BRANCH   4  13
HETATM   13  N2  UNL     1      25.292   5.435  50.832  1.00  0.00    -0.321 N 
HETATM   14  C9  UNL     1      25.623   4.923  49.549  1.00  0.00     0.247 C 
HETATM   15  O1  UNL     1      24.605   4.631  48.871  1.00  0.00    -0.268 OA
HETATM   16  H10 UNL     1      26.060   5.716  51.497  1.00  0.00     0.169 HD
BRANCH  14  17
HETATM   17  C10 UNL     1      26.995   4.761  49.085  1.00  0.00     0.096 C 
HETATM   18  C11 UNL     1      27.823   5.621  48.512  1.00  0.00     0.045 C 
HETATM   19 CL1  UNL     1      29.466   5.263  48.009  1.00  0.00    -0.086 Cl
BRANCH  18  20
HETATM   20  C12 UNL     1      27.604   7.037  48.158  1.00  0.00     0.273 C 
HETATM   21  F1  UNL     1      27.608   7.780  49.325  1.00  0.00    -0.250 F 
ENDBRANCH  18  20
ENDBRANCH  14  17
ENDBRANCH   4  13
BRANCH   1  22
HETATM   22  N1  UNL     1      23.746   0.972  52.656  1.00  0.00    -0.384 N 
HETATM   23  H8  UNL     1      23.219   0.073  52.586  1.00  0.00     0.160 HD
BRANCH  22  24
HETATM   24  C4  UNL     1      25.111   0.864  53.109  1.00  0.00     0.147 C 
BRANCH  24  25
HETATM   25  C3  UNL     1      25.627  -0.527  53.092  1.00  0.00    -0.012 C 
HETATM   26  C2  UNL     1      26.744  -0.892  52.447  1.00  0.00    -0.033 C 
HETATM   27  C1  UNL     1      27.178  -2.325  52.495  1.00  0.00     0.036 C 
ENDBRANCH  24  25
ENDBRANCH  22  24
ENDBRANCH   1  22
BRANCH  12  28
HETATM   28  O2  UNL     1      21.036   1.186  52.906  1.00  0.00    -0.349 OA
BRANCH  28  29
HETATM   29  C19 UNL     1      20.443   0.311  51.945  1.00  0.00     0.171 C 
HETATM   30  C20 UNL     1      18.944   0.241  52.169  1.00  0.00     0.034 C 
ENDBRANCH  28  29
ENDBRANCH  12  28
TORSDOF 8
ENDMDL
