MODEL 1
REMARK VINA RESULT:      -7.6      0.000      0.000
REMARK  4 active torsions:
REMARK  status: ('A' for Active; 'I' for Inactive)
REMARK    1  A    between atoms: O1_2  and  C2_3 
REMARK    2  A    between atoms: C6_9  and  O2_10 
REMARK    3  A    between atoms: O2_10  and  C7_11 
REMARK    4  A    between atoms: C13_20  and  O5_21 
ROOT
HETATM    1  C2  UNL     1      20.707   0.578  52.556  1.00  0.00     0.103 A 
HETATM    2  C3  UNL     1      20.910  -0.108  53.744  1.00  0.00     0.072 A 
HETATM    3  C4  UNL     1      22.188  -0.452  54.139  1.00  0.00     0.075 A 
HETATM    4  N1  UNL     1      22.413  -1.117  55.288  1.00  0.00    -0.241 NA
HETATM    5  C5  UNL     1      23.645  -1.463  55.697  1.00  0.00     0.236 A 
HETATM    6  N2  UNL     1      24.708  -1.138  54.936  1.00  0.00    -0.217 NA
HETATM    7  C6  UNL     1      24.582  -0.468  53.762  1.00  0.00     0.183 A 
HETATM    8  C11 UNL     1      23.290  -0.126  53.372  1.00  0.00     0.049 A 
HETATM    9  C12 UNL     1      23.074   0.556  52.192  1.00  0.00     0.057 A 
HETATM   10  C13 UNL     1      21.809   0.911  51.772  1.00  0.00     0.102 A 
ENDROOT
BRANCH   7  11
HETATM   11  O2  UNL     1      25.608  -0.097  52.927  1.00  0.00    -0.292 OA
BRANCH  11  12
HETATM   12  C7  UNL     1      26.710   0.619  53.432  1.00  0.00     0.095 A 
HETATM   13  C8  UNL     1      26.521   1.910  53.640  1.00  0.00     0.128 A 
HETATM   14  N3  UNL     1      27.676   2.564  54.148  1.00  0.00    -0.310 N 
HETATM   15  C9  UNL     1      28.854   1.801  54.370  1.00  0.00     0.364 A 
HETATM   16  H7  UNL     1      27.622   3.590  54.345  1.00  0.00     0.170 HD
HETATM   17  O3  UNL     1      29.840   2.468  54.828  1.00  0.00    -0.238 OA
HETATM   18  O4  UNL     1      28.990   0.444  54.133  1.00  0.00    -0.297 OA
HETATM   19  C10 UNL     1      27.881  -0.265  53.626  1.00  0.00     0.247 A 
ENDBRANCH  11  12
ENDBRANCH   7  11
BRANCH  10  20
HETATM   20  O5  UNL     1      21.502   1.593  50.609  1.00  0.00    -0.353 OA
HETATM   21  C14 UNL     1      21.460   0.927  49.383  1.00  0.00     0.210 C 
ENDBRANCH  10  20
BRANCH   1  22
HETATM   22  O1  UNL     1      19.410   0.908  52.187  1.00  0.00    -0.353 OA
HETATM   23  C1  UNL     1      18.459  -0.131  52.167  1.00  0.00     0.210 C 
ENDBRANCH   1  22
TORSDOF 4
ENDMDL
MODEL 2
REMARK VINA RESULT:      -7.4      2.130      7.168
REMARK  4 active torsions:
REMARK  status: ('A' for Active; 'I' for Inactive)
REMARK    1  A    between atoms: O1_2  and  C2_3 
REMARK    2  A    between atoms: C6_9  and  O2_10 
REMARK    3  A    between atoms: O2_10  and  C7_11 
REMARK    4  A    between atoms: C13_20  and  O5_21 
ROOT
HETATM    1  C2  UNL     1      26.515   1.052  54.006  1.00  0.00     0.103 A 
HETATM    2  C3  UNL     1      25.958   2.312  53.844  1.00  0.00     0.072 A 
HETATM    3  C4  UNL     1      24.730   2.456  53.230  1.00  0.00     0.075 A 
HETATM    4  N1  UNL     1      24.167   3.667  53.061  1.00  0.00    -0.241 NA
HETATM    5  C5  UNL     1      22.974   3.836  52.467  1.00  0.00     0.236 A 
HETATM    6  N2  UNL     1      22.302   2.759  52.017  1.00  0.00    -0.217 NA
HETATM    7  C6  UNL     1      22.788   1.498  52.142  1.00  0.00     0.183 A 
HETATM    8  C11 UNL     1      24.027   1.362  52.763  1.00  0.00     0.049 A 
HETATM    9  C12 UNL     1      24.592   0.114  52.929  1.00  0.00     0.057 A 
HETATM   10  C13 UNL     1      25.817  -0.060  53.539  1.00  0.00     0.102 A 
ENDROOT
BRANCH   7  11
HETATM   11  O2  UNL     1      22.172   0.347  51.714  1.00  0.00    -0.292 OA
BRANCH  11  12
HETATM   12  C7  UNL     1      20.927  -0.033  52.251  1.00  0.00     0.095 A 
HETATM   13  C8  UNL     1      20.951  -0.577  53.455  1.00  0.00     0.128 A 
HETATM   14  N3  UNL     1      19.659  -0.933  53.927  1.00  0.00    -0.310 N 
HETATM   15  C9  UNL     1      18.532  -0.681  53.101  1.00  0.00     0.364 A 
HETATM   16  H7  UNL     1      19.579  -1.371  54.874  1.00  0.00     0.170 HD
HETATM   17  O3  UNL     1      17.414  -1.031  53.604  1.00  0.00    -0.238 OA
HETATM   18  O4  UNL     1      18.571  -0.105  51.842  1.00  0.00    -0.297 OA
HETATM   19  C10 UNL     1      19.823   0.272  51.312  1.00  0.00     0.247 A 
ENDBRANCH  11  12
ENDBRANCH   7  11
BRANCH  10  20
HETATM   20  O5  UNL     1      26.455  -1.268  53.747  1.00  0.00    -0.353 OA
HETATM   21  C14 UNL     1      27.043  -1.956  52.684  1.00  0.00     0.210 C 
ENDBRANCH  10  20
BRANCH   1  22
HETATM   22  O1  UNL     1      27.751   0.940  54.627  1.00  0.00    -0.353 OA
HETATM   23  C1  UNL     1      28.883   1.338  53.889  1.00  0.00     0.210 C 
ENDBRANCH   1  22
TORSDOF 4
ENDMDL
MODEL 3
REMARK VINA RESULT:      -7.1      2.456      3.488
REMARK  4 active torsions:
REMARK  status: ('A' for Active; 'I' for Inactive)
REMARK    1  A    between atoms: O1_2  and  C2_3 
REMARK    2  A    between atoms: C6_9  and  O2_10 
REMARK    3  A    between atoms: O2_10  and  C7_11 
REMARK    4  A    between atoms: C13_20  and  O5_21 
ROOT
HETATM    1  C2  UNL     1      21.503   0.699  51.824  1.00  0.00     0.103 A 
HETATM    2  C3  UNL     1      22.095   1.409  50.789  1.00  0.00     0.072 A 
HETATM    3  C4  UNL     1      23.354   1.952  50.949  1.00  0.00     0.075 A 
HETATM    4  N1  UNL     1      23.951   2.646  49.961  1.00  0.00    -0.241 NA
HETATM    5  C5  UNL     1      25.175   3.184  50.089  1.00  0.00     0.236 A 
HETATM    6  N2  UNL     1      25.844   3.033  51.248  1.00  0.00    -0.217 NA
HETATM    7  C6  UNL     1      25.326   2.350  52.300  1.00  0.00     0.183 A 
HETATM    8  C11 UNL     1      24.056   1.807  52.130  1.00  0.00     0.049 A 
HETATM    9  C12 UNL     1      23.456   1.098  53.152  1.00  0.00     0.057 A 
HETATM   10  C13 UNL     1      22.199   0.545  53.021  1.00  0.00     0.102 A 
ENDROOT
BRANCH   7  11
HETATM   11  O2  UNL     1      25.937   2.147  53.514  1.00  0.00    -0.292 OA
BRANCH  11  12
HETATM   12  C7  UNL     1      27.114   1.378  53.596  1.00  0.00     0.095 A 
HETATM   13  C8  UNL     1      28.251   2.032  53.445  1.00  0.00     0.128 A 
HETATM   14  N3  UNL     1      29.392   1.190  53.539  1.00  0.00    -0.310 N 
HETATM   15  C9  UNL     1      29.202  -0.198  53.774  1.00  0.00     0.364 A 
HETATM   16  H7  UNL     1      30.339   1.621  53.433  1.00  0.00     0.170 HD
HETATM   17  O3  UNL     1      30.279  -0.878  53.845  1.00  0.00    -0.238 OA
HETATM   18  O4  UNL     1      27.979  -0.828  53.925  1.00  0.00    -0.297 OA
HETATM   19  C10 UNL     1      26.805  -0.050  53.841  1.00  0.00     0.247 A 
ENDBRANCH  11  12
ENDBRANCH   7  11
BRANCH  10  20
HETATM   20  O5  UNL     1      21.526  -0.177  53.988  1.00  0.00    -0.353 OA
HETATM   21  C14 UNL     1      21.905  -1.486  54.293  1.00  0.00     0.210 C 
ENDBRANCH  10  20
BRANCH   1  22
HETATM   22  O1  UNL     1      20.236   0.166  51.632  1.00  0.00    -0.353 OA
HETATM   23  C1  UNL     1      19.241   1.029  51.134  1.00  0.00     0.210 C 
ENDBRANCH   1  22
TORSDOF 4
ENDMDL
MODEL 4
REMARK VINA RESULT:      -7.0      2.143      6.532
REMARK  4 active torsions:
REMARK  status: ('A' for Active; 'I' for Inactive)
REMARK    1  A    between atoms: O1_2  and  C2_3 
REMARK    2  A    between atoms: C6_9  and  O2_10 
REMARK    3  A    between atoms: O2_10  and  C7_11 
REMARK    4  A    between atoms: C13_20  and  O5_21 
ROOT
HETATM    1  C2  UNL     1      26.605   0.638  54.171  1.00  0.00     0.103 A 
HETATM    2  C3  UNL     1      25.801  -0.188  54.942  1.00  0.00     0.072 A 
HETATM    3  C4  UNL     1      24.506  -0.463  54.550  1.00  0.00     0.075 A 
HETATM    4  N1  UNL     1      23.706  -1.262  55.280  1.00  0.00    -0.241 NA
HETATM    5  C5  UNL     1      22.443  -1.547  54.922  1.00  0.00     0.236 A 
HETATM    6  N2  UNL     1      21.943  -1.017  53.789  1.00  0.00    -0.217 NA
HETATM    7  C6  UNL     1      22.673  -0.201  52.987  1.00  0.00     0.183 A 
HETATM    8  C11 UNL     1      23.977   0.071  53.391  1.00  0.00     0.049 A 
HETATM    9  C12 UNL     1      24.787   0.892  52.632  1.00  0.00     0.057 A 
HETATM   10  C13 UNL     1      26.084   1.184  53.000  1.00  0.00     0.102 A 
ENDROOT
BRANCH   7  11
HETATM   11  O2  UNL     1      22.245   0.380  51.818  1.00  0.00    -0.292 OA
BRANCH  11  12
HETATM   12  C7  UNL     1      21.103   1.205  51.813  1.00  0.00     0.095 A 
HETATM   13  C8  UNL     1      20.040   0.727  51.191  1.00  0.00     0.128 A 
HETATM   14  N3  UNL     1      18.931   1.614  51.228  1.00  0.00    -0.310 N 
HETATM   15  C9  UNL     1      19.071   2.859  51.897  1.00  0.00     0.364 A 
HETATM   16  H7  UNL     1      18.042   1.321  50.761  1.00  0.00     0.170 HD
HETATM   17  O3  UNL     1      18.027   3.592  51.881  1.00  0.00    -0.238 OA
HETATM   18  O4  UNL     1      20.216   3.306  52.534  1.00  0.00    -0.297 OA
HETATM   19  C10 UNL     1      21.355   2.474  52.534  1.00  0.00     0.247 A 
ENDBRANCH  11  12
ENDBRANCH   7  11
BRANCH  10  20
HETATM   20  O5  UNL     1      26.962   1.993  52.302  1.00  0.00    -0.353 OA
HETATM   21  C14 UNL     1      26.545   2.676  51.158  1.00  0.00     0.210 C 
ENDBRANCH  10  20
BRANCH   1  22
HETATM   22  O1  UNL     1      27.902   0.895  54.592  1.00  0.00    -0.353 OA
HETATM   23  C1  UNL     1      28.850  -0.134  54.430  1.00  0.00     0.210 C 
ENDBRANCH   1  22
TORSDOF 4
ENDMDL
MODEL 5
REMARK VINA RESULT:      -6.9      2.633      7.114
REMARK  4 active torsions:
REMARK  status: ('A' for Active; 'I' for Inactive)
REMARK    1  A    between atoms: O1_2  and  C2_3 
REMARK    2  A    between atoms: C6_9  and  O2_10 
REMARK    3  A    between atoms: O2_10  and  C7_11 
REMARK    4  A    between atoms: C13_20  and  O5_21 
ROOT
HETATM    1  C2  UNL     1      26.440   0.288  54.149  1.00  0.00     0.103 A 
HETATM    2  C3  UNL     1      26.756   1.279  53.231  1.00  0.00     0.072 A 
HETATM    3  C4  UNL     1      25.823   1.687  52.299  1.00  0.00     0.075 A 
HETATM    4  N1  UNL     1      26.103   2.646  51.397  1.00  0.00    -0.241 NA
HETATM    5  C5  UNL     1      25.214   3.062  50.480  1.00  0.00     0.236 A 
HETATM    6  N2  UNL     1      23.989   2.505  50.448  1.00  0.00    -0.217 NA
HETATM    7  C6  UNL     1      23.613   1.531  51.316  1.00  0.00     0.183 A 
HETATM    8  C11 UNL     1      24.561   1.127  52.252  1.00  0.00     0.049 A 
HETATM    9  C12 UNL     1      24.259   0.142  53.171  1.00  0.00     0.057 A 
HETATM   10  C13 UNL     1      25.171  -0.286  54.113  1.00  0.00     0.102 A 
ENDROOT
BRANCH   7  11
HETATM   11  O2  UNL     1      22.388   0.910  51.355  1.00  0.00    -0.292 OA
BRANCH  11  12
HETATM   12  C7  UNL     1      21.207   1.675  51.430  1.00  0.00     0.095 A 
HETATM   13  C8  UNL     1      20.387   1.584  50.398  1.00  0.00     0.128 A 
HETATM   14  N3  UNL     1      19.221   2.383  50.546  1.00  0.00    -0.310 N 
HETATM   15  C9  UNL     1      19.064   3.156  51.727  1.00  0.00     0.364 A 
HETATM   16  H7  UNL     1      18.511   2.375  49.777  1.00  0.00     0.170 HD
HETATM   17  O3  UNL     1      17.990   3.841  51.775  1.00  0.00    -0.238 OA
HETATM   18  O4  UNL     1      19.963   3.209  52.779  1.00  0.00    -0.297 OA
HETATM   19  C10 UNL     1      21.143   2.440  52.696  1.00  0.00     0.247 A 
ENDBRANCH  11  12
ENDBRANCH   7  11
BRANCH  10  20
HETATM   20  O5  UNL     1      24.954  -1.262  55.067  1.00  0.00    -0.353 OA
HETATM   21  C14 UNL     1      23.679  -1.474  55.593  1.00  0.00     0.210 C 
ENDBRANCH  10  20
BRANCH   1  22
HETATM   22  O1  UNL     1      27.400  -0.100  55.073  1.00  0.00    -0.353 OA
HETATM   23  C1  UNL     1      28.748  -0.039  54.668  1.00  0.00     0.210 C 
ENDBRANCH   1  22
TORSDOF 4
ENDMDL
MODEL 6
REMARK VINA RESULT:      -6.7      3.833      4.994
REMARK  4 active torsions:
REMARK  status: ('A' for Active; 'I' for Inactive)
REMARK    1  A    between atoms: O1_2  and  C2_3 
REMARK    2  A    between atoms: C6_9  and  O2_10 
REMARK    3  A    between atoms: O2_10  and  C7_11 
REMARK    4  A    between atoms: C13_20  and  O5_21 
ROOT
HETATM    1  C2  UNL     1      23.069  -0.113  52.996  1.00  0.00     0.103 A 
HETATM    2  C3  UNL     1      24.386  -0.056  53.429  1.00  0.00     0.072 A 
HETATM    3  C4  UNL     1      25.285   0.791  52.812  1.00  0.00     0.075 A 
HETATM    4  N1  UNL     1      26.568   0.867  53.213  1.00  0.00    -0.241 NA
HETATM    5  C5  UNL     1      27.463   1.682  52.632  1.00  0.00     0.236 A 
HETATM    6  N2  UNL     1      27.076   2.461  51.604  1.00  0.00    -0.217 NA
HETATM    7  C6  UNL     1      25.804   2.456  51.129  1.00  0.00     0.183 A 
HETATM    8  C11 UNL     1      24.905   1.598  51.757  1.00  0.00     0.049 A 
HETATM    9  C12 UNL     1      23.593   1.531  51.335  1.00  0.00     0.057 A 
HETATM   10  C13 UNL     1      22.673   0.694  51.932  1.00  0.00     0.102 A 
ENDROOT
BRANCH   7  11
HETATM   11  O2  UNL     1      25.325   3.215  50.090  1.00  0.00    -0.292 OA
BRANCH  11  12
HETATM   12  C7  UNL     1      25.556   4.604  50.060  1.00  0.00     0.095 A 
HETATM   13  C8  UNL     1      26.616   5.005  49.382  1.00  0.00     0.128 A 
HETATM   14  N3  UNL     1      26.783   6.416  49.399  1.00  0.00    -0.310 N 
HETATM   15  C9  UNL     1      25.842   7.210  50.106  1.00  0.00     0.364 A 
HETATM   16  H7  UNL     1      27.597   6.828  48.886  1.00  0.00     0.170 HD
HETATM   17  O3  UNL     1      26.068   8.464  50.068  1.00  0.00    -0.238 OA
HETATM   18  O4  UNL     1      24.745   6.729  50.801  1.00  0.00    -0.297 OA
HETATM   19  C10 UNL     1      24.522   5.336  50.826  1.00  0.00     0.247 A 
ENDBRANCH  11  12
ENDBRANCH   7  11
BRANCH  10  20
HETATM   20  O5  UNL     1      21.344   0.565  51.576  1.00  0.00    -0.353 OA
HETATM   21  C14 UNL     1      20.556   1.692  51.340  1.00  0.00     0.210 C 
ENDBRANCH  10  20
BRANCH   1  22
HETATM   22  O1  UNL     1      22.190  -0.975  53.636  1.00  0.00    -0.353 OA
HETATM   23  C1  UNL     1      21.660  -0.556  54.873  1.00  0.00     0.210 C 
ENDBRANCH   1  22
TORSDOF 4
ENDMDL
MODEL 7
REMARK VINA RESULT:      -6.4      3.192      7.276
REMARK  4 active torsions:
REMARK  status: ('A' for Active; 'I' for Inactive)
REMARK    1  A    between atoms: O1_2  and  C2_3 
REMARK    2  A    between atoms: C6_9  and  O2_10 
REMARK    3  A    between atoms: O2_10  and  C7_11 
REMARK    4  A    between atoms: C13_20  and  O5_21 
ROOT
HETATM    1  C2  UNL     1      26.216   0.083  53.035  1.00  0.00     0.103 A 
HETATM    2  C3  UNL     1      26.898   0.967  52.212  1.00  0.00     0.072 A 
HETATM    3  C4  UNL     1      26.212   1.946  51.521  1.00  0.00     0.075 A 
HETATM    4  N1  UNL     1      26.850   2.816  50.716  1.00  0.00    -0.241 NA
HETATM    5  C5  UNL     1      26.208   3.778  50.033  1.00  0.00     0.236 A 
HETATM    6  N2  UNL     1      24.870   3.888  50.148  1.00  0.00    -0.217 NA
HETATM    7  C6  UNL     1      24.140   3.057  50.935  1.00  0.00     0.183 A 
HETATM    8  C11 UNL     1      24.840   2.073  51.627  1.00  0.00     0.049 A 
HETATM    9  C12 UNL     1      24.173   1.188  52.449  1.00  0.00     0.057 A 
HETATM   10  C13 UNL     1      24.833   0.200  53.151  1.00  0.00     0.102 A 
ENDROOT
BRANCH   7  11
HETATM   11  O2  UNL     1      22.777   3.098  51.110  1.00  0.00    -0.292 OA
BRANCH  11  12
HETATM   12  C7  UNL     1      21.919   3.108  49.994  1.00  0.00     0.095 A 
HETATM   13  C8  UNL     1      21.294   4.246  49.749  1.00  0.00     0.128 A 
HETATM   14  N3  UNL     1      20.447   4.179  48.610  1.00  0.00    -0.310 N 
HETATM   15  C9  UNL     1      20.365   2.958  47.888  1.00  0.00     0.364 A 
HETATM   16  H7  UNL     1      19.910   5.034  48.338  1.00  0.00     0.170 HD
HETATM   17  O3  UNL     1      19.583   2.988  46.881  1.00  0.00    -0.238 OA
HETATM   18  O4  UNL     1      21.049   1.795  48.195  1.00  0.00    -0.297 OA
HETATM   19  C10 UNL     1      21.906   1.793  49.315  1.00  0.00     0.247 A 
ENDBRANCH  11  12
ENDBRANCH   7  11
BRANCH  10  20
HETATM   20  O5  UNL     1      24.246  -0.725  53.993  1.00  0.00    -0.353 OA
HETATM   21  C14 UNL     1      22.863  -0.743  54.180  1.00  0.00     0.210 C 
ENDBRANCH  10  20
BRANCH   1  22
HETATM   22  O1  UNL     1      26.935  -0.889  53.716  1.00  0.00    -0.353 OA
HETATM   23  C1  UNL     1      28.257  -1.129  53.294  1.00  0.00     0.210 C 
ENDBRANCH   1  22
TORSDOF 4
ENDMDL
MODEL 8
REMARK VINA RESULT:      -6.3      4.185      5.471
REMARK  4 active torsions:
REMARK  status: ('A' for Active; 'I' for Inactive)
REMARK    1  A    between atoms: O1_2  and  C2_3 
REMARK    2  A    between atoms: C6_9  and  O2_10 
REMARK    3  A    between atoms: O2_10  and  C7_11 
REMARK    4  A    between atoms: C13_20  and  O5_21 
ROOT
HETATM    1  C2  UNL     1      23.018  -0.160  53.282  1.00  0.00     0.103 A 
HETATM    2  C3  UNL     1      22.020   0.190  52.385  1.00  0.00     0.072 A 
HETATM    3  C4  UNL     1      22.269   1.119  51.393  1.00  0.00     0.075 A 
HETATM    4  N1  UNL     1      21.318   1.476  50.510  1.00  0.00    -0.241 NA
HETATM    5  C5  UNL     1      21.533   2.375  49.536  1.00  0.00     0.236 A 
HETATM    6  N2  UNL     1      22.745   2.953  49.427  1.00  0.00    -0.217 NA
HETATM    7  C6  UNL     1      23.767   2.657  50.270  1.00  0.00     0.183 A 
HETATM    8  C11 UNL     1      23.506   1.720  51.267  1.00  0.00     0.049 A 
HETATM    9  C12 UNL     1      24.491   1.363  52.166  1.00  0.00     0.057 A 
HETATM   10  C13 UNL     1      24.270   0.439  53.166  1.00  0.00     0.102 A 
ENDROOT
BRANCH   7  11
HETATM   11  O2  UNL     1      25.031   3.195  50.231  1.00  0.00    -0.292 OA
BRANCH  11  12
HETATM   12  C7  UNL     1      25.208   4.592  50.281  1.00  0.00     0.095 A 
HETATM   13  C8  UNL     1      24.520   5.235  51.207  1.00  0.00     0.128 A 
HETATM   14  N3  UNL     1      24.751   6.637  51.194  1.00  0.00    -0.310 N 
HETATM   15  C9  UNL     1      25.651   7.175  50.237  1.00  0.00     0.364 A 
HETATM   16  H7  UNL     1      24.248   7.231  51.893  1.00  0.00     0.170 HD
HETATM   17  O3  UNL     1      25.799   8.441  50.297  1.00  0.00    -0.238 OA
HETATM   18  O4  UNL     1      26.347   6.446  49.288  1.00  0.00    -0.297 OA
HETATM   19  C10 UNL     1      26.163   5.048  49.245  1.00  0.00     0.247 A 
ENDBRANCH  11  12
ENDBRANCH   7  11
BRANCH  10  20
HETATM   20  O5  UNL     1      25.196   0.025  54.105  1.00  0.00    -0.353 OA
HETATM   21  C14 UNL     1      26.360   0.760  54.330  1.00  0.00     0.210 C 
ENDBRANCH  10  20
BRANCH   1  22
HETATM   22  O1  UNL     1      22.736  -1.096  54.267  1.00  0.00    -0.353 OA
HETATM   23  C1  UNL     1      21.419  -1.592  54.328  1.00  0.00     0.210 C 
ENDBRANCH   1  22
TORSDOF 4
ENDMDL
MODEL 9
REMARK VINA RESULT:      -6.2      3.377      4.374
REMARK  4 active torsions:
REMARK  status: ('A' for Active; 'I' for Inactive)
REMARK    1  A    between atoms: O1_2  and  C2_3 
REMARK    2  A    between atoms: C6_9  and  O2_10 
REMARK    3  A    between atoms: O2_10  and  C7_11 
REMARK    4  A    between atoms: C13_20  and  O5_21 
ROOT
HETATM    1  C2  UNL     1      19.058  -0.636  53.096  1.00  0.00     0.103 A 
HETATM    2  C3  UNL     1      20.234  -0.973  53.751  1.00  0.00     0.072 A 
HETATM    3  C4  UNL     1      21.438  -0.437  53.339  1.00  0.00     0.075 A 
HETATM    4  N1  UNL     1      22.593  -0.747  53.957  1.00  0.00    -0.241 NA
HETATM    5  C5  UNL     1      23.778  -0.241  53.578  1.00  0.00     0.236 A 
HETATM    6  N2  UNL     1      23.828   0.612  52.537  1.00  0.00    -0.217 NA
HETATM    7  C6  UNL     1      22.717   0.985  51.852  1.00  0.00     0.183 A 
HETATM    8  C11 UNL     1      21.508   0.440  52.274  1.00  0.00     0.049 A 
HETATM    9  C12 UNL     1      20.331   0.767  51.631  1.00  0.00     0.057 A 
HETATM   10  C13 UNL     1      19.114   0.248  52.020  1.00  0.00     0.102 A 
ENDROOT
BRANCH   7  11
HETATM   11  O2  UNL     1      22.677   1.848  50.782  1.00  0.00    -0.292 OA
BRANCH  11  12
HETATM   12  C7  UNL     1      23.151   3.167  50.917  1.00  0.00     0.095 A 
HETATM   13  C8  UNL     1      24.235   3.471  50.227  1.00  0.00     0.128 A 
HETATM   14  N3  UNL     1      24.652   4.816  50.414  1.00  0.00    -0.310 N 
HETATM   15  C9  UNL     1      23.899   5.653  51.279  1.00  0.00     0.364 A 
HETATM   16  H7  UNL     1      25.504   5.149  49.906  1.00  0.00     0.170 HD
HETATM   17  O3  UNL     1      24.344   6.844  51.388  1.00  0.00    -0.238 OA
HETATM   18  O4  UNL     1      22.765   5.276  51.978  1.00  0.00    -0.297 OA
HETATM   19  C10 UNL     1      22.297   3.952  51.838  1.00  0.00     0.247 A 
ENDBRANCH  11  12
ENDBRANCH   7  11
BRANCH  10  20
HETATM   20  O5  UNL     1      17.892   0.520  51.435  1.00  0.00    -0.353 OA
HETATM   21  C14 UNL     1      17.619   0.108  50.130  1.00  0.00     0.210 C 
ENDBRANCH  10  20
BRANCH   1  22
HETATM   22  O1  UNL     1      17.864  -1.191  53.534  1.00  0.00    -0.353 OA
HETATM   23  C1  UNL     1      17.784  -2.597  53.580  1.00  0.00     0.210 C 
ENDBRANCH   1  22
TORSDOF 4
ENDMDL
