MODEL 1
REMARK VINA RESULT:      -6.5      0.000      0.000
REMARK  5 active torsions:
REMARK  status: ('A' for Active; 'I' for Inactive)
REMARK    1  A    between atoms: C1_2  and  C2_3 
REMARK       I    between atoms: C1_2  and  N2_11 
REMARK    2  A    between atoms: C2_3  and  C3_4 
REMARK    3  A    between atoms: N2_11  and  S1_12 
REMARK    4  A    between atoms: S1_12  and  C7_15 
REMARK    5  A    between atoms: C9_18  and  C10_19 
ROOT
HETATM    1  O1  UNL     1      25.095   2.505  50.974  1.00  0.00    -0.272 OA
HETATM    2  C1  UNL     1      24.883   2.938  52.137  1.00  0.00     0.235 C 
HETATM    3  N2  UNL     1      24.171   4.187  52.254  1.00  0.00    -0.250 N 
HETATM    4  H7  UNL     1      23.908   4.695  53.146  1.00  0.00     0.181 HD
ENDROOT
BRANCH   3   5
HETATM    5  S1  UNL     1      23.652   5.016  50.825  1.00  0.00     0.266 S 
HETATM    6  O2  UNL     1      22.564   6.007  51.094  1.00  0.00    -0.200 OA
HETATM    7  O3  UNL     1      23.117   4.040  49.788  1.00  0.00    -0.200 OA
BRANCH   5   8
HETATM    8  C7  UNL     1      24.964   5.901  50.083  1.00  0.00     0.089 A 
HETATM    9  P2  UNL     1      25.093   7.608  50.073  1.00  0.00    -0.031 P 
HETATM   10  C8  UNL     1      26.751   7.732  49.098  1.00  0.00     0.081 A 
HETATM   11  C9  UNL     1      26.960   6.274  48.918  1.00  0.00    -0.045 A 
HETATM   12  C11 UNL     1      26.099   5.399  49.393  1.00  0.00     0.032 A 
BRANCH  11  13
HETATM   13  C10 UNL     1      28.218   5.935  48.159  1.00  0.00     0.257 C 
HETATM   14  F1  UNL     1      28.462   4.594  48.193  1.00  0.00    -0.251 F 
ENDBRANCH  11  13
ENDBRANCH   5   8
ENDBRANCH   3   5
BRANCH   2  15
HETATM   15  C2  UNL     1      25.223   2.420  53.511  1.00  0.00     0.144 C 
BRANCH  15  16
HETATM   16  C3  UNL     1      25.867   1.095  53.446  1.00  0.00    -0.026 A 
HETATM   17  C4  UNL     1      25.308  -0.099  53.376  1.00  0.00     0.035 A 
HETATM   18 BR1  UNL     1      23.429  -0.415  53.338  1.00  0.00    -0.049 Br
HETATM   19  C5  UNL     1      26.257  -1.201  53.328  1.00  0.00     0.130 A 
HETATM   20  N1  UNL     1      27.534  -1.291  53.337  1.00  0.00    -0.296 NA
HETATM   21  C6  UNL     1      28.486  -0.233  53.404  1.00  0.00     0.183 A 
HETATM   22  P1  UNL     1      27.667   1.434  53.482  1.00  0.00    -0.077 P 
HETATM   23  H6  UNL     1      28.071   2.177  54.652  1.00  0.00     0.064 HD
ENDBRANCH  15  16
ENDBRANCH   2  15
TORSDOF 5
ENDMDL
MODEL 2
REMARK VINA RESULT:      -6.5      2.478      2.857
REMARK  5 active torsions:
REMARK  status: ('A' for Active; 'I' for Inactive)
REMARK    1  A    between atoms: C1_2  and  C2_3 
REMARK       I    between atoms: C1_2  and  N2_11 
REMARK    2  A    between atoms: C2_3  and  C3_4 
REMARK    3  A    between atoms: N2_11  and  S1_12 
REMARK    4  A    between atoms: S1_12  and  C7_15 
REMARK    5  A    between atoms: C9_18  and  C10_19 
ROOT
HETATM    1  O1  UNL     1      24.328   2.985  53.168  1.00  0.00    -0.272 OA
HETATM    2  C1  UNL     1      24.011   2.145  52.286  1.00  0.00     0.235 C 
HETATM    3  N2  UNL     1      23.223   2.622  51.176  1.00  0.00    -0.250 N 
HETATM    4  H7  UNL     1      22.870   2.058  50.350  1.00  0.00     0.181 HD
ENDROOT
BRANCH   3   5
HETATM    5  S1  UNL     1      22.758   4.288  51.106  1.00  0.00     0.266 S 
HETATM    6  O2  UNL     1      22.361   4.835  52.440  1.00  0.00    -0.200 OA
HETATM    7  O3  UNL     1      21.572   4.488  50.173  1.00  0.00    -0.200 OA
BRANCH   5   8
HETATM    8  C7  UNL     1      24.061   5.294  50.519  1.00  0.00     0.089 A 
HETATM    9  P2  UNL     1      24.210   6.968  50.845  1.00  0.00    -0.031 P 
HETATM   10  C8  UNL     1      25.845   7.272  49.869  1.00  0.00     0.081 A 
HETATM   11  C9  UNL     1      26.031   5.878  49.397  1.00  0.00    -0.045 A 
HETATM   12  C11 UNL     1      25.172   4.932  49.712  1.00  0.00     0.032 A 
BRANCH  11  13
HETATM   13  C10 UNL     1      27.264   5.689  48.551  1.00  0.00     0.257 C 
HETATM   14  F1  UNL     1      27.619   4.374  48.493  1.00  0.00    -0.251 F 
ENDBRANCH  11  13
ENDBRANCH   5   8
ENDBRANCH   3   5
BRANCH   2  15
HETATM   15  C2  UNL     1      24.284   0.672  52.117  1.00  0.00     0.144 C 
BRANCH  15  16
HETATM   16  C3  UNL     1      23.936  -0.087  53.331  1.00  0.00    -0.026 A 
HETATM   17  C4  UNL     1      24.696  -0.390  54.369  1.00  0.00     0.035 A 
HETATM   18 BR1  UNL     1      26.525   0.110  54.554  1.00  0.00    -0.049 Br
HETATM   19  C5  UNL     1      24.017  -1.161  55.400  1.00  0.00     0.130 A 
HETATM   20  N1  UNL     1      22.833  -1.625  55.545  1.00  0.00    -0.296 NA
HETATM   21  C6  UNL     1      21.731  -1.509  54.651  1.00  0.00     0.183 A 
HETATM   22  P1  UNL     1      22.176  -0.549  53.123  1.00  0.00    -0.077 P 
HETATM   23  H6  UNL     1      21.939  -1.312  51.920  1.00  0.00     0.064 HD
ENDBRANCH  15  16
ENDBRANCH   2  15
TORSDOF 5
ENDMDL
MODEL 3
REMARK VINA RESULT:      -6.3      4.113      7.803
REMARK  5 active torsions:
REMARK  status: ('A' for Active; 'I' for Inactive)
REMARK    1  A    between atoms: C1_2  and  C2_3 
REMARK       I    between atoms: C1_2  and  N2_11 
REMARK    2  A    between atoms: C2_3  and  C3_4 
REMARK    3  A    between atoms: N2_11  and  S1_12 
REMARK    4  A    between atoms: S1_12  and  C7_15 
REMARK    5  A    between atoms: C9_18  and  C10_19 
ROOT
HETATM    1  O1  UNL     1      24.259   3.407  52.888  1.00  0.00    -0.272 OA
HETATM    2  C1  UNL     1      24.354   3.143  51.660  1.00  0.00     0.235 C 
HETATM    3  N2  UNL     1      25.078   1.949  51.299  1.00  0.00    -0.250 N 
HETATM    4  H7  UNL     1      25.255   1.575  50.322  1.00  0.00     0.181 HD
ENDROOT
BRANCH   3   5
HETATM    5  S1  UNL     1      25.769   0.955  52.537  1.00  0.00     0.266 S 
HETATM    6  O2  UNL     1      26.582   1.736  53.520  1.00  0.00    -0.200 OA
HETATM    7  O3  UNL     1      26.686  -0.104  51.944  1.00  0.00    -0.200 OA
BRANCH   5   8
HETATM    8  C7  UNL     1      24.535   0.123  53.455  1.00  0.00     0.089 A 
HETATM    9  P2  UNL     1      24.834  -0.777  54.880  1.00  0.00    -0.031 P 
HETATM   10  C8  UNL     1      23.017  -1.325  55.220  1.00  0.00     0.081 A 
HETATM   11  C9  UNL     1      22.407  -0.650  54.048  1.00  0.00    -0.045 A 
HETATM   12  C11 UNL     1      23.139   0.043  53.204  1.00  0.00     0.032 A 
BRANCH  11  13
HETATM   13  C10 UNL     1      20.916  -0.850  53.948  1.00  0.00     0.257 C 
HETATM   14  F1  UNL     1      20.532  -1.991  54.589  1.00  0.00    -0.251 F 
ENDBRANCH  11  13
ENDBRANCH   5   8
ENDBRANCH   3   5
BRANCH   2  15
HETATM   15  C2  UNL     1      23.855   3.828  50.415  1.00  0.00     0.144 C 
BRANCH  15  16
HETATM   16  C3  UNL     1      24.425   5.180  50.274  1.00  0.00    -0.026 A 
HETATM   17  C4  UNL     1      25.609   5.540  49.810  1.00  0.00     0.035 A 
HETATM   18 BR1  UNL     1      26.937   4.330  49.176  1.00  0.00    -0.049 Br
HETATM   19  C5  UNL     1      25.841   6.977  49.816  1.00  0.00     0.130 A 
HETATM   20  N1  UNL     1      25.156   7.998  50.171  1.00  0.00    -0.296 NA
HETATM   21  C6  UNL     1      23.840   8.024  50.716  1.00  0.00     0.183 A 
HETATM   22  P1  UNL     1      23.126   6.316  50.888  1.00  0.00    -0.077 P 
HETATM   23  H6  UNL     1      22.735   6.032  52.249  1.00  0.00     0.064 HD
ENDBRANCH  15  16
ENDBRANCH   2  15
TORSDOF 5
ENDMDL
MODEL 4
REMARK VINA RESULT:      -6.0      1.422      1.701
REMARK  5 active torsions:
REMARK  status: ('A' for Active; 'I' for Inactive)
REMARK    1  A    between atoms: C1_2  and  C2_3 
REMARK       I    between atoms: C1_2  and  N2_11 
REMARK    2  A    between atoms: C2_3  and  C3_4 
REMARK    3  A    between atoms: N2_11  and  S1_12 
REMARK    4  A    between atoms: S1_12  and  C7_15 
REMARK    5  A    between atoms: C9_18  and  C10_19 
ROOT
HETATM    1  O1  UNL     1      24.689   2.688  50.957  1.00  0.00    -0.272 OA
HETATM    2  C1  UNL     1      24.560   3.142  52.124  1.00  0.00     0.235 C 
HETATM    3  N2  UNL     1      24.040   4.481  52.256  1.00  0.00    -0.250 N 
HETATM    4  H7  UNL     1      23.866   5.017  53.154  1.00  0.00     0.181 HD
ENDROOT
BRANCH   3   5
HETATM    5  S1  UNL     1      23.625   5.384  50.838  1.00  0.00     0.266 S 
HETATM    6  O2  UNL     1      22.589   6.431  51.101  1.00  0.00    -0.200 OA
HETATM    7  O3  UNL     1      23.073   4.476  49.749  1.00  0.00    -0.200 OA
BRANCH   5   8
HETATM    8  C7  UNL     1      25.016   6.211  50.174  1.00  0.00     0.089 A 
HETATM    9  P2  UNL     1      26.093   5.524  49.035  1.00  0.00    -0.031 P 
HETATM   10  C8  UNL     1      27.272   7.040  48.855  1.00  0.00     0.081 A 
HETATM   11  C9  UNL     1      26.564   7.928  49.810  1.00  0.00    -0.045 A 
HETATM   12  C11 UNL     1      25.482   7.526  50.441  1.00  0.00     0.032 A 
BRANCH  11  13
HETATM   13  C10 UNL     1      27.209   9.282  49.963  1.00  0.00     0.257 C 
HETATM   14  F1  UNL     1      27.873   9.638  48.827  1.00  0.00    -0.251 F 
ENDBRANCH  11  13
ENDBRANCH   5   8
ENDBRANCH   3   5
BRANCH   2  15
HETATM   15  C2  UNL     1      24.841   2.572  53.490  1.00  0.00     0.144 C 
BRANCH  15  16
HETATM   16  C3  UNL     1      25.531   1.272  53.405  1.00  0.00    -0.026 A 
HETATM   17  C4  UNL     1      25.013   0.059  53.333  1.00  0.00     0.035 A 
HETATM   18 BR1  UNL     1      23.147  -0.323  53.322  1.00  0.00    -0.049 Br
HETATM   19  C5  UNL     1      26.001  -1.008  53.260  1.00  0.00     0.130 A 
HETATM   20  N1  UNL     1      27.280  -1.052  53.249  1.00  0.00    -0.296 NA
HETATM   21  C6  UNL     1      28.194   0.038  53.310  1.00  0.00     0.183 A 
HETATM   22  P1  UNL     1      27.318   1.674  53.415  1.00  0.00    -0.077 P 
HETATM   23  H6  UNL     1      27.714   2.422  54.585  1.00  0.00     0.064 HD
ENDBRANCH  15  16
ENDBRANCH   2  15
TORSDOF 5
ENDMDL
MODEL 5
REMARK VINA RESULT:      -6.0      2.066      2.276
REMARK  5 active torsions:
REMARK  status: ('A' for Active; 'I' for Inactive)
REMARK    1  A    between atoms: C1_2  and  C2_3 
REMARK       I    between atoms: C1_2  and  N2_11 
REMARK    2  A    between atoms: C2_3  and  C3_4 
REMARK    3  A    between atoms: N2_11  and  S1_12 
REMARK    4  A    between atoms: S1_12  and  C7_15 
REMARK    5  A    between atoms: C9_18  and  C10_19 
ROOT
HETATM    1  O1  UNL     1      23.334   3.769  52.331  1.00  0.00    -0.272 OA
HETATM    2  C1  UNL     1      23.148   2.892  51.447  1.00  0.00     0.235 C 
HETATM    3  N2  UNL     1      22.725   3.348  50.146  1.00  0.00    -0.250 N 
HETATM    4  H7  UNL     1      22.524   2.754  49.291  1.00  0.00     0.181 HD
ENDROOT
BRANCH   3   5
HETATM    5  S1  UNL     1      22.495   5.040  49.862  1.00  0.00     0.266 S 
HETATM    6  O2  UNL     1      21.722   5.711  50.952  1.00  0.00    -0.200 OA
HETATM    7  O3  UNL     1      21.736   5.281  48.565  1.00  0.00    -0.200 OA
BRANCH   5   8
HETATM    8  C7  UNL     1      24.022   5.883  49.737  1.00  0.00     0.089 A 
HETATM    9  P2  UNL     1      24.362   7.381  50.494  1.00  0.00    -0.031 P 
HETATM   10  C8  UNL     1      26.175   7.576  49.865  1.00  0.00     0.081 A 
HETATM   11  C9  UNL     1      26.229   6.314  49.087  1.00  0.00    -0.045 A 
HETATM   12  C11 UNL     1      25.193   5.505  49.029  1.00  0.00     0.032 A 
BRANCH  11  13
HETATM   13  C10 UNL     1      27.553   6.086  48.403  1.00  0.00     0.257 C 
HETATM   14  F1  UNL     1      27.877   4.762  48.394  1.00  0.00    -0.251 F 
ENDBRANCH  11  13
ENDBRANCH   5   8
ENDBRANCH   3   5
BRANCH   2  15
HETATM   15  C2  UNL     1      23.276   1.390  51.440  1.00  0.00     0.144 C 
BRANCH  15  16
HETATM   16  C3  UNL     1      24.390   0.936  52.291  1.00  0.00    -0.026 A 
HETATM   17  C4  UNL     1      25.671   1.252  52.223  1.00  0.00     0.035 A 
HETATM   18 BR1  UNL     1      26.428   2.435  50.935  1.00  0.00    -0.049 Br
HETATM   19  C5  UNL     1      26.498   0.610  53.234  1.00  0.00     0.130 A 
HETATM   20  N1  UNL     1      26.275  -0.204  54.196  1.00  0.00    -0.296 NA
HETATM   21  C6  UNL     1      25.031  -0.773  54.592  1.00  0.00     0.183 A 
HETATM   22  P1  UNL     1      23.630  -0.194  53.516  1.00  0.00    -0.077 P 
HETATM   23  H6  UNL     1      22.935  -1.299  52.898  1.00  0.00     0.064 HD
ENDBRANCH  15  16
ENDBRANCH   2  15
TORSDOF 5
ENDMDL
MODEL 6
REMARK VINA RESULT:      -5.9      3.640      7.397
REMARK  5 active torsions:
REMARK  status: ('A' for Active; 'I' for Inactive)
REMARK    1  A    between atoms: C1_2  and  C2_3 
REMARK       I    between atoms: C1_2  and  N2_11 
REMARK    2  A    between atoms: C2_3  and  C3_4 
REMARK    3  A    between atoms: N2_11  and  S1_12 
REMARK    4  A    between atoms: S1_12  and  C7_15 
REMARK    5  A    between atoms: C9_18  and  C10_19 
ROOT
HETATM    1  O1  UNL     1      22.437   3.497  51.377  1.00  0.00    -0.272 OA
HETATM    2  C1  UNL     1      23.226   3.072  50.492  1.00  0.00     0.235 C 
HETATM    3  N2  UNL     1      24.305   2.220  50.927  1.00  0.00    -0.250 N 
HETATM    4  H7  UNL     1      25.056   1.776  50.324  1.00  0.00     0.181 HD
ENDROOT
BRANCH   3   5
HETATM    5  S1  UNL     1      24.466   1.827  52.606  1.00  0.00     0.266 S 
HETATM    6  O2  UNL     1      23.285   1.082  53.142  1.00  0.00    -0.200 OA
HETATM    7  O3  UNL     1      24.622   3.083  53.451  1.00  0.00    -0.200 OA
BRANCH   5   8
HETATM    8  C7  UNL     1      25.867   0.823  52.898  1.00  0.00     0.089 A 
HETATM    9  P2  UNL     1      27.308   1.370  53.643  1.00  0.00    -0.031 P 
HETATM   10  C8  UNL     1      28.278  -0.295  53.574  1.00  0.00     0.081 A 
HETATM   11  C9  UNL     1      27.214  -1.091  52.913  1.00  0.00    -0.045 A 
HETATM   12  C11 UNL     1      26.059  -0.550  52.591  1.00  0.00     0.032 A 
BRANCH  11  13
HETATM   13  C10 UNL     1      27.603  -2.527  52.667  1.00  0.00     0.257 C 
HETATM   14  F1  UNL     1      28.908  -2.743  52.995  1.00  0.00    -0.251 F 
ENDBRANCH  11  13
ENDBRANCH   5   8
ENDBRANCH   3   5
BRANCH   2  15
HETATM   15  C2  UNL     1      23.302   3.263  48.999  1.00  0.00     0.144 C 
BRANCH  15  16
HETATM   16  C3  UNL     1      23.364   4.690  48.637  1.00  0.00    -0.026 A 
HETATM   17  C4  UNL     1      24.396   5.514  48.675  1.00  0.00     0.035 A 
HETATM   18 BR1  UNL     1      26.149   5.028  49.240  1.00  0.00    -0.049 Br
HETATM   19  C5  UNL     1      24.093   6.870  48.242  1.00  0.00     0.130 A 
HETATM   20  N1  UNL     1      23.042   7.468  47.823  1.00  0.00    -0.296 NA
HETATM   21  C6  UNL     1      21.738   6.925  47.642  1.00  0.00     0.183 A 
HETATM   22  P1  UNL     1      21.668   5.124  48.098  1.00  0.00    -0.077 P 
HETATM   23  H6  UNL     1      20.677   4.865  49.116  1.00  0.00     0.064 HD
ENDBRANCH  15  16
ENDBRANCH   2  15
TORSDOF 5
ENDMDL
MODEL 7
REMARK VINA RESULT:      -5.9      6.767      8.707
REMARK  5 active torsions:
REMARK  status: ('A' for Active; 'I' for Inactive)
REMARK    1  A    between atoms: C1_2  and  C2_3 
REMARK       I    between atoms: C1_2  and  N2_11 
REMARK    2  A    between atoms: C2_3  and  C3_4 
REMARK    3  A    between atoms: N2_11  and  S1_12 
REMARK    4  A    between atoms: S1_12  and  C7_15 
REMARK    5  A    between atoms: C9_18  and  C10_19 
ROOT
HETATM    1  O1  UNL     1      18.384  -1.054  53.441  1.00  0.00    -0.272 OA
HETATM    2  C1  UNL     1      18.713  -0.353  52.448  1.00  0.00     0.235 C 
HETATM    3  N2  UNL     1      20.076   0.114  52.395  1.00  0.00    -0.250 N 
HETATM    4  H7  UNL     1      20.522   0.709  51.640  1.00  0.00     0.181 HD
ENDROOT
BRANCH   3   5
HETATM    5  S1  UNL     1      21.174  -0.296  53.669  1.00  0.00     0.266 S 
HETATM    6  O2  UNL     1      21.195  -1.762  53.966  1.00  0.00    -0.200 OA
HETATM    7  O3  UNL     1      20.805   0.414  54.963  1.00  0.00    -0.200 OA
BRANCH   5   8
HETATM    8  C7  UNL     1      22.815   0.159  53.273  1.00  0.00     0.089 A 
HETATM    9  P2  UNL     1      23.260   1.656  52.574  1.00  0.00    -0.031 P 
HETATM   10  C8  UNL     1      25.159   1.339  52.480  1.00  0.00     0.081 A 
HETATM   11  C9  UNL     1      25.140  -0.023  53.068  1.00  0.00    -0.045 A 
HETATM   12  C11 UNL     1      24.013  -0.585  53.448  1.00  0.00     0.032 A 
BRANCH  11  13
HETATM   13  C10 UNL     1      26.506  -0.653  53.171  1.00  0.00     0.257 C 
HETATM   14  F1  UNL     1      26.996  -0.961  51.937  1.00  0.00    -0.251 F 
ENDBRANCH  11  13
ENDBRANCH   5   8
ENDBRANCH   3   5
BRANCH   2  15
HETATM   15  C2  UNL     1      17.964   0.133  51.234  1.00  0.00     0.144 C 
BRANCH  15  16
HETATM   16  C3  UNL     1      16.920   1.110  51.595  1.00  0.00    -0.026 A 
HETATM   17  C4  UNL     1      15.692   0.891  52.030  1.00  0.00     0.035 A 
HETATM   18 BR1  UNL     1      14.933  -0.834  52.311  1.00  0.00    -0.049 Br
HETATM   19  C5  UNL     1      14.928   2.102  52.291  1.00  0.00     0.130 A 
HETATM   20  N1  UNL     1      15.167   3.356  52.198  1.00  0.00    -0.296 NA
HETATM   21  C6  UNL     1      16.369   3.989  51.769  1.00  0.00     0.183 A 
HETATM   22  P1  UNL     1      17.681   2.752  51.318  1.00  0.00    -0.077 P 
HETATM   23  H6  UNL     1      18.143   2.930  49.961  1.00  0.00     0.064 HD
ENDBRANCH  15  16
ENDBRANCH   2  15
TORSDOF 5
ENDMDL
MODEL 8
REMARK VINA RESULT:      -5.9      2.822      3.376
REMARK  5 active torsions:
REMARK  status: ('A' for Active; 'I' for Inactive)
REMARK    1  A    between atoms: C1_2  and  C2_3 
REMARK       I    between atoms: C1_2  and  N2_11 
REMARK    2  A    between atoms: C2_3  and  C3_4 
REMARK    3  A    between atoms: N2_11  and  S1_12 
REMARK    4  A    between atoms: S1_12  and  C7_15 
REMARK    5  A    between atoms: C9_18  and  C10_19 
ROOT
HETATM    1  O1  UNL     1      24.591   2.570  50.713  1.00  0.00    -0.272 OA
HETATM    2  C1  UNL     1      24.582   3.111  51.849  1.00  0.00     0.235 C 
HETATM    3  N2  UNL     1      24.556   4.553  51.891  1.00  0.00    -0.250 N 
HETATM    4  H7  UNL     1      24.545   5.170  52.752  1.00  0.00     0.181 HD
ENDROOT
BRANCH   3   5
HETATM    5  S1  UNL     1      24.540   5.454  50.413  1.00  0.00     0.266 S 
HETATM    6  O2  UNL     1      25.738   5.187  49.558  1.00  0.00    -0.200 OA
HETATM    7  O3  UNL     1      24.512   6.952  50.683  1.00  0.00    -0.200 OA
BRANCH   5   8
HETATM    8  C7  UNL     1      23.136   5.072  49.443  1.00  0.00     0.089 A 
HETATM    9  P2  UNL     1      21.520   5.345  49.935  1.00  0.00    -0.031 P 
HETATM   10  C8  UNL     1      20.654   4.672  48.349  1.00  0.00     0.081 A 
HETATM   11  C9  UNL     1      21.890   4.305  47.616  1.00  0.00    -0.045 A 
HETATM   12  C11 UNL     1      23.079   4.498  48.145  1.00  0.00     0.032 A 
BRANCH  11  13
HETATM   13  C10 UNL     1      21.628   3.708  46.256  1.00  0.00     0.257 C 
HETATM   14  F1  UNL     1      22.318   4.377  45.289  1.00  0.00    -0.251 F 
ENDBRANCH  11  13
ENDBRANCH   5   8
ENDBRANCH   3   5
BRANCH   2  15
HETATM   15  C2  UNL     1      24.592   2.565  53.254  1.00  0.00     0.144 C 
BRANCH  15  16
HETATM   16  C3  UNL     1      25.338   1.297  53.337  1.00  0.00    -0.026 A 
HETATM   17  C4  UNL     1      24.875   0.060  53.370  1.00  0.00     0.035 A 
HETATM   18 BR1  UNL     1      23.029  -0.408  53.315  1.00  0.00    -0.049 Br
HETATM   19  C5  UNL     1      25.909  -0.961  53.456  1.00  0.00     0.130 A 
HETATM   20  N1  UNL     1      27.188  -0.947  53.508  1.00  0.00    -0.296 NA
HETATM   21  C6  UNL     1      28.052   0.185  53.495  1.00  0.00     0.183 A 
HETATM   22  P1  UNL     1      27.104   1.780  53.387  1.00  0.00    -0.077 P 
HETATM   23  H6  UNL     1      27.410   2.663  54.488  1.00  0.00     0.064 HD
ENDBRANCH  15  16
ENDBRANCH   2  15
TORSDOF 5
ENDMDL
MODEL 9
REMARK VINA RESULT:      -5.9      2.935      3.187
REMARK  5 active torsions:
REMARK  status: ('A' for Active; 'I' for Inactive)
REMARK    1  A    between atoms: C1_2  and  C2_3 
REMARK       I    between atoms: C1_2  and  N2_11 
REMARK    2  A    between atoms: C2_3  and  C3_4 
REMARK    3  A    between atoms: N2_11  and  S1_12 
REMARK    4  A    between atoms: S1_12  and  C7_15 
REMARK    5  A    between atoms: C9_18  and  C10_19 
ROOT
HETATM    1  O1  UNL     1      23.465   3.091  52.654  1.00  0.00    -0.272 OA
HETATM    2  C1  UNL     1      22.944   2.400  51.740  1.00  0.00     0.235 C 
HETATM    3  N2  UNL     1      22.298   3.111  50.665  1.00  0.00    -0.250 N 
HETATM    4  H7  UNL     1      21.812   2.694  49.819  1.00  0.00     0.181 HD
ENDROOT
BRANCH   3   5
HETATM    5  S1  UNL     1      22.267   4.842  50.677  1.00  0.00     0.266 S 
HETATM    6  O2  UNL     1      21.925   5.406  52.019  1.00  0.00    -0.200 OA
HETATM    7  O3  UNL     1      21.237   5.380  49.693  1.00  0.00    -0.200 OA
BRANCH   5   8
HETATM    8  C7  UNL     1      23.817   5.515  50.230  1.00  0.00     0.089 A 
HETATM    9  P2  UNL     1      24.282   7.139  50.511  1.00  0.00    -0.031 P 
HETATM   10  C8  UNL     1      26.049   7.033  49.748  1.00  0.00     0.081 A 
HETATM   11  C9  UNL     1      25.987   5.603  49.356  1.00  0.00    -0.045 A 
HETATM   12  C11 UNL     1      24.914   4.879  49.590  1.00  0.00     0.032 A 
BRANCH  11  13
HETATM   13  C10 UNL     1      27.245   5.107  48.688  1.00  0.00     0.257 C 
HETATM   14  F1  UNL     1      28.078   6.143  48.385  1.00  0.00    -0.251 F 
ENDBRANCH  11  13
ENDBRANCH   5   8
ENDBRANCH   3   5
BRANCH   2  15
HETATM   15  C2  UNL     1      22.837   0.916  51.501  1.00  0.00     0.144 C 
BRANCH  15  16
HETATM   16  C3  UNL     1      22.344   0.208  52.696  1.00  0.00    -0.026 A 
HETATM   17  C4  UNL     1      21.098  -0.018  53.074  1.00  0.00     0.035 A 
HETATM   18 BR1  UNL     1      19.555   0.550  52.111  1.00  0.00    -0.049 Br
HETATM   19  C5  UNL     1      20.978  -0.756  54.322  1.00  0.00     0.130 A 
HETATM   20  N1  UNL     1      21.809  -1.250  55.160  1.00  0.00    -0.296 NA
HETATM   21  C6  UNL     1      23.232  -1.217  55.105  1.00  0.00     0.183 A 
HETATM   22  P1  UNL     1      23.848  -0.326  53.595  1.00  0.00    -0.077 P 
HETATM   23  H6  UNL     1      24.713   0.779  53.938  1.00  0.00     0.064 HD
ENDBRANCH  15  16
ENDBRANCH   2  15
TORSDOF 5
ENDMDL
