MODEL 1
REMARK VINA RESULT:      -7.6      0.000      0.000
REMARK  2 active torsions:
REMARK  status: ('A' for Active; 'I' for Inactive)
REMARK    1  A    between atoms: C8_11  and  O1_12 
REMARK    2  A    between atoms: C10_14  and  O2_15 
ROOT
HETATM    1  C1  UNL     1      29.447   2.054  54.499  1.00  0.00     0.038 C 
HETATM    2  C2  UNL     1      28.489   0.900  54.386  1.00  0.00    -0.004 C 
HETATM    3  C3  UNL     1      27.237   1.212  54.095  1.00  0.00     0.029 C 
HETATM    4  N1  UNL     1      26.676   2.491  53.878  1.00  0.00    -0.343 N 
HETATM    5  C4  UNL     1      25.343   2.387  53.390  1.00  0.00     0.137 C 
HETATM    6  N2  UNL     1      24.312   3.158  53.004  1.00  0.00    -0.224 NA
HETATM    7  C5  UNL     1      23.926   3.285  51.724  1.00  0.00     0.234 C 
HETATM    8  N3  UNL     1      22.660   3.412  51.287  1.00  0.00    -0.254 NA
HETATM    9  C6  UNL     1      21.707   3.463  52.263  1.00  0.00     0.121 C 
HETATM   10  C7  UNL     1      21.191   2.175  52.454  1.00  0.00     0.059 C 
HETATM   11  C8  UNL     1      21.665   0.902  52.119  1.00  0.00     0.102 C 
HETATM   12  C10 UNL     1      22.669   0.206  52.796  1.00  0.00     0.102 C 
HETATM   13  C12 UNL     1      24.027   0.396  52.739  1.00  0.00     0.052 C 
HETATM   14  C13 UNL     1      25.090   1.030  53.310  1.00  0.00     0.015 C 
HETATM   15  C14 UNL     1      26.126   0.207  53.937  1.00  0.00     0.083 C 
HETATM   16  C15 UNL     1      25.729  -0.331  55.290  1.00  0.00     0.039 C 
HETATM   17  I1  UNL     1      26.803  -1.275  52.596  1.00  0.00    -0.067 I 
HETATM   18  H5  UNL     1      27.120   3.410  54.031  1.00  0.00     0.167 HD
ENDROOT
BRANCH  12  19
HETATM   19  O2  UNL     1      21.855  -0.673  53.490  1.00  0.00    -0.353 OA
HETATM   20  C11 UNL     1      21.919  -0.964  54.849  1.00  0.00     0.210 C 
ENDBRANCH  12  19
BRANCH  11  21
HETATM   21  O1  UNL     1      21.078   0.283  51.011  1.00  0.00    -0.353 OA
HETATM   22  C9  UNL     1      19.730   0.648  50.745  1.00  0.00     0.210 C 
ENDBRANCH  11  21
TORSDOF 2
ENDMDL
MODEL 2
REMARK VINA RESULT:      -7.2      2.714      4.865
REMARK  2 active torsions:
REMARK  status: ('A' for Active; 'I' for Inactive)
REMARK    1  A    between atoms: C8_11  and  O1_12 
REMARK    2  A    between atoms: C10_14  and  O2_15 
ROOT
HETATM    1  C1  UNL     1      26.804   6.219  48.952  1.00  0.00     0.038 C 
HETATM    2  C2  UNL     1      25.431   5.636  49.141  1.00  0.00    -0.004 C 
HETATM    3  C3  UNL     1      25.367   4.518  49.843  1.00  0.00     0.029 C 
HETATM    4  N1  UNL     1      26.423   3.793  50.441  1.00  0.00    -0.343 N 
HETATM    5  C4  UNL     1      25.920   2.758  51.280  1.00  0.00     0.137 C 
HETATM    6  N2  UNL     1      26.347   1.771  52.088  1.00  0.00    -0.224 NA
HETATM    7  C5  UNL     1      26.244   1.818  53.425  1.00  0.00     0.234 C 
HETATM    8  N3  UNL     1      25.984   0.777  54.237  1.00  0.00    -0.254 NA
HETATM    9  C6  UNL     1      25.872  -0.434  53.617  1.00  0.00     0.121 C 
HETATM   10  C7  UNL     1      24.518  -0.684  53.364  1.00  0.00     0.059 C 
HETATM   11  C8  UNL     1      23.392   0.145  53.311  1.00  0.00     0.102 C 
HETATM   12  C10 UNL     1      23.058   0.992  52.252  1.00  0.00     0.102 C 
HETATM   13  C12 UNL     1      23.597   2.213  51.932  1.00  0.00     0.052 C 
HETATM   14  C13 UNL     1      24.544   2.854  51.191  1.00  0.00     0.015 C 
HETATM   15  C14 UNL     1      24.092   3.776  50.146  1.00  0.00     0.083 C 
HETATM   16  C15 UNL     1      23.598   3.080  48.902  1.00  0.00     0.039 C 
HETATM   17  I1  UNL     1      22.723   5.174  50.939  1.00  0.00    -0.067 I 
HETATM   18  H5  UNL     1      27.438   3.943  50.328  1.00  0.00     0.167 HD
ENDROOT
BRANCH  12  19
HETATM   19  O2  UNL     1      22.063   0.209  51.690  1.00  0.00    -0.353 OA
HETATM   20  C11 UNL     1      21.238   0.558  50.626  1.00  0.00     0.210 C 
ENDBRANCH  12  19
BRANCH  11  21
HETATM   21  O1  UNL     1      22.535   0.115  54.415  1.00  0.00    -0.353 OA
HETATM   22  C9  UNL     1      22.261  -1.174  54.947  1.00  0.00     0.210 C 
ENDBRANCH  11  21
TORSDOF 2
ENDMDL
MODEL 3
REMARK VINA RESULT:      -6.5      2.781      5.695
REMARK  2 active torsions:
REMARK  status: ('A' for Active; 'I' for Inactive)
REMARK    1  A    between atoms: C8_11  and  O1_12 
REMARK    2  A    between atoms: C10_14  and  O2_15 
ROOT
HETATM    1  C1  UNL     1      19.959   4.545  50.374  1.00  0.00     0.038 C 
HETATM    2  C2  UNL     1      21.441   4.519  50.627  1.00  0.00    -0.004 C 
HETATM    3  C3  UNL     1      21.871   3.590  51.464  1.00  0.00     0.029 C 
HETATM    4  N1  UNL     1      21.118   2.616  52.159  1.00  0.00    -0.343 N 
HETATM    5  C4  UNL     1      21.972   1.675  52.801  1.00  0.00     0.137 C 
HETATM    6  N2  UNL     1      21.917   0.574  53.571  1.00  0.00    -0.224 NA
HETATM    7  C5  UNL     1      22.219  -0.654  53.121  1.00  0.00     0.234 C 
HETATM    8  N3  UNL     1      22.836  -1.624  53.821  1.00  0.00    -0.254 NA
HETATM    9  C6  UNL     1      23.122  -1.317  55.120  1.00  0.00     0.121 C 
HETATM   10  C7  UNL     1      24.439  -0.848  55.190  1.00  0.00     0.059 C 
HETATM   11  C8  UNL     1      25.322  -0.346  54.227  1.00  0.00     0.102 C 
HETATM   12  C10 UNL     1      25.280   0.937  53.678  1.00  0.00     0.102 C 
HETATM   13  C12 UNL     1      24.432   1.427  52.717  1.00  0.00     0.052 C 
HETATM   14  C13 UNL     1      23.257   2.082  52.494  1.00  0.00     0.015 C 
HETATM   15  C14 UNL     1      23.314   3.395  51.850  1.00  0.00     0.083 C 
HETATM   16  C15 UNL     1      23.747   4.503  52.779  1.00  0.00     0.039 C 
HETATM   17  I1  UNL     1      24.435   3.294  50.065  1.00  0.00    -0.067 I 
HETATM   18  H5  UNL     1      20.091   2.541  52.228  1.00  0.00     0.167 HD
ENDROOT
BRANCH  12  19
HETATM   19  O2  UNL     1      26.324   1.487  54.402  1.00  0.00    -0.353 OA
HETATM   20  C11 UNL     1      27.454   2.111  53.882  1.00  0.00     0.210 C 
ENDBRANCH  12  19
BRANCH  11  21
HETATM   21  O1  UNL     1      26.328  -1.211  53.785  1.00  0.00    -0.353 OA
HETATM   22  C9  UNL     1      26.440  -1.357  52.376  1.00  0.00     0.210 C 
ENDBRANCH  11  21
TORSDOF 2
ENDMDL
MODEL 4
REMARK VINA RESULT:      -6.3      9.601     12.038
REMARK  2 active torsions:
REMARK  status: ('A' for Active; 'I' for Inactive)
REMARK    1  A    between atoms: C8_11  and  O1_12 
REMARK    2  A    between atoms: C10_14  and  O2_15 
ROOT
HETATM    1  C1  UNL     1      25.804   5.723  48.966  1.00  0.00     0.038 C 
HETATM    2  C2  UNL     1      26.595   6.907  48.482  1.00  0.00    -0.004 C 
HETATM    3  C3  UNL     1      27.906   6.745  48.425  1.00  0.00     0.029 C 
HETATM    4  N1  UNL     1      28.667   5.602  48.762  1.00  0.00    -0.343 N 
HETATM    5  C4  UNL     1      30.026   5.760  48.367  1.00  0.00     0.137 C 
HETATM    6  N2  UNL     1      31.199   5.104  48.385  1.00  0.00    -0.224 NA
HETATM    7  C5  UNL     1      31.768   4.584  47.287  1.00  0.00     0.234 C 
HETATM    8  N3  UNL     1      33.087   4.538  47.023  1.00  0.00    -0.254 NA
HETATM    9  C6  UNL     1      33.897   5.028  48.007  1.00  0.00     0.121 C 
HETATM   10  C7  UNL     1      34.193   6.366  47.719  1.00  0.00     0.059 C 
HETATM   11  C8  UNL     1      33.593   7.314  46.883  1.00  0.00     0.102 C 
HETATM   12  C10 UNL     1      32.418   8.015  47.164  1.00  0.00     0.102 C 
HETATM   13  C12 UNL     1      31.121   7.572  47.089  1.00  0.00     0.052 C 
HETATM   14  C13 UNL     1      30.092   7.012  47.785  1.00  0.00     0.015 C 
HETATM   15  C14 UNL     1      28.874   7.804  47.968  1.00  0.00     0.083 C 
HETATM   16  C15 UNL     1      29.003   8.869  49.029  1.00  0.00     0.039 C 
HETATM   17  I1  UNL     1      28.181   8.532  46.112  1.00  0.00    -0.067 I 
HETATM   18  H5  UNL     1      28.342   4.741  49.229  1.00  0.00     0.167 HD
ENDROOT
BRANCH  12  19
HETATM   19  O2  UNL     1      32.998   9.221  47.517  1.00  0.00    -0.353 OA
HETATM   20  C11 UNL     1      32.580  10.488  47.120  1.00  0.00     0.210 C 
ENDBRANCH  12  19
BRANCH  11  21
HETATM   21  O1  UNL     1      34.231   7.574  45.666  1.00  0.00    -0.353 OA
HETATM   22  C9  UNL     1      33.590   7.052  44.510  1.00  0.00     0.210 C 
ENDBRANCH  11  21
TORSDOF 2
ENDMDL
MODEL 5
REMARK VINA RESULT:      -5.7      6.041      7.665
REMARK  2 active torsions:
REMARK  status: ('A' for Active; 'I' for Inactive)
REMARK    1  A    between atoms: C8_11  and  O1_12 
REMARK    2  A    between atoms: C10_14  and  O2_15 
ROOT
HETATM    1  C1  UNL     1      31.461   6.648  48.405  1.00  0.00     0.038 C 
HETATM    2  C2  UNL     1      30.230   7.490  48.213  1.00  0.00    -0.004 C 
HETATM    3  C3  UNL     1      29.074   6.853  48.286  1.00  0.00     0.029 C 
HETATM    4  N1  UNL     1      28.840   5.479  48.521  1.00  0.00    -0.343 N 
HETATM    5  C4  UNL     1      27.454   5.227  48.729  1.00  0.00     0.137 C 
HETATM    6  N2  UNL     1      26.606   4.215  48.985  1.00  0.00    -0.224 NA
HETATM    7  C5  UNL     1      26.004   4.042  50.173  1.00  0.00     0.234 C 
HETATM    8  N3  UNL     1      24.754   3.585  50.368  1.00  0.00    -0.254 NA
HETATM    9  C6  UNL     1      24.080   3.225  49.237  1.00  0.00     0.121 C 
HETATM   10  C7  UNL     1      23.295   4.306  48.820  1.00  0.00     0.059 C 
HETATM   11  C8  UNL     1      23.331   5.675  49.109  1.00  0.00     0.102 C 
HETATM   12  C10 UNL     1      24.235   6.593  48.571  1.00  0.00     0.102 C 
HETATM   13  C12 UNL     1      25.550   6.795  48.908  1.00  0.00     0.052 C 
HETATM   14  C13 UNL     1      26.840   6.460  48.620  1.00  0.00     0.015 C 
HETATM   15  C14 UNL     1      27.729   7.512  48.124  1.00  0.00     0.083 C 
HETATM   16  C15 UNL     1      27.502   7.857  46.673  1.00  0.00     0.039 C 
HETATM   17  I1  UNL     1      27.686   9.183  49.413  1.00  0.00    -0.067 I 
HETATM   18  H5  UNL     1      29.533   4.715  48.550  1.00  0.00     0.167 HD
ENDROOT
BRANCH  12  19
HETATM   19  O2  UNL     1      23.384   7.177  47.647  1.00  0.00    -0.353 OA
HETATM   20  C11 UNL     1      23.184   8.540  47.452  1.00  0.00     0.210 C 
ENDBRANCH  12  19
BRANCH  11  21
HETATM   21  O1  UNL     1      22.378   6.153  50.013  1.00  0.00    -0.353 OA
HETATM   22  C9  UNL     1      21.209   5.357  50.154  1.00  0.00     0.210 C 
ENDBRANCH  11  21
TORSDOF 2
ENDMDL
MODEL 6
REMARK VINA RESULT:      -5.7      3.877      5.940
REMARK  2 active torsions:
REMARK  status: ('A' for Active; 'I' for Inactive)
REMARK    1  A    between atoms: C8_11  and  O1_12 
REMARK    2  A    between atoms: C10_14  and  O2_15 
ROOT
HETATM    1  C1  UNL     1      23.637  -0.612  53.403  1.00  0.00     0.038 C 
HETATM    2  C2  UNL     1      22.624   0.218  52.664  1.00  0.00    -0.004 C 
HETATM    3  C3  UNL     1      23.075   1.334  52.118  1.00  0.00     0.029 C 
HETATM    4  N1  UNL     1      24.389   1.855  52.138  1.00  0.00    -0.343 N 
HETATM    5  C4  UNL     1      24.508   2.972  51.263  1.00  0.00     0.137 C 
HETATM    6  N2  UNL     1      25.414   3.869  50.836  1.00  0.00    -0.224 NA
HETATM    7  C5  UNL     1      25.939   3.853  49.601  1.00  0.00     0.234 C 
HETATM    8  N3  UNL     1      26.259   4.931  48.861  1.00  0.00    -0.254 NA
HETATM    9  C6  UNL     1      26.067   6.137  49.472  1.00  0.00     0.121 C 
HETATM   10  C7  UNL     1      24.811   6.632  49.102  1.00  0.00     0.059 C 
HETATM   11  C8  UNL     1      23.673   6.026  48.558  1.00  0.00     0.102 C 
HETATM   12  C10 UNL     1      22.753   5.247  49.263  1.00  0.00     0.102 C 
HETATM   13  C12 UNL     1      22.877   3.945  49.678  1.00  0.00     0.052 C 
HETATM   14  C13 UNL     1      23.253   3.133  50.706  1.00  0.00     0.015 C 
HETATM   15  C14 UNL     1      22.225   2.303  51.337  1.00  0.00     0.083 C 
HETATM   16  C15 UNL     1      21.329   3.068  52.279  1.00  0.00     0.039 C 
HETATM   17  I1  UNL     1      21.178   1.190  49.881  1.00  0.00    -0.067 I 
HETATM   18  H5  UNL     1      25.195   1.518  52.687  1.00  0.00     0.167 HD
ENDROOT
BRANCH  12  19
HETATM   19  O2  UNL     1      21.752   6.197  49.380  1.00  0.00    -0.353 OA
HETATM   20  C11 UNL     1      21.456   6.953  50.510  1.00  0.00     0.210 C 
ENDBRANCH  12  19
BRANCH  11  21
HETATM   21  O1  UNL     1      23.447   6.224  47.192  1.00  0.00    -0.353 OA
HETATM   22  C9  UNL     1      23.707   7.535  46.708  1.00  0.00     0.210 C 
ENDBRANCH  11  21
TORSDOF 2
ENDMDL
MODEL 7
REMARK VINA RESULT:      -5.6      3.380      5.462
REMARK  2 active torsions:
REMARK  status: ('A' for Active; 'I' for Inactive)
REMARK    1  A    between atoms: C8_11  and  O1_12 
REMARK    2  A    between atoms: C10_14  and  O2_15 
ROOT
HETATM    1  C1  UNL     1      26.318   7.780  49.808  1.00  0.00     0.038 C 
HETATM    2  C2  UNL     1      24.891   7.386  49.541  1.00  0.00    -0.004 C 
HETATM    3  C3  UNL     1      24.539   6.175  49.939  1.00  0.00     0.029 C 
HETATM    4  N1  UNL     1      25.330   5.196  50.584  1.00  0.00    -0.343 N 
HETATM    5  C4  UNL     1      24.529   4.107  51.030  1.00  0.00     0.137 C 
HETATM    6  N2  UNL     1      24.635   2.929  51.669  1.00  0.00    -0.224 NA
HETATM    7  C5  UNL     1      24.198   2.730  52.923  1.00  0.00     0.234 C 
HETATM    8  N3  UNL     1      23.638   1.602  53.397  1.00  0.00    -0.254 NA
HETATM    9  C6  UNL     1      23.568   0.566  52.511  1.00  0.00     0.121 C 
HETATM   10  C7  UNL     1      22.306   0.578  51.905  1.00  0.00     0.059 C 
HETATM   11  C8  UNL     1      21.319   1.563  51.785  1.00  0.00     0.102 C 
HETATM   12  C10 UNL     1      21.353   2.640  50.897  1.00  0.00     0.102 C 
HETATM   13  C12 UNL     1      22.074   3.804  50.993  1.00  0.00     0.052 C 
HETATM   14  C13 UNL     1      23.238   4.426  50.652  1.00  0.00     0.015 C 
HETATM   15  C14 UNL     1      23.161   5.591  49.768  1.00  0.00     0.083 C 
HETATM   16  C15 UNL     1      22.936   5.233  48.319  1.00  0.00     0.039 C 
HETATM   17  I1  UNL     1      21.782   6.999  50.520  1.00  0.00    -0.067 I 
HETATM   18  H5  UNL     1      26.349   5.210  50.742  1.00  0.00     0.167 HD
ENDROOT
BRANCH  12  19
HETATM   19  O2  UNL     1      20.462   2.141  49.961  1.00  0.00    -0.353 OA
HETATM   20  C11 UNL     1      20.557   2.269  48.579  1.00  0.00     0.210 C 
ENDBRANCH  12  19
BRANCH  11  21
HETATM   21  O1  UNL     1      20.210   1.449  52.628  1.00  0.00    -0.353 OA
HETATM   22  C9  UNL     1      19.814   0.122  52.949  1.00  0.00     0.210 C 
ENDBRANCH  11  21
TORSDOF 2
ENDMDL
MODEL 8
REMARK VINA RESULT:      -5.6     10.071     12.084
REMARK  2 active torsions:
REMARK  status: ('A' for Active; 'I' for Inactive)
REMARK    1  A    between atoms: C8_11  and  O1_12 
REMARK    2  A    between atoms: C10_14  and  O2_15 
ROOT
HETATM    1  C1  UNL     1      26.805   4.513  49.039  1.00  0.00     0.038 C 
HETATM    2  C2  UNL     1      26.472   5.977  48.945  1.00  0.00    -0.004 C 
HETATM    3  C3  UNL     1      27.494   6.793  48.747  1.00  0.00     0.029 C 
HETATM    4  N1  UNL     1      28.864   6.471  48.613  1.00  0.00    -0.343 N 
HETATM    5  C4  UNL     1      29.617   7.608  48.207  1.00  0.00     0.137 C 
HETATM    6  N2  UNL     1      30.878   7.973  47.916  1.00  0.00    -0.224 NA
HETATM    7  C5  UNL     1      31.299   8.239  46.669  1.00  0.00     0.234 C 
HETATM    8  N3  UNL     1      32.192   9.183  46.319  1.00  0.00    -0.254 NA
HETATM    9  C6  UNL     1      32.741   9.882  47.354  1.00  0.00     0.121 C 
HETATM   10  C7  UNL     1      32.014  11.066  47.530  1.00  0.00     0.059 C 
HETATM   11  C8  UNL     1      30.738  11.469  47.119  1.00  0.00     0.102 C 
HETATM   12  C10 UNL     1      29.535  11.072  47.705  1.00  0.00     0.102 C 
HETATM   13  C12 UNL     1      28.871   9.879  47.568  1.00  0.00     0.052 C 
HETATM   14  C13 UNL     1      28.696   8.633  48.093  1.00  0.00     0.015 C 
HETATM   15  C14 UNL     1      27.375   8.289  48.623  1.00  0.00     0.083 C 
HETATM   16  C15 UNL     1      27.094   8.892  49.977  1.00  0.00     0.039 C 
HETATM   17  I1  UNL     1      25.880   8.685  47.187  1.00  0.00    -0.067 I 
HETATM   18  H5  UNL     1      29.317   5.557  48.771  1.00  0.00     0.167 HD
ENDROOT
BRANCH  12  19
HETATM   19  O2  UNL     1      29.279  12.233  48.416  1.00  0.00    -0.353 OA
HETATM   20  C11 UNL     1      28.038  12.834  48.600  1.00  0.00     0.210 C 
ENDBRANCH  12  19
BRANCH  11  21
HETATM   21  O1  UNL     1      30.676  12.342  46.029  1.00  0.00    -0.353 OA
HETATM   22  C9  UNL     1      30.071  11.819  44.854  1.00  0.00     0.210 C 
ENDBRANCH  11  21
TORSDOF 2
ENDMDL
MODEL 9
REMARK VINA RESULT:      -5.3      3.240      6.410
REMARK  2 active torsions:
REMARK  status: ('A' for Active; 'I' for Inactive)
REMARK    1  A    between atoms: C8_11  and  O1_12 
REMARK    2  A    between atoms: C10_14  and  O2_15 
ROOT
HETATM    1  C1  UNL     1      17.651   3.994  49.517  1.00  0.00     0.038 C 
HETATM    2  C2  UNL     1      19.155   3.998  49.521  1.00  0.00    -0.004 C 
HETATM    3  C3  UNL     1      19.735   3.278  50.465  1.00  0.00     0.029 C 
HETATM    4  N1  UNL     1      19.127   2.502  51.478  1.00  0.00    -0.343 N 
HETATM    5  C4  UNL     1      20.093   1.716  52.168  1.00  0.00     0.137 C 
HETATM    6  N2  UNL     1      20.188   0.821  53.166  1.00  0.00    -0.224 NA
HETATM    7  C5  UNL     1      20.437  -0.483  52.965  1.00  0.00     0.234 C 
HETATM    8  N3  UNL     1      21.180  -1.279  53.755  1.00  0.00    -0.254 NA
HETATM    9  C6  UNL     1      21.669  -0.689  54.885  1.00  0.00     0.121 C 
HETATM   10  C7  UNL     1      22.970  -0.240  54.628  1.00  0.00     0.059 C 
HETATM   11  C8  UNL     1      23.673   0.012  53.444  1.00  0.00     0.102 C 
HETATM   12  C10 UNL     1      23.515   1.137  52.632  1.00  0.00     0.102 C 
HETATM   13  C12 UNL     1      22.510   1.410  51.738  1.00  0.00     0.052 C 
HETATM   14  C13 UNL     1      21.302   2.018  51.569  1.00  0.00     0.015 C 
HETATM   15  C14 UNL     1      21.225   3.149  50.642  1.00  0.00     0.083 C 
HETATM   16  C15 UNL     1      21.784   4.431  51.209  1.00  0.00     0.039 C 
HETATM   17  I1  UNL     1      22.039   2.622  48.767  1.00  0.00    -0.067 I 
HETATM   18  H5  UNL     1      18.127   2.464  51.731  1.00  0.00     0.167 HD
ENDROOT
BRANCH  12  19
HETATM   19  O2  UNL     1      24.653   1.818  53.029  1.00  0.00    -0.353 OA
HETATM   20  C11 UNL     1      24.732   3.161  53.385  1.00  0.00     0.210 C 
ENDBRANCH  12  19
BRANCH  11  21
HETATM   21  O1  UNL     1      24.609  -0.949  53.051  1.00  0.00    -0.353 OA
HETATM   22  C9  UNL     1      25.823  -0.965  53.790  1.00  0.00     0.210 C 
ENDBRANCH  11  21
TORSDOF 2
ENDMDL
