MODEL 1
REMARK VINA RESULT:      -9.4      0.000      0.000
REMARK  3 active torsions:
REMARK  status: ('A' for Active; 'I' for Inactive)
REMARK    1  A    between atoms: N1_1  and  C1_2 
REMARK    2  A    between atoms: N3_16  and  C12_17 
REMARK    3  A    between atoms: C15_20  and  C16_21 
ROOT
HETATM    1  C1  UNL     1      24.778   3.317  52.711  1.00  0.00     0.020 C 
HETATM    2  C2  UNL     1      24.796   2.416  53.668  1.00  0.00     0.026 C 
HETATM    3  C3  UNL     1      25.280   1.065  53.578  1.00  0.00     0.037 C 
HETATM    4  C4  UNL     1      25.620  -0.211  53.836  1.00  0.00     0.305 A 
HETATM    5 CL1  UNL     1      26.341  -1.668  53.183  1.00  0.00    -0.077 Cl
HETATM    6  N2  UNL     1      25.208  -0.837  55.109  1.00  0.00     0.131 N 
HETATM    7  C5  UNL     1      23.813  -1.360  55.215  1.00  0.00     0.240 A 
HETATM    8  O1  UNL     1      24.136  -0.792  54.145  1.00  0.00     0.000 OA
HETATM    9  C6  UNL     1      22.366  -1.657  54.757  1.00  0.00     0.074 C 
HETATM   10  C7  UNL     1      21.910  -0.483  53.981  1.00  0.00    -0.024 C 
HETATM   11  C8  UNL     1      21.435   0.558  53.351  1.00  0.00    -0.004 C 
HETATM   12  C9  UNL     1      21.635   1.506  52.284  1.00  0.00    -0.003 C 
HETATM   13  C10 UNL     1      22.466   1.850  51.342  1.00  0.00    -0.008 C 
HETATM   14  C11 UNL     1      22.977   2.619  50.217  1.00  0.00     0.147 C 
HETATM   15  N3  UNL     1      24.136   3.354  50.384  1.00  0.00    -0.379 N 
HETATM   16  C21 UNL     1      25.160   3.120  51.294  1.00  0.00     0.176 C 
HETATM   17  H5  UNL     1      25.601  -1.101  56.047  1.00  0.00     0.320 HD
ENDROOT
BRANCH  15  18
HETATM   18  C12 UNL     1      24.593   3.948  49.185  1.00  0.00     0.228 A 
HETATM   19  C13 UNL     1      23.989   5.284  48.914  1.00  0.00     0.023 A 
HETATM   20  C14 UNL     1      24.924   6.187  48.681  1.00  0.00     0.032 A 
HETATM   21  C15 UNL     1      26.172   5.450  48.797  1.00  0.00     0.065 A 
HETATM   22  N5  UNL     1      25.994   4.207  49.077  1.00  0.00    -0.260 NA
BRANCH  21  23
HETATM   23  C16 UNL     1      27.456   6.142  48.582  1.00  0.00     0.010 A 
HETATM   24  C17 UNL     1      28.632   5.506  48.250  1.00  0.00     0.017 A 
HETATM   25  C18 UNL     1      29.848   6.108  48.045  1.00  0.00     0.020 A 
HETATM   26  C19 UNL     1      29.856   7.503  48.195  1.00  0.00     0.116 A 
HETATM   27  N4  UNL     1      28.728   8.187  48.521  1.00  0.00    -0.272 NA
HETATM   28  C20 UNL     1      27.560   7.512  48.708  1.00  0.00     0.130 A 
ENDBRANCH  21  23
ENDBRANCH  15  18
BRANCH   1  29
HETATM   29  N1  UNL     1      24.226   4.430  53.368  1.00  0.00    -0.401 N 
HETATM   30  H1  UNL     1      24.820   5.224  53.677  1.00  0.00     0.156 HD
HETATM   31  H2  UNL     1      23.213   4.090  53.359  1.00  0.00     0.156 HD
ENDBRANCH   1  29
TORSDOF 3
ENDMDL
MODEL 2
REMARK VINA RESULT:      -9.0      3.647      7.668
REMARK  3 active torsions:
REMARK  status: ('A' for Active; 'I' for Inactive)
REMARK    1  A    between atoms: N1_1  and  C1_2 
REMARK    2  A    between atoms: N3_16  and  C12_17 
REMARK    3  A    between atoms: C15_20  and  C16_21 
ROOT
HETATM    1  C1  UNL     1      24.029   3.465  49.740  1.00  0.00     0.020 C 
HETATM    2  C2  UNL     1      24.174   4.429  48.858  1.00  0.00     0.026 C 
HETATM    3  C3  UNL     1      25.124   5.508  48.901  1.00  0.00     0.037 C 
HETATM    4  C4  UNL     1      25.843   6.614  48.637  1.00  0.00     0.305 A 
HETATM    5 CL1  UNL     1      27.165   7.632  49.173  1.00  0.00    -0.077 Cl
HETATM    6  N2  UNL     1      25.432   7.512  47.539  1.00  0.00     0.131 N 
HETATM    7  C5  UNL     1      24.334   8.489  47.806  1.00  0.00     0.240 A 
HETATM    8  O1  UNL     1      24.643   7.703  48.732  1.00  0.00     0.000 OA
HETATM    9  C6  UNL     1      23.224   9.196  48.619  1.00  0.00     0.074 C 
HETATM   10  C7  UNL     1      22.544   8.152  49.418  1.00  0.00    -0.024 C 
HETATM   11  C8  UNL     1      21.865   7.259  50.087  1.00  0.00    -0.004 C 
HETATM   12  C9  UNL     1      21.925   6.162  51.020  1.00  0.00    -0.003 C 
HETATM   13  C10 UNL     1      22.750   5.429  51.710  1.00  0.00    -0.008 C 
HETATM   14  C11 UNL     1      23.169   4.383  52.632  1.00  0.00     0.147 C 
HETATM   15  N3  UNL     1      23.919   3.328  52.147  1.00  0.00    -0.379 N 
HETATM   16  C21 UNL     1      24.743   3.322  51.029  1.00  0.00     0.176 C 
HETATM   17  H5  UNL     1      25.689   7.754  46.549  1.00  0.00     0.320 HD
ENDROOT
BRANCH  15  18
HETATM   18  C12 UNL     1      24.367   2.454  53.165  1.00  0.00     0.228 A 
HETATM   19  C13 UNL     1      23.849   1.063  53.026  1.00  0.00     0.023 A 
HETATM   20  C14 UNL     1      24.835   0.185  53.058  1.00  0.00     0.032 A 
HETATM   21  C15 UNL     1      26.031   0.996  53.221  1.00  0.00     0.065 A 
HETATM   22  N5  UNL     1      25.778   2.255  53.280  1.00  0.00    -0.260 NA
BRANCH  21  23
HETATM   23  C16 UNL     1      27.351   0.345  53.314  1.00  0.00     0.010 A 
HETATM   24  C17 UNL     1      27.577  -0.988  53.048  1.00  0.00     0.017 A 
HETATM   25  C18 UNL     1      28.785  -1.636  53.126  1.00  0.00     0.020 A 
HETATM   26  C19 UNL     1      29.867  -0.834  53.515  1.00  0.00     0.116 A 
HETATM   27  N4  UNL     1      29.708   0.487  53.791  1.00  0.00    -0.272 NA
HETATM   28  C20 UNL     1      28.474   1.053  53.690  1.00  0.00     0.130 A 
ENDBRANCH  21  23
ENDBRANCH  15  18
BRANCH   1  29
HETATM   29  N1  UNL     1      22.985   2.709  49.178  1.00  0.00    -0.401 N 
HETATM   30  H1  UNL     1      23.162   2.032  48.410  1.00  0.00     0.156 HD
HETATM   31  H2  UNL     1      22.203   3.107  49.787  1.00  0.00     0.156 HD
ENDBRANCH   1  29
TORSDOF 3
ENDMDL
MODEL 3
REMARK VINA RESULT:      -8.9      2.030      2.369
REMARK  3 active torsions:
REMARK  status: ('A' for Active; 'I' for Inactive)
REMARK    1  A    between atoms: N1_1  and  C1_2 
REMARK    2  A    between atoms: N3_16  and  C12_17 
REMARK    3  A    between atoms: C15_20  and  C16_21 
ROOT
HETATM    1  C1  UNL     1      24.588   3.313  52.513  1.00  0.00     0.020 C 
HETATM    2  C2  UNL     1      24.828   2.482  53.503  1.00  0.00     0.026 C 
HETATM    3  C3  UNL     1      25.392   1.163  53.410  1.00  0.00     0.037 C 
HETATM    4  C4  UNL     1      25.865  -0.068  53.680  1.00  0.00     0.305 A 
HETATM    5 CL1  UNL     1      26.581  -1.514  52.999  1.00  0.00    -0.077 Cl
HETATM    6  N2  UNL     1      25.711  -0.632  55.036  1.00  0.00     0.131 N 
HETATM    7  C5  UNL     1      24.395  -1.237  55.399  1.00  0.00     0.240 A 
HETATM    8  O1  UNL     1      24.498  -0.723  54.260  1.00  0.00     0.000 OA
HETATM    9  C6  UNL     1      22.920  -1.660  55.203  1.00  0.00     0.074 C 
HETATM   10  C7  UNL     1      22.258  -0.573  54.447  1.00  0.00    -0.024 C 
HETATM   11  C8  UNL     1      21.610   0.389  53.847  1.00  0.00    -0.004 C 
HETATM   12  C9  UNL     1      21.565   1.274  52.710  1.00  0.00    -0.003 C 
HETATM   13  C10 UNL     1      22.205   1.608  51.627  1.00  0.00    -0.008 C 
HETATM   14  C11 UNL     1      22.470   2.331  50.392  1.00  0.00     0.147 C 
HETATM   15  N3  UNL     1      23.582   3.151  50.325  1.00  0.00    -0.379 N 
HETATM   16  C21 UNL     1      24.753   3.046  51.066  1.00  0.00     0.176 C 
HETATM   17  H5  UNL     1      26.267  -0.806  55.911  1.00  0.00     0.320 HD
ENDROOT
BRANCH  15  18
HETATM   18  C12 UNL     1      23.794   3.691  49.036  1.00  0.00     0.228 A 
HETATM   19  C13 UNL     1      22.533   3.991  48.300  1.00  0.00     0.023 A 
HETATM   20  C14 UNL     1      22.527   5.235  47.857  1.00  0.00     0.032 A 
HETATM   21  C15 UNL     1      23.801   5.779  48.301  1.00  0.00     0.065 A 
HETATM   22  N5  UNL     1      24.508   4.927  48.955  1.00  0.00    -0.260 NA
BRANCH  21  23
HETATM   23  C16 UNL     1      24.160   7.170  47.969  1.00  0.00     0.010 A 
HETATM   24  C17 UNL     1      25.381   7.554  47.458  1.00  0.00     0.017 A 
HETATM   25  C18 UNL     1      25.760   8.833  47.140  1.00  0.00     0.020 A 
HETATM   26  C19 UNL     1      24.786   9.817  47.367  1.00  0.00     0.116 A 
HETATM   27  N4  UNL     1      23.563   9.502  47.869  1.00  0.00    -0.272 NA
HETATM   28  C20 UNL     1      23.267   8.204  48.160  1.00  0.00     0.130 A 
ENDBRANCH  21  23
ENDBRANCH  15  18
BRANCH   1  29
HETATM   29  N1  UNL     1      24.065   4.429  53.189  1.00  0.00    -0.401 N 
HETATM   30  H1  UNL     1      24.600   4.903  53.944  1.00  0.00     0.156 HD
HETATM   31  H2  UNL     1      23.139   4.473  52.658  1.00  0.00     0.156 HD
ENDBRANCH   1  29
TORSDOF 3
ENDMDL
MODEL 4
REMARK VINA RESULT:      -8.7      3.604      8.869
REMARK  3 active torsions:
REMARK  status: ('A' for Active; 'I' for Inactive)
REMARK    1  A    between atoms: N1_1  and  C1_2 
REMARK    2  A    between atoms: N3_16  and  C12_17 
REMARK    3  A    between atoms: C15_20  and  C16_21 
ROOT
HETATM    1  C1  UNL     1      23.843   5.307  50.906  1.00  0.00     0.020 C 
HETATM    2  C2  UNL     1      23.406   6.222  50.068  1.00  0.00     0.026 C 
HETATM    3  C3  UNL     1      22.913   6.011  48.734  1.00  0.00     0.037 C 
HETATM    4  C4  UNL     1      22.423   6.174  47.491  1.00  0.00     0.305 A 
HETATM    5 CL1  UNL     1      21.919   5.358  46.026  1.00  0.00    -0.077 Cl
HETATM    6  N2  UNL     1      22.278   7.534  46.932  1.00  0.00     0.131 N 
HETATM    7  C5  UNL     1      23.493   8.191  46.363  1.00  0.00     0.240 A 
HETATM    8  O1  UNL     1      23.638   7.055  46.874  1.00  0.00     0.000 OA
HETATM    9  C6  UNL     1      24.984   8.339  45.981  1.00  0.00     0.074 C 
HETATM   10  C7  UNL     1      25.772   7.747  47.084  1.00  0.00    -0.024 C 
HETATM   11  C8  UNL     1      26.515   7.304  48.064  1.00  0.00    -0.004 C 
HETATM   12  C9  UNL     1      26.795   6.201  48.949  1.00  0.00    -0.003 C 
HETATM   13  C10 UNL     1      26.410   4.999  49.265  1.00  0.00    -0.008 C 
HETATM   14  C11 UNL     1      26.414   3.731  49.980  1.00  0.00     0.147 C 
HETATM   15  N3  UNL     1      25.326   3.407  50.769  1.00  0.00    -0.379 N 
HETATM   16  C21 UNL     1      24.020   3.862  50.633  1.00  0.00     0.176 C 
HETATM   17  H5  UNL     1      21.542   8.259  46.744  1.00  0.00     0.320 HD
ENDROOT
BRANCH  15  18
HETATM   18  C12 UNL     1      25.399   2.100  51.303  1.00  0.00     0.228 A 
HETATM   19  C13 UNL     1      25.944   2.052  52.690  1.00  0.00     0.023 A 
HETATM   20  C14 UNL     1      25.136   1.385  53.493  1.00  0.00     0.032 A 
HETATM   21  C15 UNL     1      24.034   0.978  52.636  1.00  0.00     0.065 A 
HETATM   22  N5  UNL     1      24.174   1.373  51.420  1.00  0.00    -0.260 NA
BRANCH  21  23
HETATM   23  C16 UNL     1      22.924   0.184  53.195  1.00  0.00     0.010 A 
HETATM   24  C17 UNL     1      23.073  -0.763  54.185  1.00  0.00     0.017 A 
HETATM   25  C18 UNL     1      22.072  -1.527  54.731  1.00  0.00     0.020 A 
HETATM   26  C19 UNL     1      20.791  -1.294  54.208  1.00  0.00     0.116 A 
HETATM   27  N4  UNL     1      20.581  -0.373  53.232  1.00  0.00    -0.272 NA
HETATM   28  C20 UNL     1      21.630   0.344  52.743  1.00  0.00     0.130 A 
ENDBRANCH  21  23
ENDBRANCH  15  18
BRANCH   1  29
HETATM   29  N1  UNL     1      24.169   6.077  52.036  1.00  0.00    -0.401 N 
HETATM   30  H1  UNL     1      24.624   7.006  51.942  1.00  0.00     0.156 HD
HETATM   31  H2  UNL     1      23.804   5.387  52.765  1.00  0.00     0.156 HD
ENDBRANCH   1  29
TORSDOF 3
ENDMDL
MODEL 5
REMARK VINA RESULT:      -8.6      5.904      9.780
REMARK  3 active torsions:
REMARK  status: ('A' for Active; 'I' for Inactive)
REMARK    1  A    between atoms: N1_1  and  C1_2 
REMARK    2  A    between atoms: N3_16  and  C12_17 
REMARK    3  A    between atoms: C15_20  and  C16_21 
ROOT
HETATM    1  C1  UNL     1      18.811   1.235  50.695  1.00  0.00     0.020 C 
HETATM    2  C2  UNL     1      19.762   0.411  51.078  1.00  0.00     0.026 C 
HETATM    3  C3  UNL     1      20.264   0.227  52.413  1.00  0.00     0.037 C 
HETATM    4  C4  UNL     1      20.956  -0.177  53.494  1.00  0.00     0.305 A 
HETATM    5 CL1  UNL     1      21.139  -0.009  55.228  1.00  0.00    -0.077 Cl
HETATM    6  N2  UNL     1      22.142  -1.040  53.326  1.00  0.00     0.131 N 
HETATM    7  C5  UNL     1      23.433  -0.392  52.946  1.00  0.00     0.240 A 
HETATM    8  O1  UNL     1      22.424   0.346  53.042  1.00  0.00     0.000 OA
HETATM    9  C6  UNL     1      24.385   0.762  52.555  1.00  0.00     0.074 C 
HETATM   10  C7  UNL     1      23.623   1.666  51.665  1.00  0.00    -0.024 C 
HETATM   11  C8  UNL     1      23.018   2.456  50.818  1.00  0.00    -0.004 C 
HETATM   12  C9  UNL     1      21.850   3.257  50.554  1.00  0.00    -0.003 C 
HETATM   13  C10 UNL     1      20.702   3.617  51.052  1.00  0.00    -0.008 C 
HETATM   14  C11 UNL     1      19.419   4.302  51.113  1.00  0.00     0.147 C 
HETATM   15  N3  UNL     1      18.260   3.549  51.110  1.00  0.00    -0.379 N 
HETATM   16  C21 UNL     1      18.108   2.234  51.532  1.00  0.00     0.176 C 
HETATM   17  H5  UNL     1      22.435  -2.044  53.424  1.00  0.00     0.320 HD
ENDROOT
BRANCH  15  18
HETATM   18  C12 UNL     1      17.094   4.326  51.302  1.00  0.00     0.228 A 
HETATM   19  C13 UNL     1      16.095   4.182  50.204  1.00  0.00     0.023 A 
HETATM   20  C14 UNL     1      14.904   3.875  50.685  1.00  0.00     0.032 A 
HETATM   21  C15 UNL     1      15.105   3.811  52.124  1.00  0.00     0.065 A 
HETATM   22  N5  UNL     1      16.318   4.060  52.471  1.00  0.00    -0.260 NA
BRANCH  21  23
HETATM   23  C16 UNL     1      13.967   3.502  53.010  1.00  0.00     0.010 A 
HETATM   24  C17 UNL     1      13.247   4.450  53.704  1.00  0.00     0.017 A 
HETATM   25  C18 UNL     1      12.187   4.209  54.541  1.00  0.00     0.020 A 
HETATM   26  C19 UNL     1      11.830   2.859  54.677  1.00  0.00     0.116 A 
HETATM   27  N4  UNL     1      12.501   1.878  54.018  1.00  0.00    -0.272 NA
HETATM   28  C20 UNL     1      13.545   2.204  53.206  1.00  0.00     0.130 A 
ENDBRANCH  21  23
ENDBRANCH  15  18
BRANCH   1  29
HETATM   29  N1  UNL     1      18.736   0.974  49.316  1.00  0.00    -0.401 N 
HETATM   30  H1  UNL     1      18.733   0.002  48.950  1.00  0.00     0.156 HD
HETATM   31  H2  UNL     1      18.700   1.994  48.999  1.00  0.00     0.156 HD
ENDBRANCH   1  29
TORSDOF 3
ENDMDL
MODEL 6
REMARK VINA RESULT:      -8.5      4.471      7.385
REMARK  3 active torsions:
REMARK  status: ('A' for Active; 'I' for Inactive)
REMARK    1  A    between atoms: N1_1  and  C1_2 
REMARK    2  A    between atoms: N3_16  and  C12_17 
REMARK    3  A    between atoms: C15_20  and  C16_21 
ROOT
HETATM    1  C1  UNL     1      21.638   4.333  51.808  1.00  0.00     0.020 C 
HETATM    2  C2  UNL     1      20.703   4.643  50.937  1.00  0.00     0.026 C 
HETATM    3  C3  UNL     1      19.679   3.778  50.420  1.00  0.00     0.037 C 
HETATM    4  C4  UNL     1      18.636   3.262  49.743  1.00  0.00     0.305 A 
HETATM    5 CL1  UNL     1      17.645   1.839  49.495  1.00  0.00    -0.077 Cl
HETATM    6  N2  UNL     1      18.008   4.042  48.657  1.00  0.00     0.131 N 
HETATM    7  C5  UNL     1      18.668   4.036  47.318  1.00  0.00     0.240 A 
HETATM    8  O1  UNL     1      19.235   3.407  48.242  1.00  0.00     0.000 OA
HETATM    9  C6  UNL     1      19.745   3.689  46.263  1.00  0.00     0.074 C 
HETATM   10  C7  UNL     1      21.054   3.734  46.952  1.00  0.00    -0.024 C 
HETATM   11  C8  UNL     1      22.237   3.832  47.496  1.00  0.00    -0.004 C 
HETATM   12  C9  UNL     1      23.092   3.425  48.583  1.00  0.00    -0.003 C 
HETATM   13  C10 UNL     1      23.120   2.715  49.673  1.00  0.00    -0.008 C 
HETATM   14  C11 UNL     1      23.686   2.122  50.876  1.00  0.00     0.147 C 
HETATM   15  N3  UNL     1      23.181   2.501  52.106  1.00  0.00    -0.379 N 
HETATM   16  C21 UNL     1      21.912   2.995  52.382  1.00  0.00     0.176 C 
HETATM   17  H5  UNL     1      17.157   4.628  48.466  1.00  0.00     0.320 HD
ENDROOT
BRANCH  15  18
HETATM   18  C12 UNL     1      23.726   1.759  53.180  1.00  0.00     0.228 A 
HETATM   19  C13 UNL     1      23.417   0.302  53.116  1.00  0.00     0.023 A 
HETATM   20  C14 UNL     1      24.517  -0.420  53.216  1.00  0.00     0.032 A 
HETATM   21  C15 UNL     1      25.581   0.563  53.348  1.00  0.00     0.065 A 
HETATM   22  N5  UNL     1      25.147   1.774  53.329  1.00  0.00    -0.260 NA
BRANCH  21  23
HETATM   23  C16 UNL     1      26.977   0.116  53.501  1.00  0.00     0.010 A 
HETATM   24  C17 UNL     1      27.472  -1.065  52.992  1.00  0.00     0.017 A 
HETATM   25  C18 UNL     1      28.760  -1.523  53.112  1.00  0.00     0.020 A 
HETATM   26  C19 UNL     1      29.627  -0.682  53.826  1.00  0.00     0.116 A 
HETATM   27  N4  UNL     1      29.199   0.496  54.352  1.00  0.00    -0.272 NA
HETATM   28  C20 UNL     1      27.901   0.876  54.188  1.00  0.00     0.130 A 
ENDBRANCH  21  23
ENDBRANCH  15  18
BRANCH   1  29
HETATM   29  N1  UNL     1      22.324   5.552  51.948  1.00  0.00    -0.401 N 
HETATM   30  H1  UNL     1      21.931   6.330  52.513  1.00  0.00     0.156 HD
HETATM   31  H2  UNL     1      23.168   5.289  51.349  1.00  0.00     0.156 HD
ENDBRANCH   1  29
TORSDOF 3
ENDMDL
MODEL 7
REMARK VINA RESULT:      -8.5      5.551      9.672
REMARK  3 active torsions:
REMARK  status: ('A' for Active; 'I' for Inactive)
REMARK    1  A    between atoms: N1_1  and  C1_2 
REMARK    2  A    between atoms: N3_16  and  C12_17 
REMARK    3  A    between atoms: C15_20  and  C16_21 
ROOT
HETATM    1  C1  UNL     1      20.213   1.034  49.897  1.00  0.00     0.020 C 
HETATM    2  C2  UNL     1      21.444   0.871  50.329  1.00  0.00     0.026 C 
HETATM    3  C3  UNL     1      21.853   0.400  51.624  1.00  0.00     0.037 C 
HETATM    4  C4  UNL     1      22.565   0.021  52.701  1.00  0.00     0.305 A 
HETATM    5 CL1  UNL     1      22.477  -0.602  54.336  1.00  0.00    -0.077 Cl
HETATM    6  N2  UNL     1      24.026   0.237  52.729  1.00  0.00     0.131 N 
HETATM    7  C5  UNL     1      24.526   1.599  53.082  1.00  0.00     0.240 A 
HETATM    8  O1  UNL     1      23.285   1.440  53.020  1.00  0.00     0.000 OA
HETATM    9  C6  UNL     1      24.434   3.097  53.458  1.00  0.00     0.074 C 
HETATM   10  C7  UNL     1      23.313   3.667  52.678  1.00  0.00    -0.024 C 
HETATM   11  C8  UNL     1      22.381   4.235  51.959  1.00  0.00    -0.004 C 
HETATM   12  C9  UNL     1      21.002   4.198  51.542  1.00  0.00    -0.003 C 
HETATM   13  C10 UNL     1      19.899   3.517  51.660  1.00  0.00    -0.008 C 
HETATM   14  C11 UNL     1      18.499   3.181  51.447  1.00  0.00     0.147 C 
HETATM   15  N3  UNL     1      18.189   2.013  50.775  1.00  0.00    -0.379 N 
HETATM   16  C21 UNL     1      18.966   0.865  50.676  1.00  0.00     0.176 C 
HETATM   17  H5  UNL     1      24.927  -0.290  52.610  1.00  0.00     0.320 HD
ENDROOT
BRANCH  15  18
HETATM   18  C12 UNL     1      16.801   1.740  50.749  1.00  0.00     0.228 A 
HETATM   19  C13 UNL     1      16.424   0.499  51.483  1.00  0.00     0.023 A 
HETATM   20  C14 UNL     1      15.465   0.739  52.359  1.00  0.00     0.032 A 
HETATM   21  C15 UNL     1      15.194   2.160  52.212  1.00  0.00     0.065 A 
HETATM   22  N5  UNL     1      15.933   2.721  51.321  1.00  0.00    -0.260 NA
BRANCH  21  23
HETATM   23  C16 UNL     1      14.149   2.796  53.034  1.00  0.00     0.010 A 
HETATM   24  C17 UNL     1      13.001   2.160  53.454  1.00  0.00     0.017 A 
HETATM   25  C18 UNL     1      12.001   2.712  54.216  1.00  0.00     0.020 A 
HETATM   26  C19 UNL     1      12.202   4.051  54.582  1.00  0.00     0.116 A 
HETATM   27  N4  UNL     1      13.313   4.733  54.200  1.00  0.00    -0.272 NA
HETATM   28  C20 UNL     1      14.259   4.110  53.442  1.00  0.00     0.130 A 
ENDBRANCH  21  23
ENDBRANCH  15  18
BRANCH   1  29
HETATM   29  N1  UNL     1      20.423   1.488  48.583  1.00  0.00    -0.401 N 
HETATM   30  H1  UNL     1      20.867   2.408  48.394  1.00  0.00     0.156 HD
HETATM   31  H2  UNL     1      20.005   0.637  48.090  1.00  0.00     0.156 HD
ENDBRANCH   1  29
TORSDOF 3
ENDMDL
MODEL 8
REMARK VINA RESULT:      -8.4      4.060      9.441
REMARK  3 active torsions:
REMARK  status: ('A' for Active; 'I' for Inactive)
REMARK    1  A    between atoms: N1_1  and  C1_2 
REMARK    2  A    between atoms: N3_16  and  C12_17 
REMARK    3  A    between atoms: C15_20  and  C16_21 
ROOT
HETATM    1  C1  UNL     1      26.201   8.028  49.515  1.00  0.00     0.020 C 
HETATM    2  C2  UNL     1      26.861   8.778  48.660  1.00  0.00     0.026 C 
HETATM    3  C3  UNL     1      26.665   8.847  47.237  1.00  0.00     0.037 C 
HETATM    4  C4  UNL     1      26.760   9.143  45.928  1.00  0.00     0.305 A 
HETATM    5 CL1  UNL     1      26.090   8.851  44.336  1.00  0.00    -0.077 Cl
HETATM    6  N2  UNL     1      27.891   9.958  45.439  1.00  0.00     0.131 N 
HETATM    7  C5  UNL     1      29.200   9.275  45.211  1.00  0.00     0.240 A 
HETATM    8  O1  UNL     1      28.261   8.582  45.668  1.00  0.00     0.000 OA
HETATM    9  C6  UNL     1      30.212   8.106  45.196  1.00  0.00     0.074 C 
HETATM   10  C7  UNL     1      29.959   7.302  46.412  1.00  0.00    -0.024 C 
HETATM   11  C8  UNL     1      29.824   6.601  47.507  1.00  0.00    -0.004 C 
HETATM   12  C9  UNL     1      28.916   5.876  48.360  1.00  0.00    -0.003 C 
HETATM   13  C10 UNL     1      27.667   5.540  48.499  1.00  0.00    -0.008 C 
HETATM   14  C11 UNL     1      26.504   4.914  49.113  1.00  0.00     0.147 C 
HETATM   15  N3  UNL     1      25.495   5.721  49.605  1.00  0.00    -0.379 N 
HETATM   16  C21 UNL     1      25.173   7.010  49.199  1.00  0.00     0.176 C 
HETATM   17  H5  UNL     1      28.112  10.938  45.132  1.00  0.00     0.320 HD
ENDROOT
BRANCH  15  18
HETATM   18  C12 UNL     1      24.372   4.990  50.056  1.00  0.00     0.228 A 
HETATM   19  C13 UNL     1      23.813   4.064  49.029  1.00  0.00     0.023 A 
HETATM   20  C14 UNL     1      23.696   2.840  49.510  1.00  0.00     0.032 A 
HETATM   21  C15 UNL     1      24.184   2.943  50.876  1.00  0.00     0.065 A 
HETATM   22  N5  UNL     1      24.560   4.134  51.184  1.00  0.00    -0.260 NA
BRANCH  21  23
HETATM   23  C16 UNL     1      24.189   1.752  51.745  1.00  0.00     0.010 A 
HETATM   24  C17 UNL     1      23.053   1.135  52.220  1.00  0.00     0.017 A 
HETATM   25  C18 UNL     1      23.010   0.029  53.032  1.00  0.00     0.020 A 
HETATM   26  C19 UNL     1      24.261  -0.495  53.391  1.00  0.00     0.116 A 
HETATM   27  N4  UNL     1      25.418   0.069  52.954  1.00  0.00    -0.272 NA
HETATM   28  C20 UNL     1      25.372   1.167  52.150  1.00  0.00     0.130 A 
ENDBRANCH  21  23
ENDBRANCH  15  18
BRANCH   1  29
HETATM   29  N1  UNL     1      26.797   8.385  50.737  1.00  0.00    -0.401 N 
HETATM   30  H1  UNL     1      27.314   9.280  50.845  1.00  0.00     0.156 HD
HETATM   31  H2  UNL     1      26.507   7.510  51.277  1.00  0.00     0.156 HD
ENDBRANCH   1  29
TORSDOF 3
ENDMDL
MODEL 9
REMARK VINA RESULT:      -8.3      8.755     10.670
REMARK  3 active torsions:
REMARK  status: ('A' for Active; 'I' for Inactive)
REMARK    1  A    between atoms: N1_1  and  C1_2 
REMARK    2  A    between atoms: N3_16  and  C12_17 
REMARK    3  A    between atoms: C15_20  and  C16_21 
ROOT
HETATM    1  C1  UNL     1      31.076   6.885  49.104  1.00  0.00     0.020 C 
HETATM    2  C2  UNL     1      31.858   5.837  48.964  1.00  0.00     0.026 C 
HETATM    3  C3  UNL     1      33.293   5.809  49.051  1.00  0.00     0.037 C 
HETATM    4  C4  UNL     1      34.585   5.433  49.052  1.00  0.00     0.305 A 
HETATM    5 CL1  UNL     1      36.238   5.968  49.285  1.00  0.00    -0.077 Cl
HETATM    6  N2  UNL     1      34.955   4.075  48.606  1.00  0.00     0.131 N 
HETATM    7  C5  UNL     1      35.054   3.822  47.137  1.00  0.00     0.240 A 
HETATM    8  O1  UNL     1      34.696   4.967  47.501  1.00  0.00     0.000 OA
HETATM    9  C6  UNL     1      34.972   4.149  45.627  1.00  0.00     0.074 C 
HETATM   10  C7  UNL     1      33.790   5.019  45.439  1.00  0.00    -0.024 C 
HETATM   11  C8  UNL     1      32.717   5.728  45.209  1.00  0.00    -0.004 C 
HETATM   12  C9  UNL     1      31.962   6.905  45.560  1.00  0.00    -0.003 C 
HETATM   13  C10 UNL     1      31.950   7.930  46.362  1.00  0.00    -0.008 C 
HETATM   14  C11 UNL     1      31.457   9.164  46.957  1.00  0.00     0.147 C 
HETATM   15  N3  UNL     1      31.066   9.155  48.283  1.00  0.00    -0.379 N 
HETATM   16  C21 UNL     1      31.497   8.293  49.284  1.00  0.00     0.176 C 
HETATM   17  H5  UNL     1      35.236   3.141  48.996  1.00  0.00     0.320 HD
ENDROOT
BRANCH  15  18
HETATM   18  C12 UNL     1      30.733  10.440  48.770  1.00  0.00     0.228 A 
HETATM   19  C13 UNL     1      31.219  11.551  47.903  1.00  0.00     0.023 A 
HETATM   20  C14 UNL     1      30.236  12.379  47.598  1.00  0.00     0.032 A 
HETATM   21  C15 UNL     1      29.074  11.817  48.269  1.00  0.00     0.065 A 
HETATM   22  N5  UNL     1      29.344  10.742  48.920  1.00  0.00    -0.260 NA
BRANCH  21  23
HETATM   23  C16 UNL     1      27.769  12.495  48.165  1.00  0.00     0.010 A 
HETATM   24  C17 UNL     1      27.613  13.860  48.049  1.00  0.00     0.017 A 
HETATM   25  C18 UNL     1      26.421  14.533  47.954  1.00  0.00     0.020 A 
HETATM   26  C19 UNL     1      25.275  13.724  47.980  1.00  0.00     0.116 A 
HETATM   27  N4  UNL     1      25.364  12.373  48.092  1.00  0.00    -0.272 NA
HETATM   28  C20 UNL     1      26.588  11.782  48.183  1.00  0.00     0.130 A 
ENDBRANCH  21  23
ENDBRANCH  15  18
BRANCH   1  29
HETATM   29  N1  UNL     1      29.799   6.320  48.940  1.00  0.00    -0.401 N 
HETATM   30  H1  UNL     1      29.465   5.554  49.556  1.00  0.00     0.156 HD
HETATM   31  H2  UNL     1      29.501   6.927  48.112  1.00  0.00     0.156 HD
ENDBRANCH   1  29
TORSDOF 3
ENDMDL
