MODEL 1
REMARK VINA RESULT:      -8.5      0.000      0.000
REMARK  2 active torsions:
REMARK  status: ('A' for Active; 'I' for Inactive)
REMARK    1  A    between atoms: C4_5  and  C5_6 
REMARK    2  A    between atoms: C7_9  and  N1_10 
ROOT
HETATM    1  C5  UNL     1      21.225  -0.556  53.435  1.00  0.00     0.076 A 
HETATM    2  C6  UNL     1      21.365  -1.274  54.641  1.00  0.00     0.086 A 
HETATM    3  S1  UNL     1      23.086  -1.109  54.947  1.00  0.00    -0.060 SA
HETATM    4  C7  UNL     1      23.402  -0.078  53.386  1.00  0.00     0.189 A 
HETATM    5  N3  UNL     1      22.312  -0.013  52.919  1.00  0.00    -0.222 NA
ENDROOT
BRANCH   4   6
HETATM    6  N1  UNL     1      24.756   0.317  53.199  1.00  0.00    -0.246 N 
HETATM    7  C8  UNL     1      25.802  -0.638  52.883  1.00  0.00     0.162 C 
HETATM    8  C9  UNL     1      26.970  -0.607  53.799  1.00  0.00     0.032 C 
HETATM    9  C10 UNL     1      28.174  -1.152  53.126  1.00  0.00    -0.024 C 
HETATM   10  C13 UNL     1      27.424   0.717  54.279  1.00  0.00     0.003 C 
HETATM   11  C11 UNL     1      29.291  -0.538  53.566  1.00  0.00    -0.030 C 
HETATM   12  C12 UNL     1      28.904   0.494  54.598  1.00  0.00     0.032 C 
HETATM   13  C14 UNL     1      27.355   1.849  53.318  1.00  0.00     0.054 C 
HETATM   14  C15 UNL     1      25.960   2.414  53.425  1.00  0.00     0.112 C 
HETATM   15  N2  UNL     1      24.861   1.699  53.366  1.00  0.00    -0.187 NA
ENDBRANCH   4   6
BRANCH   1  16
HETATM   16  C4  UNL     1      19.923  -0.425  52.790  1.00  0.00    -0.007 A 
HETATM   17  C3  UNL     1      18.753  -0.980  53.250  1.00  0.00     0.015 A 
HETATM   18  C2  UNL     1      17.524  -0.864  52.652  1.00  0.00     0.024 A 
HETATM   19  C1  UNL     1      17.424  -0.134  51.489  1.00  0.00     0.034 A 
HETATM   20 CL1  UNL     1      15.890   0.055  50.677  1.00  0.00    -0.084 Cl
HETATM   21  C17 UNL     1      18.546   0.455  50.963  1.00  0.00     0.024 A 
HETATM   22  C16 UNL     1      19.736   0.287  51.626  1.00  0.00     0.015 A 
ENDBRANCH   1  16
TORSDOF 2
ENDMDL
MODEL 2
REMARK VINA RESULT:      -8.3      5.364      8.408
REMARK  2 active torsions:
REMARK  status: ('A' for Active; 'I' for Inactive)
REMARK    1  A    between atoms: C4_5  and  C5_6 
REMARK    2  A    between atoms: C7_9  and  N1_10 
ROOT
HETATM    1  C5  UNL     1      24.788   4.544  49.541  1.00  0.00     0.076 A 
HETATM    2  C6  UNL     1      23.515   5.127  49.358  1.00  0.00     0.086 A 
HETATM    3  S1  UNL     1      22.479   3.955  50.154  1.00  0.00    -0.060 SA
HETATM    4  C7  UNL     1      23.913   2.811  50.638  1.00  0.00     0.189 A 
HETATM    5  N3  UNL     1      24.845   3.396  50.191  1.00  0.00    -0.222 NA
ENDROOT
BRANCH   4   6
HETATM    6  N1  UNL     1      23.527   1.644  51.353  1.00  0.00    -0.246 N 
HETATM    7  C8  UNL     1      22.172   1.128  51.315  1.00  0.00     0.162 C 
HETATM    8  C9  UNL     1      21.542   0.932  52.646  1.00  0.00     0.032 C 
HETATM    9  C10 UNL     1      20.460  -0.078  52.566  1.00  0.00    -0.024 C 
HETATM   10  C13 UNL     1      22.401   0.421  53.738  1.00  0.00     0.003 C 
HETATM   11  C11 UNL     1      20.365  -0.773  53.718  1.00  0.00    -0.030 C 
HETATM   12  C12 UNL     1      21.409  -0.262  54.681  1.00  0.00     0.032 C 
HETATM   13  C14 UNL     1      23.425  -0.595  53.377  1.00  0.00     0.054 C 
HETATM   14  C15 UNL     1      24.645   0.172  52.929  1.00  0.00     0.112 C 
HETATM   15  N2  UNL     1      24.632   1.139  52.042  1.00  0.00    -0.187 NA
ENDBRANCH   4   6
BRANCH   1  16
HETATM   16  C4  UNL     1      25.988   5.193  49.024  1.00  0.00    -0.007 A 
HETATM   17  C3  UNL     1      26.055   6.490  48.573  1.00  0.00     0.015 A 
HETATM   18  C2  UNL     1      27.177   7.110  48.086  1.00  0.00     0.024 A 
HETATM   19  C1  UNL     1      28.352   6.395  48.031  1.00  0.00     0.034 A 
HETATM   20 CL1  UNL     1      29.818   7.124  47.422  1.00  0.00    -0.084 Cl
HETATM   21  C17 UNL     1      28.372   5.093  48.463  1.00  0.00     0.024 A 
HETATM   22  C16 UNL     1      27.203   4.551  48.935  1.00  0.00     0.015 A 
ENDBRANCH   1  16
TORSDOF 2
ENDMDL
MODEL 3
REMARK VINA RESULT:      -8.2      3.367      8.154
REMARK  2 active torsions:
REMARK  status: ('A' for Active; 'I' for Inactive)
REMARK    1  A    between atoms: C4_5  and  C5_6 
REMARK    2  A    between atoms: C7_9  and  N1_10 
ROOT
HETATM    1  C5  UNL     1      24.127  -0.556  54.127  1.00  0.00     0.076 A 
HETATM    2  C6  UNL     1      23.549  -1.321  55.162  1.00  0.00     0.086 A 
HETATM    3  S1  UNL     1      21.839  -1.014  54.907  1.00  0.00    -0.060 SA
HETATM    4  C7  UNL     1      22.126   0.123  53.416  1.00  0.00     0.189 A 
HETATM    5  N3  UNL     1      23.311   0.112  53.333  1.00  0.00    -0.222 NA
ENDROOT
BRANCH   4   6
HETATM    6  N1  UNL     1      20.940   0.650  52.833  1.00  0.00    -0.246 N 
HETATM    7  C8  UNL     1      19.634   0.072  53.083  1.00  0.00     0.162 C 
HETATM    8  C9  UNL     1      18.871  -0.295  51.863  1.00  0.00     0.032 C 
HETATM    9  C10 UNL     1      17.416  -0.328  52.149  1.00  0.00    -0.024 C 
HETATM   10  C13 UNL     1      18.965   0.618  50.702  1.00  0.00     0.003 C 
HETATM   11  C11 UNL     1      16.705   0.045  51.066  1.00  0.00    -0.030 C 
HETATM   12  C12 UNL     1      17.660   0.365  49.943  1.00  0.00     0.032 C 
HETATM   13  C14 UNL     1      19.024   2.076  50.986  1.00  0.00     0.054 C 
HETATM   14  C15 UNL     1      20.478   2.406  51.220  1.00  0.00     0.112 C 
HETATM   15  N2  UNL     1      21.267   1.750  52.038  1.00  0.00    -0.187 NA
ENDBRANCH   4   6
BRANCH   1  16
HETATM   16  C4  UNL     1      25.575  -0.512  53.950  1.00  0.00    -0.007 A 
HETATM   17  C3  UNL     1      26.264  -1.093  52.913  1.00  0.00     0.015 A 
HETATM   18  C2  UNL     1      27.624  -1.058  52.738  1.00  0.00     0.024 A 
HETATM   19  C1  UNL     1      28.390  -0.390  53.667  1.00  0.00     0.034 A 
HETATM   20 CL1  UNL     1      30.127  -0.306  53.503  1.00  0.00    -0.084 Cl
HETATM   21  C17 UNL     1      27.780   0.218  54.734  1.00  0.00     0.024 A 
HETATM   22  C16 UNL     1      26.413   0.133  54.832  1.00  0.00     0.015 A 
ENDBRANCH   1  16
TORSDOF 2
ENDMDL
MODEL 4
REMARK VINA RESULT:      -8.1      5.607      8.389
REMARK  2 active torsions:
REMARK  status: ('A' for Active; 'I' for Inactive)
REMARK    1  A    between atoms: C4_5  and  C5_6 
REMARK    2  A    between atoms: C7_9  and  N1_10 
ROOT
HETATM    1  C5  UNL     1      25.864   4.806  49.710  1.00  0.00     0.076 A 
HETATM    2  C6  UNL     1      24.593   5.343  50.002  1.00  0.00     0.086 A 
HETATM    3  S1  UNL     1      23.860   4.030  50.908  1.00  0.00    -0.060 SA
HETATM    4  C7  UNL     1      25.383   2.907  50.775  1.00  0.00     0.189 A 
HETATM    5  N3  UNL     1      26.128   3.589  50.150  1.00  0.00    -0.222 NA
ENDROOT
BRANCH   4   6
HETATM    6  N1  UNL     1      25.246   1.640  51.407  1.00  0.00    -0.246 N 
HETATM    7  C8  UNL     1      23.956   1.117  51.815  1.00  0.00     0.162 C 
HETATM    8  C9  UNL     1      23.869   0.717  53.242  1.00  0.00     0.032 C 
HETATM    9  C10 UNL     1      22.793  -0.286  53.437  1.00  0.00    -0.024 C 
HETATM   10  C13 UNL     1      25.053   0.060  53.839  1.00  0.00     0.003 C 
HETATM   11  C11 UNL     1      23.111  -1.146  54.425  1.00  0.00    -0.030 C 
HETATM   12  C12 UNL     1      24.463  -0.771  54.981  1.00  0.00     0.032 C 
HETATM   13  C14 UNL     1      25.818  -0.877  52.974  1.00  0.00     0.054 C 
HETATM   14  C15 UNL     1      26.811  -0.035  52.209  1.00  0.00     0.112 C 
HETATM   15  N2  UNL     1      26.505   1.054  51.543  1.00  0.00    -0.187 NA
ENDBRANCH   4   6
BRANCH   1  16
HETATM   16  C4  UNL     1      26.842   5.574  48.947  1.00  0.00    -0.007 A 
HETATM   17  C3  UNL     1      26.634   6.831  48.431  1.00  0.00     0.015 A 
HETATM   18  C2  UNL     1      27.545   7.562  47.713  1.00  0.00     0.024 A 
HETATM   19  C1  UNL     1      28.785   7.013  47.472  1.00  0.00     0.034 A 
HETATM   20 CL1  UNL     1      29.993   7.890  46.565  1.00  0.00    -0.084 Cl
HETATM   21  C17 UNL     1      29.075   5.762  47.952  1.00  0.00     0.024 A 
HETATM   22  C16 UNL     1      28.103   5.101  48.661  1.00  0.00     0.015 A 
ENDBRANCH   1  16
TORSDOF 2
ENDMDL
MODEL 5
REMARK VINA RESULT:      -8.1      8.425     10.325
REMARK  2 active torsions:
REMARK  status: ('A' for Active; 'I' for Inactive)
REMARK    1  A    between atoms: C4_5  and  C5_6 
REMARK    2  A    between atoms: C7_9  and  N1_10 
ROOT
HETATM    1  C5  UNL     1      28.160   5.991  48.414  1.00  0.00     0.076 A 
HETATM    2  C6  UNL     1      28.056   7.386  48.228  1.00  0.00     0.086 A 
HETATM    3  S1  UNL     1      29.702   7.801  47.781  1.00  0.00    -0.060 SA
HETATM    4  C7  UNL     1      30.330   6.015  47.905  1.00  0.00     0.189 A 
HETATM    5  N3  UNL     1      29.343   5.437  48.223  1.00  0.00    -0.222 NA
ENDROOT
BRANCH   4   6
HETATM    6  N1  UNL     1      31.712   5.848  47.608  1.00  0.00    -0.246 N 
HETATM    7  C8  UNL     1      32.185   5.570  46.266  1.00  0.00     0.162 C 
HETATM    8  C9  UNL     1      33.043   4.364  46.146  1.00  0.00     0.032 C 
HETATM    9  C10 UNL     1      33.913   4.461  44.949  1.00  0.00    -0.024 C 
HETATM   10  C13 UNL     1      34.004   4.100  47.240  1.00  0.00     0.003 C 
HETATM   11  C11 UNL     1      35.096   3.849  45.163  1.00  0.00    -0.030 C 
HETATM   12  C12 UNL     1      35.103   3.280  46.561  1.00  0.00     0.032 C 
HETATM   13  C14 UNL     1      34.666   5.278  47.861  1.00  0.00     0.054 C 
HETATM   14  C15 UNL     1      33.737   5.765  48.947  1.00  0.00     0.112 C 
HETATM   15  N2  UNL     1      32.456   5.997  48.780  1.00  0.00    -0.187 NA
ENDBRANCH   4   6
BRANCH   1  16
HETATM   16  C4  UNL     1      26.997   5.201  48.805  1.00  0.00    -0.007 A 
HETATM   17  C3  UNL     1      27.036   3.902  49.252  1.00  0.00     0.015 A 
HETATM   18  C2  UNL     1      25.950   3.150  49.621  1.00  0.00     0.024 A 
HETATM   19  C1  UNL     1      24.699   3.721  49.546  1.00  0.00     0.034 A 
HETATM   20 CL1  UNL     1      23.274   2.820  50.002  1.00  0.00    -0.084 Cl
HETATM   21  C17 UNL     1      24.572   5.015  49.110  1.00  0.00     0.024 A 
HETATM   22  C16 UNL     1      25.712   5.694  48.760  1.00  0.00     0.015 A 
ENDBRANCH   1  16
TORSDOF 2
ENDMDL
MODEL 6
REMARK VINA RESULT:      -8.0      5.940      8.439
REMARK  2 active torsions:
REMARK  status: ('A' for Active; 'I' for Inactive)
REMARK    1  A    between atoms: C4_5  and  C5_6 
REMARK    2  A    between atoms: C7_9  and  N1_10 
ROOT
HETATM    1  C5  UNL     1      25.966   5.170  49.255  1.00  0.00     0.076 A 
HETATM    2  C6  UNL     1      24.568   5.328  49.147  1.00  0.00     0.086 A 
HETATM    3  S1  UNL     1      23.992   4.083  50.242  1.00  0.00    -0.060 SA
HETATM    4  C7  UNL     1      25.734   3.498  50.712  1.00  0.00     0.189 A 
HETATM    5  N3  UNL     1      26.413   4.227  50.064  1.00  0.00    -0.222 NA
ENDROOT
BRANCH   4   6
HETATM    6  N1  UNL     1      25.770   2.424  51.645  1.00  0.00    -0.246 N 
HETATM    7  C8  UNL     1      26.987   2.042  52.334  1.00  0.00     0.162 C 
HETATM    8  C9  UNL     1      27.357   0.610  52.197  1.00  0.00     0.032 C 
HETATM    9  C10 UNL     1      28.219   0.184  53.326  1.00  0.00    -0.024 C 
HETATM   10  C13 UNL     1      26.259  -0.383  52.218  1.00  0.00     0.003 C 
HETATM   11  C11 UNL     1      28.000  -1.109  53.638  1.00  0.00    -0.030 C 
HETATM   12  C12 UNL     1      26.943  -1.660  52.711  1.00  0.00     0.032 C 
HETATM   13  C14 UNL     1      25.122  -0.118  53.139  1.00  0.00     0.054 C 
HETATM   14  C15 UNL     1      24.158   0.764  52.383  1.00  0.00     0.112 C 
HETATM   15  N2  UNL     1      24.496   1.862  51.749  1.00  0.00    -0.187 NA
ENDBRANCH   4   6
BRANCH   1  16
HETATM   16  C4  UNL     1      26.875   6.021  48.495  1.00  0.00    -0.007 A 
HETATM   17  C3  UNL     1      28.217   5.784  48.314  1.00  0.00     0.015 A 
HETATM   18  C2  UNL     1      29.080   6.577  47.603  1.00  0.00     0.024 A 
HETATM   19  C1  UNL     1      28.587   7.717  47.007  1.00  0.00     0.034 A 
HETATM   20 CL1  UNL     1      29.632   8.771  46.086  1.00  0.00    -0.084 Cl
HETATM   21  C17 UNL     1      27.258   8.027  47.139  1.00  0.00     0.024 A 
HETATM   22  C16 UNL     1      26.465   7.177  47.869  1.00  0.00     0.015 A 
ENDBRANCH   1  16
TORSDOF 2
ENDMDL
MODEL 7
REMARK VINA RESULT:      -8.0      3.684      8.313
REMARK  2 active torsions:
REMARK  status: ('A' for Active; 'I' for Inactive)
REMARK    1  A    between atoms: C4_5  and  C5_6 
REMARK    2  A    between atoms: C7_9  and  N1_10 
ROOT
HETATM    1  C5  UNL     1      25.219   1.778  52.133  1.00  0.00     0.076 A 
HETATM    2  C6  UNL     1      25.302   2.964  51.373  1.00  0.00     0.086 A 
HETATM    3  S1  UNL     1      23.605   3.358  51.157  1.00  0.00    -0.060 SA
HETATM    4  C7  UNL     1      22.990   1.852  52.133  1.00  0.00     0.189 A 
HETATM    5  N3  UNL     1      24.014   1.334  52.442  1.00  0.00    -0.222 NA
ENDROOT
BRANCH   4   6
HETATM    6  N1  UNL     1      21.575   1.744  52.232  1.00  0.00    -0.246 N 
HETATM    7  C8  UNL     1      20.933   0.702  53.010  1.00  0.00     0.162 C 
HETATM    8  C9  UNL     1      19.938  -0.109  52.264  1.00  0.00     0.032 C 
HETATM    9  C10 UNL     1      18.961  -0.721  53.197  1.00  0.00    -0.024 C 
HETATM   10  C13 UNL     1      19.076   0.598  51.290  1.00  0.00     0.003 C 
HETATM   11  C11 UNL     1      17.747  -0.830  52.619  1.00  0.00    -0.030 C 
HETATM   12  C12 UNL     1      17.826  -0.282  51.214  1.00  0.00     0.032 C 
HETATM   13  C14 UNL     1      18.620   1.966  51.654  1.00  0.00     0.054 C 
HETATM   14  C15 UNL     1      19.708   2.911  51.205  1.00  0.00     0.112 C 
HETATM   15  N2  UNL     1      20.982   2.765  51.487  1.00  0.00    -0.187 NA
ENDBRANCH   4   6
BRANCH   1  16
HETATM   16  C4  UNL     1      26.426   1.075  52.556  1.00  0.00    -0.007 A 
HETATM   17  C3  UNL     1      27.573   1.678  53.013  1.00  0.00     0.015 A 
HETATM   18  C2  UNL     1      28.713   1.028  53.413  1.00  0.00     0.024 A 
HETATM   19  C1  UNL     1      28.738  -0.348  53.361  1.00  0.00     0.034 A 
HETATM   20 CL1  UNL     1      30.157  -1.238  53.855  1.00  0.00    -0.084 Cl
HETATM   21  C17 UNL     1      27.633  -1.027  52.916  1.00  0.00     0.024 A 
HETATM   22  C16 UNL     1      26.535  -0.297  52.535  1.00  0.00     0.015 A 
ENDBRANCH   1  16
TORSDOF 2
ENDMDL
MODEL 8
REMARK VINA RESULT:      -7.9      5.908      8.772
REMARK  2 active torsions:
REMARK  status: ('A' for Active; 'I' for Inactive)
REMARK    1  A    between atoms: C4_5  and  C5_6 
REMARK    2  A    between atoms: C7_9  and  N1_10 
ROOT
HETATM    1  C5  UNL     1      25.229   5.336  49.137  1.00  0.00     0.076 A 
HETATM    2  C6  UNL     1      24.063   5.887  48.566  1.00  0.00     0.086 A 
HETATM    3  S1  UNL     1      22.808   5.088  49.497  1.00  0.00    -0.060 SA
HETATM    4  C7  UNL     1      24.034   4.098  50.554  1.00  0.00     0.189 A 
HETATM    5  N3  UNL     1      25.076   4.461  50.114  1.00  0.00    -0.222 NA
ENDROOT
BRANCH   4   6
HETATM    6  N1  UNL     1      23.432   3.245  51.521  1.00  0.00    -0.246 N 
HETATM    7  C8  UNL     1      24.214   2.359  52.362  1.00  0.00     0.162 C 
HETATM    8  C9  UNL     1      23.800   0.933  52.319  1.00  0.00     0.032 C 
HETATM    9  C10 UNL     1      24.221   0.231  53.555  1.00  0.00    -0.024 C 
HETATM   10  C13 UNL     1      22.350   0.647  52.246  1.00  0.00     0.003 C 
HETATM   11  C11 UNL     1      23.340  -0.734  53.884  1.00  0.00    -0.030 C 
HETATM   12  C12 UNL     1      22.230  -0.749  52.860  1.00  0.00     0.032 C 
HETATM   13  C14 UNL     1      21.442   1.537  53.018  1.00  0.00     0.054 C 
HETATM   14  C15 UNL     1      21.139   2.715  52.125  1.00  0.00     0.112 C 
HETATM   15  N2  UNL     1      22.048   3.425  51.496  1.00  0.00    -0.187 NA
ENDBRANCH   4   6
BRANCH   1  16
HETATM   16  C4  UNL     1      26.552   5.726  48.658  1.00  0.00    -0.007 A 
HETATM   17  C3  UNL     1      27.666   4.921  48.667  1.00  0.00     0.015 A 
HETATM   18  C2  UNL     1      28.912   5.276  48.220  1.00  0.00     0.024 A 
HETATM   19  C1  UNL     1      29.093   6.544  47.715  1.00  0.00     0.034 A 
HETATM   20 CL1  UNL     1      30.655   7.061  47.128  1.00  0.00    -0.084 Cl
HETATM   21  C17 UNL     1      28.032   7.411  47.670  1.00  0.00     0.024 A 
HETATM   22  C16 UNL     1      26.818   6.972  48.139  1.00  0.00     0.015 A 
ENDBRANCH   1  16
TORSDOF 2
ENDMDL
MODEL 9
REMARK VINA RESULT:      -7.5      4.896      7.990
REMARK  2 active torsions:
REMARK  status: ('A' for Active; 'I' for Inactive)
REMARK    1  A    between atoms: C4_5  and  C5_6 
REMARK    2  A    between atoms: C7_9  and  N1_10 
ROOT
HETATM    1  C5  UNL     1      24.450   0.506  52.728  1.00  0.00     0.076 A 
HETATM    2  C6  UNL     1      23.387   0.001  53.506  1.00  0.00     0.086 A 
HETATM    3  S1  UNL     1      22.001   0.743  52.725  1.00  0.00    -0.060 SA
HETATM    4  C7  UNL     1      23.046   1.654  51.430  1.00  0.00     0.189 A 
HETATM    5  N3  UNL     1      24.145   1.315  51.730  1.00  0.00    -0.222 NA
ENDROOT
BRANCH   4   6
HETATM    6  N1  UNL     1      22.300   2.443  50.511  1.00  0.00    -0.246 N 
HETATM    7  C8  UNL     1      22.262   2.146  49.092  1.00  0.00     0.162 C 
HETATM    8  C9  UNL     1      22.641   3.278  48.209  1.00  0.00     0.032 C 
HETATM    9  C10 UNL     1      22.054   3.103  46.858  1.00  0.00    -0.024 C 
HETATM   10  C13 UNL     1      22.185   4.630  48.601  1.00  0.00     0.003 C 
HETATM   11  C11 UNL     1      21.757   4.296  46.304  1.00  0.00    -0.030 C 
HETATM   12  C12 UNL     1      22.136   5.389  47.273  1.00  0.00     0.032 C 
HETATM   13  C14 UNL     1      20.834   4.741  49.212  1.00  0.00     0.054 C 
HETATM   14  C15 UNL     1      21.015   4.496  50.691  1.00  0.00     0.112 C 
HETATM   15  N2  UNL     1      21.664   3.476  51.202  1.00  0.00    -0.187 NA
ENDBRANCH   4   6
BRANCH   1  16
HETATM   16  C4  UNL     1      25.832   0.143  53.025  1.00  0.00    -0.007 A 
HETATM   17  C3  UNL     1      26.711   0.906  53.755  1.00  0.00     0.015 A 
HETATM   18  C2  UNL     1      28.011   0.575  54.039  1.00  0.00     0.024 A 
HETATM   19  C1  UNL     1      28.505  -0.620  53.564  1.00  0.00     0.034 A 
HETATM   20 CL1  UNL     1      30.151  -1.103  53.891  1.00  0.00    -0.084 Cl
HETATM   21  C17 UNL     1      27.692  -1.441  52.826  1.00  0.00     0.024 A 
HETATM   22  C16 UNL     1      26.404  -1.031  52.588  1.00  0.00     0.015 A 
ENDBRANCH   1  16
TORSDOF 2
ENDMDL
