MODEL 1
REMARK VINA RESULT:     -10.6      0.000      0.000
REMARK  5 active torsions:
REMARK  status: ('A' for Active; 'I' for Inactive)
REMARK    1  A    between atoms: O1_1  and  C1_2 
REMARK    2  A    between atoms: C1_2  and  C2_3 
REMARK    3  A    between atoms: N2_8  and  C6_9 
REMARK    4  A    between atoms: C6_9  and  C7_10 
REMARK    5  A    between atoms: C13_16  and  O2_17 
ROOT
HETATM    1  C2  UNL     1      24.303  -0.619  54.314  1.00  0.00     0.137 C 
HETATM    2  N1  UNL     1      25.179  -0.792  53.210  1.00  0.00    -0.379 N 
HETATM    3  C3  UNL     1      26.459  -0.163  53.258  1.00  0.00     0.176 A 
HETATM    4  C4  UNL     1      26.747   0.206  51.788  1.00  0.00     0.082 C 
HETATM    5  C5  UNL     1      26.909   1.664  51.540  1.00  0.00     0.122 C 
HETATM    6  N2  UNL     1      25.965   2.278  50.679  1.00  0.00    -0.405 N 
HETATM    7  C14 UNL     1      24.742   2.754  51.209  1.00  0.00     0.163 C 
HETATM    8  C15 UNL     1      24.329   2.125  52.465  1.00  0.00     0.003 C 
HETATM    9  C16 UNL     1      23.320   1.267  52.427  1.00  0.00     0.028 C 
HETATM   10  C17 UNL     1      22.414   0.341  53.102  1.00  0.00    -0.027 A 
HETATM   11  C18 UNL     1      21.094   0.500  52.724  1.00  0.00     0.012 A 
HETATM   12  C19 UNL     1      20.118  -0.316  53.251  1.00  0.00     0.001 A 
HETATM   13  C20 UNL     1      20.582  -1.247  54.140  1.00  0.00     0.001 A 
HETATM   14  C21 UNL     1      21.887  -1.415  54.522  1.00  0.00     0.010 A 
HETATM   15  C22 UNL     1      22.866  -0.606  54.004  1.00  0.00    -0.024 A 
HETATM   16  S1  UNL     1      25.265   2.518  53.975  1.00  0.00    -0.073 SA
HETATM   17  C23 UNL     1      26.412   1.101  54.077  1.00  0.00     0.127 A 
HETATM   18  N3  UNL     1      27.366   1.048  54.964  1.00  0.00    -0.235 NA
HETATM   19  C24 UNL     1      28.062  -0.202  54.790  1.00  0.00     0.231 A 
HETATM   20  N4  UNL     1      27.544  -0.880  53.828  1.00  0.00    -0.244 NA
HETATM   21  H5  UNL     1      25.165  -1.714  52.772  1.00  0.00     0.157 HD
ENDROOT
BRANCH   6  22
HETATM   22  C6  UNL     1      26.553   3.013  49.618  1.00  0.00     0.145 C 
BRANCH  22  23
HETATM   23  C7  UNL     1      25.884   4.280  49.283  1.00  0.00     0.003 C 
HETATM   24  C8  UNL     1      26.138   5.502  48.843  1.00  0.00    -0.024 A 
HETATM   25  C9  UNL     1      24.993   6.434  48.682  1.00  0.00     0.068 A 
HETATM   26  C13 UNL     1      27.494   5.928  48.524  1.00  0.00     0.071 A 
HETATM   27  C10 UNL     1      25.551   7.707  48.186  1.00  0.00    -0.022 A 
HETATM   28  C11 UNL     1      26.763   8.138  47.884  1.00  0.00    -0.001 A 
HETATM   29  C12 UNL     1      27.817   7.141  48.079  1.00  0.00     0.037 A 
BRANCH  26  30
HETATM   30  O2  UNL     1      28.584   5.111  48.654  1.00  0.00    -0.360 OA
HETATM   31  H18 UNL     1      29.162   4.772  47.910  1.00  0.00     0.217 HD
ENDBRANCH  26  30
ENDBRANCH  22  23
ENDBRANCH   6  22
BRANCH   1  32
HETATM   32  C1  UNL     1      24.672  -1.609  55.388  1.00  0.00     0.193 C 
BRANCH  32  33
HETATM   33  O1  UNL     1      25.224  -0.992  56.516  1.00  0.00    -0.399 OA
HETATM   34  H1  UNL     1      25.279  -1.673  57.221  1.00  0.00     0.209 HD
ENDBRANCH  32  33
ENDBRANCH   1  32
TORSDOF 5
ENDMDL
MODEL 2
REMARK VINA RESULT:      -9.7      6.255      9.598
REMARK  5 active torsions:
REMARK  status: ('A' for Active; 'I' for Inactive)
REMARK    1  A    between atoms: O1_1  and  C1_2 
REMARK    2  A    between atoms: C1_2  and  C2_3 
REMARK    3  A    between atoms: N2_8  and  C6_9 
REMARK    4  A    between atoms: C6_9  and  C7_10 
REMARK    5  A    between atoms: C13_16  and  O2_17 
ROOT
HETATM    1  C2  UNL     1      26.664   7.905  49.118  1.00  0.00     0.137 C 
HETATM    2  N1  UNL     1      27.860   8.401  49.700  1.00  0.00    -0.379 N 
HETATM    3  C3  UNL     1      28.525   9.487  49.055  1.00  0.00     0.176 A 
HETATM    4  C4  UNL     1      30.021   9.220  49.322  1.00  0.00     0.082 C 
HETATM    5  C5  UNL     1      30.839   9.016  48.096  1.00  0.00     0.122 C 
HETATM    6  N2  UNL     1      31.455   7.750  47.938  1.00  0.00    -0.405 N 
HETATM    7  C14 UNL     1      30.734   6.691  47.336  1.00  0.00     0.163 C 
HETATM    8  C15 UNL     1      29.277   6.825  47.399  1.00  0.00     0.003 C 
HETATM    9  C16 UNL     1      28.618   6.036  48.235  1.00  0.00     0.028 C 
HETATM   10  C17 UNL     1      27.363   5.584  48.832  1.00  0.00    -0.027 A 
HETATM   11  C18 UNL     1      27.260   4.208  48.901  1.00  0.00     0.012 A 
HETATM   12  C19 UNL     1      26.148   3.621  49.462  1.00  0.00     0.001 A 
HETATM   13  C20 UNL     1      25.212   4.510  49.916  1.00  0.00     0.001 A 
HETATM   14  C21 UNL     1      25.303   5.876  49.854  1.00  0.00     0.010 A 
HETATM   15  C22 UNL     1      26.406   6.469  49.296  1.00  0.00    -0.024 A 
HETATM   16  S1  UNL     1      28.482   8.099  46.372  1.00  0.00    -0.073 SA
HETATM   17  C23 UNL     1      28.285   9.465  47.568  1.00  0.00     0.127 A 
HETATM   18  N3  UNL     1      27.860  10.644  47.205  1.00  0.00    -0.235 NA
HETATM   19  C24 UNL     1      27.794  11.471  48.384  1.00  0.00     0.231 A 
HETATM   20  N4  UNL     1      28.170  10.812  49.423  1.00  0.00    -0.244 NA
HETATM   21  H5  UNL     1      27.883   8.424  50.720  1.00  0.00     0.157 HD
ENDROOT
BRANCH   6  22
HETATM   22  C6  UNL     1      32.850   7.820  47.690  1.00  0.00     0.145 C 
BRANCH  22  23
HETATM   23  C7  UNL     1      33.358   6.882  46.676  1.00  0.00     0.003 C 
HETATM   24  C8  UNL     1      33.922   5.691  46.555  1.00  0.00    -0.024 A 
HETATM   25  C9  UNL     1      34.242   5.210  45.187  1.00  0.00     0.068 A 
HETATM   26  C13 UNL     1      34.225   4.873  47.722  1.00  0.00     0.071 A 
HETATM   27  C10 UNL     1      34.854   3.876  45.342  1.00  0.00    -0.022 A 
HETATM   28  C11 UNL     1      35.147   3.098  46.369  1.00  0.00    -0.001 A 
HETATM   29  C12 UNL     1      34.792   3.669  47.670  1.00  0.00     0.037 A 
BRANCH  26  30
HETATM   30  O2  UNL     1      33.953   5.268  49.003  1.00  0.00    -0.360 OA
HETATM   31  H18 UNL     1      34.601   5.291  49.766  1.00  0.00     0.217 HD
ENDBRANCH  26  30
ENDBRANCH  22  23
ENDBRANCH   6  22
BRANCH   1  32
HETATM   32  C1  UNL     1      25.514   8.775  49.552  1.00  0.00     0.193 C 
BRANCH  32  33
HETATM   33  O1  UNL     1      25.752   9.402  50.781  1.00  0.00    -0.399 OA
HETATM   34  H1  UNL     1      26.720   9.372  50.939  1.00  0.00     0.209 HD
ENDBRANCH  32  33
ENDBRANCH   1  32
TORSDOF 5
ENDMDL
MODEL 3
REMARK VINA RESULT:      -9.5      3.847      6.836
REMARK  5 active torsions:
REMARK  status: ('A' for Active; 'I' for Inactive)
REMARK    1  A    between atoms: O1_1  and  C1_2 
REMARK    2  A    between atoms: C1_2  and  C2_3 
REMARK    3  A    between atoms: N2_8  and  C6_9 
REMARK    4  A    between atoms: C6_9  and  C7_10 
REMARK    5  A    between atoms: C13_16  and  O2_17 
ROOT
HETATM    1  C2  UNL     1      18.923   2.198  51.105  1.00  0.00     0.137 C 
HETATM    2  N1  UNL     1      19.738   3.060  51.885  1.00  0.00    -0.379 N 
HETATM    3  C3  UNL     1      20.777   3.786  51.229  1.00  0.00     0.176 A 
HETATM    4  C4  UNL     1      21.896   3.873  52.287  1.00  0.00     0.082 C 
HETATM    5  C5  UNL     1      23.172   3.220  51.888  1.00  0.00     0.122 C 
HETATM    6  N2  UNL     1      23.604   2.122  52.673  1.00  0.00    -0.405 N 
HETATM    7  C14 UNL     1      23.131   0.821  52.377  1.00  0.00     0.163 C 
HETATM    8  C15 UNL     1      21.864   0.779  51.642  1.00  0.00     0.003 C 
HETATM    9  C16 UNL     1      20.778   0.404  52.302  1.00  0.00     0.028 C 
HETATM   10  C17 UNL     1      19.343   0.131  52.335  1.00  0.00    -0.027 A 
HETATM   11  C18 UNL     1      19.030  -1.048  52.983  1.00  0.00     0.012 A 
HETATM   12  C19 UNL     1      17.716  -1.436  53.123  1.00  0.00     0.001 A 
HETATM   13  C20 UNL     1      16.811  -0.568  52.576  1.00  0.00     0.001 A 
HETATM   14  C21 UNL     1      17.109   0.604  51.931  1.00  0.00     0.010 A 
HETATM   15  C22 UNL     1      18.415   0.999  51.786  1.00  0.00    -0.024 A 
HETATM   16  S1  UNL     1      21.860   1.299  49.899  1.00  0.00    -0.073 SA
HETATM   17  C23 UNL     1      21.294   3.031  50.033  1.00  0.00     0.127 A 
HETATM   18  N3  UNL     1      21.269   3.830  49.002  1.00  0.00    -0.235 NA
HETATM   19  C24 UNL     1      20.751   5.101  49.442  1.00  0.00     0.231 A 
HETATM   20  N4  UNL     1      20.474   5.068  50.698  1.00  0.00    -0.244 NA
HETATM   21  H5  UNL     1      19.260   3.567  52.633  1.00  0.00     0.157 HD
ENDROOT
BRANCH   6  22
HETATM   22  C6  UNL     1      24.936   2.246  53.144  1.00  0.00     0.145 C 
BRANCH  22  23
HETATM   23  C7  UNL     1      25.757   1.029  53.040  1.00  0.00     0.003 C 
HETATM   24  C8  UNL     1      26.984   0.584  53.258  1.00  0.00    -0.024 A 
HETATM   25  C9  UNL     1      27.272  -0.840  52.949  1.00  0.00     0.068 A 
HETATM   26  C13 UNL     1      28.026   1.456  53.786  1.00  0.00     0.071 A 
HETATM   27  C10 UNL     1      28.691  -1.066  53.281  1.00  0.00    -0.022 A 
HETATM   28  C11 UNL     1      29.669  -0.313  53.757  1.00  0.00    -0.001 A 
HETATM   29  C12 UNL     1      29.278   1.071  54.027  1.00  0.00     0.037 A 
BRANCH  26  30
HETATM   30  O2  UNL     1      27.816   2.774  54.087  1.00  0.00    -0.360 OA
HETATM   31  H18 UNL     1      28.061   3.231  54.943  1.00  0.00     0.217 HD
ENDBRANCH  26  30
ENDBRANCH  22  23
ENDBRANCH   6  22
BRANCH   1  32
HETATM   32  C1  UNL     1      17.842   3.013  50.447  1.00  0.00     0.193 C 
BRANCH  32  33
HETATM   33  O1  UNL     1      17.449   4.108  51.225  1.00  0.00    -0.399 OA
HETATM   34  H1  UNL     1      16.486   4.017  51.388  1.00  0.00     0.209 HD
ENDBRANCH  32  33
ENDBRANCH   1  32
TORSDOF 5
ENDMDL
MODEL 4
REMARK VINA RESULT:      -9.4      2.903      4.990
REMARK  5 active torsions:
REMARK  status: ('A' for Active; 'I' for Inactive)
REMARK    1  A    between atoms: O1_1  and  C1_2 
REMARK    2  A    between atoms: C1_2  and  C2_3 
REMARK    3  A    between atoms: N2_8  and  C6_9 
REMARK    4  A    between atoms: C6_9  and  C7_10 
REMARK    5  A    between atoms: C13_16  and  O2_17 
ROOT
HETATM    1  C2  UNL     1      23.240   1.528  52.214  1.00  0.00     0.137 C 
HETATM    2  N1  UNL     1      23.207   2.865  52.690  1.00  0.00    -0.379 N 
HETATM    3  C3  UNL     1      22.394   3.810  51.995  1.00  0.00     0.176 A 
HETATM    4  C4  UNL     1      23.169   5.137  52.128  1.00  0.00     0.082 C 
HETATM    5  C5  UNL     1      23.598   5.732  50.834  1.00  0.00     0.122 C 
HETATM    6  N2  UNL     1      24.992   5.858  50.615  1.00  0.00    -0.405 N 
HETATM    7  C14 UNL     1      25.717   4.768  50.073  1.00  0.00     0.163 C 
HETATM    8  C15 UNL     1      25.092   3.458  50.265  1.00  0.00     0.003 C 
HETATM    9  C16 UNL     1      25.635   2.637  51.152  1.00  0.00     0.028 C 
HETATM   10  C17 UNL     1      25.649   1.356  51.855  1.00  0.00    -0.027 A 
HETATM   11  C18 UNL     1      26.907   0.789  51.925  1.00  0.00     0.012 A 
HETATM   12  C19 UNL     1      27.094  -0.409  52.579  1.00  0.00     0.001 A 
HETATM   13  C20 UNL     1      25.955  -0.939  53.118  1.00  0.00     0.001 A 
HETATM   14  C21 UNL     1      24.702  -0.387  53.056  1.00  0.00     0.010 A 
HETATM   15  C22 UNL     1      24.505   0.805  52.406  1.00  0.00    -0.024 A 
HETATM   16  S1  UNL     1      23.586   3.072  49.319  1.00  0.00    -0.073 SA
HETATM   17  C23 UNL     1      22.279   3.457  50.535  1.00  0.00     0.127 A 
HETATM   18  N3  UNL     1      21.014   3.438  50.218  1.00  0.00    -0.235 NA
HETATM   19  C24 UNL     1      20.257   3.758  51.402  1.00  0.00     0.231 A 
HETATM   20  N4  UNL     1      21.041   3.965  52.400  1.00  0.00    -0.244 NA
HETATM   21  H5  UNL     1      23.230   2.976  53.705  1.00  0.00     0.157 HD
ENDROOT
BRANCH   6  22
HETATM   22  C6  UNL     1      25.397   7.166  50.246  1.00  0.00     0.145 C 
BRANCH  22  23
HETATM   23  C7  UNL     1      26.405   7.235  49.175  1.00  0.00     0.003 C 
HETATM   24  C8  UNL     1      27.505   7.882  48.826  1.00  0.00    -0.024 A 
HETATM   25  C9  UNL     1      28.152   7.511  47.542  1.00  0.00     0.068 A 
HETATM   26  C13 UNL     1      28.071   8.927  49.670  1.00  0.00     0.071 A 
HETATM   27  C10 UNL     1      29.339   8.374  47.402  1.00  0.00    -0.022 A 
HETATM   28  C11 UNL     1      29.889   9.329  48.133  1.00  0.00    -0.001 A 
HETATM   29  C12 UNL     1      29.172   9.616  49.377  1.00  0.00     0.037 A 
BRANCH  26  30
HETATM   30  O2  UNL     1      27.516   9.309  50.860  1.00  0.00    -0.360 OA
HETATM   31  H18 UNL     1      27.628   8.846  51.741  1.00  0.00     0.217 HD
ENDBRANCH  26  30
ENDBRANCH  22  23
ENDBRANCH   6  22
BRANCH   1  32
HETATM   32  C1  UNL     1      22.044   0.789  52.752  1.00  0.00     0.193 C 
BRANCH  32  33
HETATM   33  O1  UNL     1      21.148   0.415  51.744  1.00  0.00    -0.399 OA
HETATM   34  H1  UNL     1      21.627  -0.196  51.143  1.00  0.00     0.209 HD
ENDBRANCH  32  33
ENDBRANCH   1  32
TORSDOF 5
ENDMDL
MODEL 5
REMARK VINA RESULT:      -9.0      3.367      9.372
REMARK  5 active torsions:
REMARK  status: ('A' for Active; 'I' for Inactive)
REMARK    1  A    between atoms: O1_1  and  C1_2 
REMARK    2  A    between atoms: C1_2  and  C2_3 
REMARK    3  A    between atoms: N2_8  and  C6_9 
REMARK    4  A    between atoms: C6_9  and  C7_10 
REMARK    5  A    between atoms: C13_16  and  O2_17 
ROOT
HETATM    1  C2  UNL     1      25.083   7.317  48.384  1.00  0.00     0.137 C 
HETATM    2  N1  UNL     1      24.065   6.473  47.867  1.00  0.00    -0.379 N 
HETATM    3  C3  UNL     1      22.809   6.436  48.544  1.00  0.00     0.176 A 
HETATM    4  C4  UNL     1      22.329   4.982  48.361  1.00  0.00     0.082 C 
HETATM    5  C5  UNL     1      22.148   4.228  49.631  1.00  0.00     0.122 C 
HETATM    6  N2  UNL     1      22.974   3.093  49.827  1.00  0.00    -0.405 N 
HETATM    7  C14 UNL     1      24.262   3.254  50.392  1.00  0.00     0.163 C 
HETATM    8  C15 UNL     1      24.834   4.595  50.249  1.00  0.00     0.003 C 
HETATM    9  C16 UNL     1      25.821   4.757  49.380  1.00  0.00     0.028 C 
HETATM   10  C17 UNL     1      26.800   5.615  48.716  1.00  0.00    -0.027 A 
HETATM   11  C18 UNL     1      28.059   5.049  48.647  1.00  0.00     0.012 A 
HETATM   12  C19 UNL     1      29.089   5.720  48.028  1.00  0.00     0.001 A 
HETATM   13  C20 UNL     1      28.741   6.941  47.519  1.00  0.00     0.001 A 
HETATM   14  C21 UNL     1      27.497   7.513  47.581  1.00  0.00     0.010 A 
HETATM   15  C22 UNL     1      26.464   6.853  48.197  1.00  0.00    -0.024 A 
HETATM   16  S1  UNL     1      24.113   5.950  51.225  1.00  0.00    -0.073 SA
HETATM   17  C23 UNL     1      22.976   6.712  50.015  1.00  0.00     0.127 A 
HETATM   18  N3  UNL     1      22.149   7.663  50.350  1.00  0.00    -0.235 NA
HETATM   19  C24 UNL     1      21.425   8.054  49.166  1.00  0.00     0.231 A 
HETATM   20  N4  UNL     1      21.803   7.359  48.152  1.00  0.00    -0.244 NA
HETATM   21  H5  UNL     1      24.011   6.412  46.849  1.00  0.00     0.157 HD
ENDROOT
BRANCH   6  22
HETATM   22  C6  UNL     1      22.256   1.914  50.152  1.00  0.00     0.145 C 
BRANCH  22  23
HETATM   23  C7  UNL     1      22.746   1.182  51.331  1.00  0.00     0.003 C 
HETATM   24  C8  UNL     1      22.322   0.443  52.343  1.00  0.00    -0.024 A 
HETATM   25  C9  UNL     1      23.334  -0.070  53.301  1.00  0.00     0.068 A 
HETATM   26  C13 UNL     1      20.908   0.138  52.520  1.00  0.00     0.071 A 
HETATM   27  C10 UNL     1      22.598  -0.850  54.315  1.00  0.00    -0.022 A 
HETATM   28  C11 UNL     1      21.327  -1.153  54.516  1.00  0.00    -0.001 A 
HETATM   29  C12 UNL     1      20.416  -0.597  53.515  1.00  0.00     0.037 A 
BRANCH  26  30
HETATM   30  O2  UNL     1      19.934   0.585  51.669  1.00  0.00    -0.360 OA
HETATM   31  H18 UNL     1      19.833   1.519  51.324  1.00  0.00     0.217 HD
ENDBRANCH  26  30
ENDBRANCH  22  23
ENDBRANCH   6  22
BRANCH   1  32
HETATM   32  C1  UNL     1      24.852   8.719  47.883  1.00  0.00     0.193 C 
BRANCH  32  33
HETATM   33  O1  UNL     1      24.249   8.743  46.621  1.00  0.00    -0.399 OA
HETATM   34  H1  UNL     1      24.967   8.819  45.958  1.00  0.00     0.209 HD
ENDBRANCH  32  33
ENDBRANCH   1  32
TORSDOF 5
ENDMDL
MODEL 6
REMARK VINA RESULT:      -8.8      2.413      2.989
REMARK  5 active torsions:
REMARK  status: ('A' for Active; 'I' for Inactive)
REMARK    1  A    between atoms: O1_1  and  C1_2 
REMARK    2  A    between atoms: C1_2  and  C2_3 
REMARK    3  A    between atoms: N2_8  and  C6_9 
REMARK    4  A    between atoms: C6_9  and  C7_10 
REMARK    5  A    between atoms: C13_16  and  O2_17 
ROOT
HETATM    1  C2  UNL     1      24.525  -0.076  53.881  1.00  0.00     0.137 C 
HETATM    2  N1  UNL     1      25.190  -0.009  52.628  1.00  0.00    -0.379 N 
HETATM    3  C3  UNL     1      26.301   0.878  52.499  1.00  0.00     0.176 A 
HETATM    4  C4  UNL     1      26.222   1.364  51.037  1.00  0.00     0.082 C 
HETATM    5  C5  UNL     1      26.034   2.832  50.885  1.00  0.00     0.122 C 
HETATM    6  N2  UNL     1      24.839   3.265  50.260  1.00  0.00    -0.405 N 
HETATM    7  C14 UNL     1      23.669   3.445  51.037  1.00  0.00     0.163 C 
HETATM    8  C15 UNL     1      23.640   2.688  52.290  1.00  0.00     0.003 C 
HETATM    9  C16 UNL     1      22.837   1.636  52.361  1.00  0.00     0.028 C 
HETATM   10  C17 UNL     1      22.285   0.509  53.108  1.00  0.00    -0.027 A 
HETATM   11  C18 UNL     1      20.913   0.397  52.986  1.00  0.00     0.012 A 
HETATM   12  C19 UNL     1      20.241  -0.631  53.609  1.00  0.00     0.001 A 
HETATM   13  C20 UNL     1      21.045  -1.478  54.321  1.00  0.00     0.001 A 
HETATM   14  C21 UNL     1      22.406  -1.379  54.449  1.00  0.00     0.010 A 
HETATM   15  C22 UNL     1      23.084  -0.357  53.833  1.00  0.00    -0.024 A 
HETATM   16  S1  UNL     1      24.748   3.207  53.637  1.00  0.00    -0.073 SA
HETATM   17  C23 UNL     1      26.157   2.065  53.415  1.00  0.00     0.127 A 
HETATM   18  N3  UNL     1      27.254   2.180  54.111  1.00  0.00    -0.235 NA
HETATM   19  C24 UNL     1      28.142   1.117  53.712  1.00  0.00     0.231 A 
HETATM   20  N4  UNL     1      27.598   0.386  52.804  1.00  0.00    -0.244 NA
HETATM   21  H5  UNL     1      25.279  -0.893  52.125  1.00  0.00     0.157 HD
ENDROOT
BRANCH   6  22
HETATM   22  C6  UNL     1      25.051   4.155  49.176  1.00  0.00     0.145 C 
BRANCH  22  23
HETATM   23  C7  UNL     1      23.884   4.964  48.787  1.00  0.00     0.003 C 
HETATM   24  C8  UNL     1      22.717   4.872  48.171  1.00  0.00    -0.024 A 
HETATM   25  C9  UNL     1      21.891   6.101  48.060  1.00  0.00     0.068 A 
HETATM   26  C13 UNL     1      22.249   3.608  47.617  1.00  0.00     0.071 A 
HETATM   27  C10 UNL     1      20.661   5.719  47.340  1.00  0.00    -0.022 A 
HETATM   28  C11 UNL     1      20.194   4.596  46.822  1.00  0.00    -0.001 A 
HETATM   29  C12 UNL     1      21.087   3.448  46.986  1.00  0.00     0.037 A 
BRANCH  26  30
HETATM   30  O2  UNL     1      22.968   2.447  47.691  1.00  0.00    -0.360 OA
HETATM   31  H18 UNL     1      22.947   1.695  47.031  1.00  0.00     0.217 HD
ENDBRANCH  26  30
ENDBRANCH  22  23
ENDBRANCH   6  22
BRANCH   1  32
HETATM   32  C1  UNL     1      25.285  -1.009  54.786  1.00  0.00     0.193 C 
BRANCH  32  33
HETATM   33  O1  UNL     1      26.065  -0.325  55.725  1.00  0.00    -0.399 OA
HETATM   34  H1  UNL     1      26.187  -0.924  56.492  1.00  0.00     0.209 HD
ENDBRANCH  32  33
ENDBRANCH   1  32
TORSDOF 5
ENDMDL
MODEL 7
REMARK VINA RESULT:      -8.7      3.187      4.899
REMARK  5 active torsions:
REMARK  status: ('A' for Active; 'I' for Inactive)
REMARK    1  A    between atoms: O1_1  and  C1_2 
REMARK    2  A    between atoms: C1_2  and  C2_3 
REMARK    3  A    between atoms: N2_8  and  C6_9 
REMARK    4  A    between atoms: C6_9  and  C7_10 
REMARK    5  A    between atoms: C13_16  and  O2_17 
ROOT
HETATM    1  C2  UNL     1      21.051   2.647  52.104  1.00  0.00     0.137 C 
HETATM    2  N1  UNL     1      21.886   3.789  52.219  1.00  0.00    -0.379 N 
HETATM    3  C3  UNL     1      22.031   4.638  51.081  1.00  0.00     0.176 A 
HETATM    4  C4  UNL     1      23.481   5.152  51.181  1.00  0.00     0.082 C 
HETATM    5  C5  UNL     1      24.349   4.777  50.032  1.00  0.00     0.122 C 
HETATM    6  N2  UNL     1      25.464   3.948  50.314  1.00  0.00    -0.405 N 
HETATM    7  C14 UNL     1      25.302   2.541  50.335  1.00  0.00     0.163 C 
HETATM    8  C15 UNL     1      23.933   2.083  50.578  1.00  0.00     0.003 C 
HETATM    9  C16 UNL     1      23.657   1.559  51.763  1.00  0.00     0.028 C 
HETATM   10  C17 UNL     1      22.707   0.953  52.694  1.00  0.00    -0.027 A 
HETATM   11  C18 UNL     1      23.215  -0.156  53.343  1.00  0.00     0.012 A 
HETATM   12  C19 UNL     1      22.453  -0.826  54.274  1.00  0.00     0.001 A 
HETATM   13  C20 UNL     1      21.206  -0.296  54.467  1.00  0.00     0.001 A 
HETATM   14  C21 UNL     1      20.691   0.803  53.830  1.00  0.00     0.010 A 
HETATM   15  C22 UNL     1      21.442   1.476  52.901  1.00  0.00    -0.024 A 
HETATM   16  S1  UNL     1      22.697   2.318  49.264  1.00  0.00    -0.073 SA
HETATM   17  C23 UNL     1      21.878   3.860  49.800  1.00  0.00     0.127 A 
HETATM   18  N3  UNL     1      20.992   4.465  49.057  1.00  0.00    -0.235 NA
HETATM   19  C24 UNL     1      20.528   5.623  49.779  1.00  0.00     0.231 A 
HETATM   20  N4  UNL     1      21.117   5.713  50.920  1.00  0.00    -0.244 NA
HETATM   21  H5  UNL     1      21.860   4.270  53.119  1.00  0.00     0.157 HD
ENDROOT
BRANCH   6  22
HETATM   22  C6  UNL     1      26.694   4.461  49.830  1.00  0.00     0.145 C 
BRANCH  22  23
HETATM   23  C7  UNL     1      26.582   5.607  48.913  1.00  0.00     0.003 C 
HETATM   24  C8  UNL     1      27.323   6.456  48.220  1.00  0.00    -0.024 A 
HETATM   25  C9  UNL     1      26.624   7.484  47.408  1.00  0.00     0.068 A 
HETATM   26  C13 UNL     1      28.779   6.391  48.246  1.00  0.00     0.071 A 
HETATM   27  C10 UNL     1      27.673   8.285  46.747  1.00  0.00    -0.022 A 
HETATM   28  C11 UNL     1      28.995   8.266  46.740  1.00  0.00    -0.001 A 
HETATM   29  C12 UNL     1      29.580   7.215  47.573  1.00  0.00     0.037 A 
BRANCH  26  30
HETATM   30  O2  UNL     1      29.473   5.466  48.976  1.00  0.00    -0.360 OA
HETATM   31  H18 UNL     1      29.127   4.952  49.762  1.00  0.00     0.217 HD
ENDBRANCH  26  30
ENDBRANCH  22  23
ENDBRANCH   6  22
BRANCH   1  32
HETATM   32  C1  UNL     1      19.621   3.066  52.323  1.00  0.00     0.193 C 
BRANCH  32  33
HETATM   33  O1  UNL     1      18.886   3.102  51.133  1.00  0.00    -0.399 OA
HETATM   34  H1  UNL     1      19.517   2.949  50.398  1.00  0.00     0.209 HD
ENDBRANCH  32  33
ENDBRANCH   1  32
TORSDOF 5
ENDMDL
MODEL 8
REMARK VINA RESULT:      -8.4      2.939      9.284
REMARK  5 active torsions:
REMARK  status: ('A' for Active; 'I' for Inactive)
REMARK    1  A    between atoms: O1_1  and  C1_2 
REMARK    2  A    between atoms: C1_2  and  C2_3 
REMARK    3  A    between atoms: N2_8  and  C6_9 
REMARK    4  A    between atoms: C6_9  and  C7_10 
REMARK    5  A    between atoms: C13_16  and  O2_17 
ROOT
HETATM    1  C2  UNL     1      24.117   7.241  48.023  1.00  0.00     0.137 C 
HETATM    2  N1  UNL     1      23.562   5.946  47.847  1.00  0.00    -0.379 N 
HETATM    3  C3  UNL     1      22.521   5.530  48.731  1.00  0.00     0.176 A 
HETATM    4  C4  UNL     1      22.748   4.013  48.887  1.00  0.00     0.082 C 
HETATM    5  C5  UNL     1      23.036   3.573  50.280  1.00  0.00     0.122 C 
HETATM    6  N2  UNL     1      24.303   2.985  50.519  1.00  0.00    -0.405 N 
HETATM    7  C14 UNL     1      25.414   3.812  50.812  1.00  0.00     0.163 C 
HETATM    8  C15 UNL     1      25.294   5.194  50.342  1.00  0.00     0.003 C 
HETATM    9  C16 UNL     1      26.023   5.558  49.297  1.00  0.00     0.028 C 
HETATM   10  C17 UNL     1      26.444   6.574  48.335  1.00  0.00    -0.027 A 
HETATM   11  C18 UNL     1      27.812   6.606  48.143  1.00  0.00     0.012 A 
HETATM   12  C19 UNL     1      28.367   7.491  47.245  1.00  0.00     0.001 A 
HETATM   13  C20 UNL     1      27.458   8.287  46.604  1.00  0.00     0.001 A 
HETATM   14  C21 UNL     1      26.099   8.264  46.786  1.00  0.00     0.010 A 
HETATM   15  C22 UNL     1      25.537   7.387  47.678  1.00  0.00    -0.024 A 
HETATM   16  S1  UNL     1      24.112   6.292  51.183  1.00  0.00    -0.073 SA
HETATM   17  C23 UNL     1      22.660   6.185  50.080  1.00  0.00     0.127 A 
HETATM   18  N3  UNL     1      21.519   6.736  50.387  1.00  0.00    -0.235 NA
HETATM   19  C24 UNL     1      20.604   6.490  49.301  1.00  0.00     0.231 A 
HETATM   20  N4  UNL     1      21.176   5.811  48.370  1.00  0.00    -0.244 NA
HETATM   21  H5  UNL     1      23.461   5.633  46.880  1.00  0.00     0.157 HD
ENDROOT
BRANCH   6  22
HETATM   22  C6  UNL     1      24.234   1.723  51.163  1.00  0.00     0.145 C 
BRANCH  22  23
HETATM   23  C7  UNL     1      22.925   1.380  51.741  1.00  0.00     0.003 C 
HETATM   24  C8  UNL     1      22.365   0.599  52.650  1.00  0.00    -0.024 A 
HETATM   25  C9  UNL     1      20.892   0.675  52.819  1.00  0.00     0.068 A 
HETATM   26  C13 UNL     1      23.162  -0.309  53.465  1.00  0.00     0.071 A 
HETATM   27  C10 UNL     1      20.539  -0.286  53.881  1.00  0.00    -0.022 A 
HETATM   28  C11 UNL     1      21.219  -1.126  54.643  1.00  0.00    -0.001 A 
HETATM   29  C12 UNL     1      22.661  -1.121  54.394  1.00  0.00     0.037 A 
BRANCH  26  30
HETATM   30  O2  UNL     1      24.521  -0.419  53.350  1.00  0.00    -0.360 OA
HETATM   31  H18 UNL     1      25.104  -1.072  53.836  1.00  0.00     0.217 HD
ENDBRANCH  26  30
ENDBRANCH  22  23
ENDBRANCH   6  22
BRANCH   1  32
HETATM   32  C1  UNL     1      23.230   8.247  47.338  1.00  0.00     0.193 C 
BRANCH  32  33
HETATM   33  O1  UNL     1      22.581   7.714  46.219  1.00  0.00    -0.399 OA
HETATM   34  H1  UNL     1      22.146   6.882  46.504  1.00  0.00     0.209 HD
ENDBRANCH  32  33
ENDBRANCH   1  32
TORSDOF 5
ENDMDL
MODEL 9
REMARK VINA RESULT:      -8.2      3.111      5.192
REMARK  5 active torsions:
REMARK  status: ('A' for Active; 'I' for Inactive)
REMARK    1  A    between atoms: O1_1  and  C1_2 
REMARK    2  A    between atoms: C1_2  and  C2_3 
REMARK    3  A    between atoms: N2_8  and  C6_9 
REMARK    4  A    between atoms: C6_9  and  C7_10 
REMARK    5  A    between atoms: C13_16  and  O2_17 
ROOT
HETATM    1  C2  UNL     1      23.218   1.510  52.215  1.00  0.00     0.137 C 
HETATM    2  N1  UNL     1      23.185   2.857  52.662  1.00  0.00    -0.379 N 
HETATM    3  C3  UNL     1      22.364   3.785  51.954  1.00  0.00     0.176 A 
HETATM    4  C4  UNL     1      23.138   5.116  52.050  1.00  0.00     0.082 C 
HETATM    5  C5  UNL     1      23.554   5.683  50.738  1.00  0.00     0.122 C 
HETATM    6  N2  UNL     1      24.946   5.806  50.505  1.00  0.00    -0.405 N 
HETATM    7  C14 UNL     1      25.668   4.707  49.981  1.00  0.00     0.163 C 
HETATM    8  C15 UNL     1      25.048   3.399  50.207  1.00  0.00     0.003 C 
HETATM    9  C16 UNL     1      25.600   2.600  51.108  1.00  0.00     0.028 C 
HETATM   10  C17 UNL     1      25.623   1.334  51.839  1.00  0.00    -0.027 A 
HETATM   11  C18 UNL     1      26.883   0.772  51.911  1.00  0.00     0.012 A 
HETATM   12  C19 UNL     1      27.079  -0.410  52.589  1.00  0.00     0.001 A 
HETATM   13  C20 UNL     1      25.945  -0.931  53.151  1.00  0.00     0.001 A 
HETATM   14  C21 UNL     1      24.691  -0.383  53.087  1.00  0.00     0.010 A 
HETATM   15  C22 UNL     1      24.486   0.794  52.412  1.00  0.00    -0.024 A 
HETATM   16  S1  UNL     1      23.535   2.990  49.284  1.00  0.00    -0.073 SA
HETATM   17  C23 UNL     1      22.237   3.399  50.503  1.00  0.00     0.127 A 
HETATM   18  N3  UNL     1      20.970   3.370  50.197  1.00  0.00    -0.235 NA
HETATM   19  C24 UNL     1      20.223   3.715  51.380  1.00  0.00     0.231 A 
HETATM   20  N4  UNL     1      21.015   3.946  52.367  1.00  0.00    -0.244 NA
HETATM   21  H5  UNL     1      23.217   2.991  53.674  1.00  0.00     0.157 HD
ENDROOT
BRANCH   6  22
HETATM   22  C6  UNL     1      25.345   7.106  50.102  1.00  0.00     0.145 C 
BRANCH  22  23
HETATM   23  C7  UNL     1      25.260   7.372  48.657  1.00  0.00     0.003 C 
HETATM   24  C8  UNL     1      24.518   8.001  47.760  1.00  0.00    -0.024 A 
HETATM   25  C9  UNL     1      24.936   7.926  46.337  1.00  0.00     0.068 A 
HETATM   26  C13 UNL     1      23.327   8.746  48.148  1.00  0.00     0.071 A 
HETATM   27  C10 UNL     1      23.947   8.702  45.565  1.00  0.00    -0.022 A 
HETATM   28  C11 UNL     1      22.859   9.389  45.868  1.00  0.00    -0.001 A 
HETATM   29  C12 UNL     1      22.538   9.398  47.296  1.00  0.00     0.037 A 
BRANCH  26  30
HETATM   30  O2  UNL     1      22.896   8.847  49.442  1.00  0.00    -0.360 OA
HETATM   31  H18 UNL     1      22.718   9.695  49.942  1.00  0.00     0.217 HD
ENDBRANCH  26  30
ENDBRANCH  22  23
ENDBRANCH   6  22
BRANCH   1  32
HETATM   32  C1  UNL     1      22.028   0.781  52.781  1.00  0.00     0.193 C 
BRANCH  32  33
HETATM   33  O1  UNL     1      21.256   0.166  51.789  1.00  0.00    -0.399 OA
HETATM   34  H1  UNL     1      21.878  -0.210  51.130  1.00  0.00     0.209 HD
ENDBRANCH  32  33
ENDBRANCH   1  32
TORSDOF 5
ENDMDL
