MODEL 1
REMARK VINA RESULT:      -8.3      0.000      0.000
REMARK  6 active torsions:
REMARK  status: ('A' for Active; 'I' for Inactive)
REMARK    1  A    between atoms: C1_2  and  C2_3 
REMARK    2  A    between atoms: C3_4  and  C4_5 
REMARK    3  A    between atoms: C4_5  and  N1_6 
REMARK    4  A    between atoms: N1_6  and  C5_7 
REMARK    5  A    between atoms: C10_14  and  N4_15 
REMARK    6  A    between atoms: N4_15  and  C11_16 
ROOT
HETATM    1  C5  UNL     1      25.210   3.750  50.346  1.00  0.00     0.029 A 
HETATM    2  C6  UNL     1      24.159   3.609  49.440  1.00  0.00     0.031 A 
HETATM    3  C7  UNL     1      23.186   2.669  49.703  1.00  0.00     0.035 A 
HETATM    4  C8  UNL     1      23.254   1.892  50.833  1.00  0.00     0.072 A 
HETATM    5  N2  UNL     1      22.252   0.999  51.001  1.00  0.00    -0.241 NA
HETATM    6  C9  UNL     1      22.296   0.226  52.096  1.00  0.00     0.236 A 
HETATM    7  N3  UNL     1      23.288   0.336  52.984  1.00  0.00    -0.224 NA
HETATM    8  C10 UNL     1      24.305   1.190  52.886  1.00  0.00     0.142 A 
HETATM    9  C17 UNL     1      24.275   1.988  51.769  1.00  0.00     0.041 A 
HETATM   10  C18 UNL     1      25.203   2.932  51.453  1.00  0.00     0.046 A 
ENDROOT
BRANCH   8  11
HETATM   11  N4  UNL     1      25.365   1.329  53.809  1.00  0.00    -0.340 N 
HETATM   12  H8  UNL     1      25.286   1.876  54.687  1.00  0.00     0.167 HD
BRANCH  11  13
HETATM   13  C11 UNL     1      26.664   0.777  53.709  1.00  0.00     0.035 A 
HETATM   14  C12 UNL     1      27.809   1.517  53.884  1.00  0.00     0.032 A 
HETATM   15  C13 UNL     1      29.092   1.028  53.784  1.00  0.00     0.046 A 
HETATM   16  C14 UNL     1      29.285  -0.304  53.488  1.00  0.00     0.138 A 
HETATM   17  F1  UNL     1      30.490  -0.909  53.361  1.00  0.00    -0.204 F 
HETATM   18  C15 UNL     1      28.178  -1.101  53.301  1.00  0.00     0.074 A 
HETATM   19 CL1  UNL     1      28.342  -2.796  52.922  1.00  0.00    -0.081 Cl
HETATM   20  C16 UNL     1      26.930  -0.542  53.415  1.00  0.00     0.056 A 
ENDBRANCH  11  13
ENDBRANCH   8  11
BRANCH   1  21
HETATM   21  N1  UNL     1      26.219   4.698  50.111  1.00  0.00    -0.379 N 
HETATM   22  H4  UNL     1      26.838   4.996  50.903  1.00  0.00     0.160 HD
BRANCH  21  23
HETATM   23  C4  UNL     1      26.436   5.278  48.807  1.00  0.00     0.214 C 
BRANCH  23  24
HETATM   24  C3  UNL     1      27.881   5.418  48.521  1.00  0.00    -0.079 C 
HETATM   25  C2  UNL     1      29.053   5.533  48.270  1.00  0.00    -0.036 C 
BRANCH  25  26
HETATM   26  C1  UNL     1      30.459   5.695  47.971  1.00  0.00     0.323 C 
HETATM   27  O1  UNL     1      31.252   4.845  48.499  1.00  0.00    -0.293 OA
ENDBRANCH  25  26
ENDBRANCH  23  24
ENDBRANCH  21  23
ENDBRANCH   1  21
TORSDOF 6
ENDMDL
MODEL 2
REMARK VINA RESULT:      -8.3      1.378      2.012
REMARK  6 active torsions:
REMARK  status: ('A' for Active; 'I' for Inactive)
REMARK    1  A    between atoms: C1_2  and  C2_3 
REMARK    2  A    between atoms: C3_4  and  C4_5 
REMARK    3  A    between atoms: C4_5  and  N1_6 
REMARK    4  A    between atoms: N1_6  and  C5_7 
REMARK    5  A    between atoms: C10_14  and  N4_15 
REMARK    6  A    between atoms: N4_15  and  C11_16 
ROOT
HETATM    1  C5  UNL     1      23.049   2.253  50.142  1.00  0.00     0.029 A 
HETATM    2  C6  UNL     1      21.836   1.584  49.979  1.00  0.00     0.031 A 
HETATM    3  C7  UNL     1      21.485   0.626  50.906  1.00  0.00     0.035 A 
HETATM    4  C8  UNL     1      22.312   0.341  51.963  1.00  0.00     0.072 A 
HETATM    5  N2  UNL     1      21.879  -0.614  52.817  1.00  0.00    -0.241 NA
HETATM    6  C9  UNL     1      22.670  -0.913  53.857  1.00  0.00     0.236 A 
HETATM    7  N3  UNL     1      23.837  -0.291  54.043  1.00  0.00    -0.224 NA
HETATM    8  C10 UNL     1      24.328   0.657  53.247  1.00  0.00     0.142 A 
HETATM    9  C17 UNL     1      23.530   0.974  52.176  1.00  0.00     0.041 A 
HETATM   10  C18 UNL     1      23.820   1.907  51.228  1.00  0.00     0.046 A 
ENDROOT
BRANCH   8  11
HETATM   11  N4  UNL     1      25.557   1.332  53.420  1.00  0.00    -0.340 N 
HETATM   12  H8  UNL     1      25.633   2.365  53.488  1.00  0.00     0.167 HD
BRANCH  11  13
HETATM   13  C11 UNL     1      26.844   0.754  53.522  1.00  0.00     0.035 A 
HETATM   14  C12 UNL     1      27.961   1.467  53.889  1.00  0.00     0.032 A 
HETATM   15  C13 UNL     1      29.233   0.952  53.990  1.00  0.00     0.046 A 
HETATM   16  C14 UNL     1      29.445  -0.381  53.708  1.00  0.00     0.138 A 
HETATM   17  F1  UNL     1      30.643  -1.010  53.768  1.00  0.00    -0.204 F 
HETATM   18  C15 UNL     1      28.367  -1.151  53.334  1.00  0.00     0.074 A 
HETATM   19 CL1  UNL     1      28.557  -2.845  52.961  1.00  0.00    -0.081 Cl
HETATM   20  C16 UNL     1      27.128  -0.567  53.255  1.00  0.00     0.056 A 
ENDBRANCH  11  13
ENDBRANCH   8  11
BRANCH   1  21
HETATM   21  N1  UNL     1      23.441   3.235  49.218  1.00  0.00    -0.379 N 
HETATM   22  H4  UNL     1      23.535   2.980  48.205  1.00  0.00     0.160 HD
BRANCH  21  23
HETATM   23  C4  UNL     1      23.720   4.594  49.618  1.00  0.00     0.214 C 
BRANCH  23  24
HETATM   24  C3  UNL     1      25.091   4.992  49.228  1.00  0.00    -0.079 C 
HETATM   25  C2  UNL     1      26.214   5.302  48.923  1.00  0.00    -0.036 C 
BRANCH  25  26
HETATM   26  C1  UNL     1      27.562   5.658  48.540  1.00  0.00     0.323 C 
HETATM   27  O1  UNL     1      28.407   4.703  48.491  1.00  0.00    -0.293 OA
ENDBRANCH  25  26
ENDBRANCH  23  24
ENDBRANCH  21  23
ENDBRANCH   1  21
TORSDOF 6
ENDMDL
MODEL 3
REMARK VINA RESULT:      -8.3      1.213      1.550
REMARK  6 active torsions:
REMARK  status: ('A' for Active; 'I' for Inactive)
REMARK    1  A    between atoms: C1_2  and  C2_3 
REMARK    2  A    between atoms: C3_4  and  C4_5 
REMARK    3  A    between atoms: C4_5  and  N1_6 
REMARK    4  A    between atoms: N1_6  and  C5_7 
REMARK    5  A    between atoms: C10_14  and  N4_15 
REMARK    6  A    between atoms: N4_15  and  C11_16 
ROOT
HETATM    1  C5  UNL     1      24.897   3.670  50.183  1.00  0.00     0.029 A 
HETATM    2  C6  UNL     1      23.967   3.695  49.144  1.00  0.00     0.031 A 
HETATM    3  C7  UNL     1      22.898   2.827  49.198  1.00  0.00     0.035 A 
HETATM    4  C8  UNL     1      22.756   1.960  50.253  1.00  0.00     0.072 A 
HETATM    5  N2  UNL     1      21.674   1.149  50.214  1.00  0.00    -0.241 NA
HETATM    6  C9  UNL     1      21.513   0.290  51.231  1.00  0.00     0.236 A 
HETATM    7  N3  UNL     1      22.385   0.241  52.242  1.00  0.00    -0.224 NA
HETATM    8  C10 UNL     1      23.469   1.006  52.349  1.00  0.00     0.142 A 
HETATM    9  C17 UNL     1      23.649   1.891  51.314  1.00  0.00     0.041 A 
HETATM   10  C18 UNL     1      24.681   2.770  51.202  1.00  0.00     0.046 A 
ENDROOT
BRANCH   8  11
HETATM   11  N4  UNL     1      24.406   0.977  53.406  1.00  0.00    -0.340 N 
HETATM   12  H8  UNL     1      24.210   1.360  54.349  1.00  0.00     0.167 HD
BRANCH  11  13
HETATM   13  C11 UNL     1      25.718   0.447  53.372  1.00  0.00     0.035 A 
HETATM   14  C12 UNL     1      26.012  -0.798  52.869  1.00  0.00     0.032 A 
HETATM   15  C13 UNL     1      27.269  -1.359  52.827  1.00  0.00     0.046 A 
HETATM   16  C14 UNL     1      28.342  -0.648  53.319  1.00  0.00     0.138 A 
HETATM   17  F1  UNL     1      29.624  -1.083  53.338  1.00  0.00    -0.204 F 
HETATM   18  C15 UNL     1      28.114   0.607  53.838  1.00  0.00     0.074 A 
HETATM   19 CL1  UNL     1      29.422   1.567  54.480  1.00  0.00    -0.081 Cl
HETATM   20  C16 UNL     1      26.834   1.100  53.846  1.00  0.00     0.056 A 
ENDBRANCH  11  13
ENDBRANCH   8  11
BRANCH   1  21
HETATM   21  N1  UNL     1      26.000   4.540  50.163  1.00  0.00    -0.379 N 
HETATM   22  H4  UNL     1      26.682   4.524  50.959  1.00  0.00     0.160 HD
BRANCH  21  23
HETATM   23  C4  UNL     1      26.228   5.461  49.074  1.00  0.00     0.214 C 
BRANCH  23  24
HETATM   24  C3  UNL     1      27.650   5.460  48.668  1.00  0.00    -0.079 C 
HETATM   25  C2  UNL     1      28.804   5.470  48.321  1.00  0.00    -0.036 C 
BRANCH  25  26
HETATM   26  C1  UNL     1      30.192   5.502  47.916  1.00  0.00     0.323 C 
HETATM   27  O1  UNL     1      31.046   5.148  48.796  1.00  0.00    -0.293 OA
ENDBRANCH  25  26
ENDBRANCH  23  24
ENDBRANCH  21  23
ENDBRANCH   1  21
TORSDOF 6
ENDMDL
MODEL 4
REMARK VINA RESULT:      -8.2      4.389      7.432
REMARK  6 active torsions:
REMARK  status: ('A' for Active; 'I' for Inactive)
REMARK    1  A    between atoms: C1_2  and  C2_3 
REMARK    2  A    between atoms: C3_4  and  C4_5 
REMARK    3  A    between atoms: C4_5  and  N1_6 
REMARK    4  A    between atoms: N1_6  and  C5_7 
REMARK    5  A    between atoms: C10_14  and  N4_15 
REMARK    6  A    between atoms: N4_15  and  C11_16 
ROOT
HETATM    1  C5  UNL     1      24.442  -0.301  53.466  1.00  0.00     0.029 A 
HETATM    2  C6  UNL     1      24.984  -0.592  54.717  1.00  0.00     0.031 A 
HETATM    3  C7  UNL     1      26.200  -0.035  55.052  1.00  0.00     0.035 A 
HETATM    4  C8  UNL     1      26.857   0.787  54.172  1.00  0.00     0.072 A 
HETATM    5  N2  UNL     1      28.043   1.282  54.593  1.00  0.00    -0.241 NA
HETATM    6  C9  UNL     1      28.707   2.087  53.750  1.00  0.00     0.236 A 
HETATM    7  N3  UNL     1      28.216   2.387  52.545  1.00  0.00    -0.224 NA
HETATM    8  C10 UNL     1      27.058   1.938  52.063  1.00  0.00     0.142 A 
HETATM    9  C17 UNL     1      26.366   1.112  52.914  1.00  0.00     0.041 A 
HETATM   10  C18 UNL     1      25.166   0.532  52.643  1.00  0.00     0.046 A 
ENDROOT
BRANCH   8  11
HETATM   11  N4  UNL     1      26.514   2.239  50.795  1.00  0.00    -0.340 N 
HETATM   12  H8  UNL     1      26.368   1.526  50.056  1.00  0.00     0.167 HD
BRANCH  11  13
HETATM   13  C11 UNL     1      26.093   3.505  50.322  1.00  0.00     0.035 A 
HETATM   14  C12 UNL     1      26.769   4.207  49.352  1.00  0.00     0.032 A 
HETATM   15  C13 UNL     1      26.405   5.444  48.871  1.00  0.00     0.046 A 
HETATM   16  C14 UNL     1      25.281   6.061  49.377  1.00  0.00     0.138 A 
HETATM   17  F1  UNL     1      24.817   7.273  48.992  1.00  0.00    -0.204 F 
HETATM   18  C15 UNL     1      24.560   5.410  50.352  1.00  0.00     0.074 A 
HETATM   19 CL1  UNL     1      23.127   6.128  51.041  1.00  0.00    -0.081 Cl
HETATM   20  C16 UNL     1      24.984   4.179  50.783  1.00  0.00     0.056 A 
ENDBRANCH  11  13
ENDBRANCH   8  11
BRANCH   1  21
HETATM   21  N1  UNL     1      23.205  -0.850  53.089  1.00  0.00    -0.379 N 
HETATM   22  H4  UNL     1      23.174  -1.574  52.332  1.00  0.00     0.160 HD
BRANCH  21  23
HETATM   23  C4  UNL     1      21.968  -0.447  53.715  1.00  0.00     0.214 C 
BRANCH  23  24
HETATM   24  C3  UNL     1      21.499   0.849  53.178  1.00  0.00    -0.079 C 
HETATM   25  C2  UNL     1      21.107   1.907  52.757  1.00  0.00    -0.036 C 
BRANCH  25  26
HETATM   26  C1  UNL     1      20.654   3.189  52.262  1.00  0.00     0.323 C 
HETATM   27  O1  UNL     1      19.394   3.392  52.286  1.00  0.00    -0.293 OA
ENDBRANCH  25  26
ENDBRANCH  23  24
ENDBRANCH  21  23
ENDBRANCH   1  21
TORSDOF 6
ENDMDL
MODEL 5
REMARK VINA RESULT:      -8.1      3.002      4.462
REMARK  6 active torsions:
REMARK  status: ('A' for Active; 'I' for Inactive)
REMARK    1  A    between atoms: C1_2  and  C2_3 
REMARK    2  A    between atoms: C3_4  and  C4_5 
REMARK    3  A    between atoms: C4_5  and  N1_6 
REMARK    4  A    between atoms: N1_6  and  C5_7 
REMARK    5  A    between atoms: C10_14  and  N4_15 
REMARK    6  A    between atoms: N4_15  and  C11_16 
ROOT
HETATM    1  C5  UNL     1      21.000   0.549  51.652  1.00  0.00     0.029 A 
HETATM    2  C6  UNL     1      19.965   0.045  52.439  1.00  0.00     0.031 A 
HETATM    3  C7  UNL     1      20.287  -0.600  53.613  1.00  0.00     0.035 A 
HETATM    4  C8  UNL     1      21.597  -0.741  53.996  1.00  0.00     0.072 A 
HETATM    5  N2  UNL     1      21.810  -1.390  55.164  1.00  0.00    -0.241 NA
HETATM    6  C9  UNL     1      23.082  -1.542  55.559  1.00  0.00     0.236 A 
HETATM    7  N3  UNL     1      24.097  -1.070  54.830  1.00  0.00    -0.224 NA
HETATM    8  C10 UNL     1      23.965  -0.423  53.674  1.00  0.00     0.142 A 
HETATM    9  C17 UNL     1      22.668  -0.259  53.254  1.00  0.00     0.041 A 
HETATM   10  C18 UNL     1      22.285   0.366  52.108  1.00  0.00     0.046 A 
ENDROOT
BRANCH   8  11
HETATM   11  N4  UNL     1      25.019   0.087  52.883  1.00  0.00    -0.340 N 
HETATM   12  H8  UNL     1      24.864   0.642  52.019  1.00  0.00     0.167 HD
BRANCH  11  13
HETATM   13  C11 UNL     1      26.408  -0.059  53.109  1.00  0.00     0.035 A 
HETATM   14  C12 UNL     1      27.092  -1.223  52.853  1.00  0.00     0.032 A 
HETATM   15  C13 UNL     1      28.438  -1.416  53.068  1.00  0.00     0.046 A 
HETATM   16  C14 UNL     1      29.193  -0.384  53.582  1.00  0.00     0.138 A 
HETATM   17  F1  UNL     1      30.521  -0.442  53.842  1.00  0.00    -0.204 F 
HETATM   18  C15 UNL     1      28.567   0.810  53.862  1.00  0.00     0.074 A 
HETATM   19 CL1  UNL     1      29.456   2.162  54.515  1.00  0.00    -0.081 Cl
HETATM   20  C16 UNL     1      27.222   0.928  53.621  1.00  0.00     0.056 A 
ENDBRANCH  11  13
ENDBRANCH   8  11
BRANCH   1  21
HETATM   21  N1  UNL     1      20.710   1.213  50.449  1.00  0.00    -0.379 N 
HETATM   22  H4  UNL     1      19.867   1.834  50.395  1.00  0.00     0.160 HD
BRANCH  21  23
HETATM   23  C4  UNL     1      21.542   1.070  49.277  1.00  0.00     0.214 C 
BRANCH  23  24
HETATM   24  C3  UNL     1      22.484   2.204  49.153  1.00  0.00    -0.079 C 
HETATM   25  C2  UNL     1      23.257   3.124  49.071  1.00  0.00    -0.036 C 
BRANCH  25  26
HETATM   26  C1  UNL     1      24.202   4.213  48.964  1.00  0.00     0.323 C 
HETATM   27  O1  UNL     1      25.147   4.228  49.822  1.00  0.00    -0.293 OA
ENDBRANCH  25  26
ENDBRANCH  23  24
ENDBRANCH  21  23
ENDBRANCH   1  21
TORSDOF 6
ENDMDL
MODEL 6
REMARK VINA RESULT:      -8.1      2.901      5.478
REMARK  6 active torsions:
REMARK  status: ('A' for Active; 'I' for Inactive)
REMARK    1  A    between atoms: C1_2  and  C2_3 
REMARK    2  A    between atoms: C3_4  and  C4_5 
REMARK    3  A    between atoms: C4_5  and  N1_6 
REMARK    4  A    between atoms: N1_6  and  C5_7 
REMARK    5  A    between atoms: C10_14  and  N4_15 
REMARK    6  A    between atoms: N4_15  and  C11_16 
ROOT
HETATM    1  C5  UNL     1      21.980   1.741  52.007  1.00  0.00     0.029 A 
HETATM    2  C6  UNL     1      21.451   2.096  50.767  1.00  0.00     0.031 A 
HETATM    3  C7  UNL     1      22.287   2.678  49.839  1.00  0.00     0.035 A 
HETATM    4  C8  UNL     1      23.609   2.902  50.133  1.00  0.00     0.072 A 
HETATM    5  N2  UNL     1      24.346   3.479  49.157  1.00  0.00    -0.241 NA
HETATM    6  C9  UNL     1      25.640   3.710  49.420  1.00  0.00     0.236 A 
HETATM    7  N3  UNL     1      26.179   3.382  50.597  1.00  0.00    -0.224 NA
HETATM    8  C10 UNL     1      25.518   2.812  51.602  1.00  0.00     0.142 A 
HETATM    9  C17 UNL     1      24.190   2.569  51.350  1.00  0.00     0.041 A 
HETATM   10  C18 UNL     1      23.315   2.000  52.222  1.00  0.00     0.046 A 
ENDROOT
BRANCH   8  11
HETATM   11  N4  UNL     1      26.061   2.453  52.856  1.00  0.00    -0.340 N 
HETATM   12  H8  UNL     1      25.781   2.906  53.747  1.00  0.00     0.167 HD
BRANCH  11  13
HETATM   13  C11 UNL     1      27.038   1.463  53.114  1.00  0.00     0.035 A 
HETATM   14  C12 UNL     1      28.266   1.746  53.664  1.00  0.00     0.032 A 
HETATM   15  C13 UNL     1      29.252   0.820  53.921  1.00  0.00     0.046 A 
HETATM   16  C14 UNL     1      29.028  -0.506  53.617  1.00  0.00     0.138 A 
HETATM   17  F1  UNL     1      29.911  -1.513  53.817  1.00  0.00    -0.204 F 
HETATM   18  C15 UNL     1      27.817  -0.856  53.062  1.00  0.00     0.074 A 
HETATM   19 CL1  UNL     1      27.460  -2.512  52.650  1.00  0.00    -0.081 Cl
HETATM   20  C16 UNL     1      26.883   0.123  52.835  1.00  0.00     0.056 A 
ENDBRANCH  11  13
ENDBRANCH   8  11
BRANCH   1  21
HETATM   21  N1  UNL     1      21.159   1.145  52.978  1.00  0.00    -0.379 N 
HETATM   22  H4  UNL     1      20.557   1.752  53.585  1.00  0.00     0.160 HD
BRANCH  21  23
HETATM   23  C4  UNL     1      21.116  -0.286  53.170  1.00  0.00     0.214 C 
BRANCH  23  24
HETATM   24  C3  UNL     1      22.136  -0.721  54.151  1.00  0.00    -0.079 C 
HETATM   25  C2  UNL     1      22.966  -1.092  54.940  1.00  0.00    -0.036 C 
BRANCH  25  26
HETATM   26  C1  UNL     1      23.980  -1.531  55.873  1.00  0.00     0.323 C 
HETATM   27  O1  UNL     1      25.181  -1.192  55.605  1.00  0.00    -0.293 OA
ENDBRANCH  25  26
ENDBRANCH  23  24
ENDBRANCH  21  23
ENDBRANCH   1  21
TORSDOF 6
ENDMDL
MODEL 7
REMARK VINA RESULT:      -8.0      3.756      6.234
REMARK  6 active torsions:
REMARK  status: ('A' for Active; 'I' for Inactive)
REMARK    1  A    between atoms: C1_2  and  C2_3 
REMARK    2  A    between atoms: C3_4  and  C4_5 
REMARK    3  A    between atoms: C4_5  and  N1_6 
REMARK    4  A    between atoms: N1_6  and  C5_7 
REMARK    5  A    between atoms: C10_14  and  N4_15 
REMARK    6  A    between atoms: N4_15  and  C11_16 
ROOT
HETATM    1  C5  UNL     1      23.708  -0.673  54.144  1.00  0.00     0.029 A 
HETATM    2  C6  UNL     1      22.740  -1.231  54.978  1.00  0.00     0.031 A 
HETATM    3  C7  UNL     1      21.414  -1.091  54.630  1.00  0.00     0.035 A 
HETATM    4  C8  UNL     1      21.059  -0.419  53.487  1.00  0.00     0.072 A 
HETATM    5  N2  UNL     1      19.733  -0.337  53.234  1.00  0.00    -0.241 NA
HETATM    6  C9  UNL     1      19.359   0.317  52.124  1.00  0.00     0.236 A 
HETATM    7  N3  UNL     1      20.261   0.862  51.303  1.00  0.00    -0.224 NA
HETATM    8  C10 UNL     1      21.579   0.821  51.486  1.00  0.00     0.142 A 
HETATM    9  C17 UNL     1      21.978   0.156  52.619  1.00  0.00     0.041 A 
HETATM   10  C18 UNL     1      23.268  -0.015  53.018  1.00  0.00     0.046 A 
ENDROOT
BRANCH   8  11
HETATM   11  N4  UNL     1      22.554   1.387  50.635  1.00  0.00    -0.340 N 
HETATM   12  H8  UNL     1      22.952   0.888  49.817  1.00  0.00     0.167 HD
BRANCH  11  13
HETATM   13  C11 UNL     1      23.139   2.671  50.739  1.00  0.00     0.035 A 
HETATM   14  C12 UNL     1      22.650   3.654  51.565  1.00  0.00     0.032 A 
HETATM   15  C13 UNL     1      23.177   4.920  51.689  1.00  0.00     0.046 A 
HETATM   16  C14 UNL     1      24.282   5.267  50.942  1.00  0.00     0.138 A 
HETATM   17  F1  UNL     1      24.895   6.474  50.969  1.00  0.00    -0.204 F 
HETATM   18  C15 UNL     1      24.821   4.326  50.093  1.00  0.00     0.074 A 
HETATM   19 CL1  UNL     1      26.218   4.691  49.115  1.00  0.00    -0.081 Cl
HETATM   20  C16 UNL     1      24.241   3.085  50.022  1.00  0.00     0.056 A 
ENDBRANCH  11  13
ENDBRANCH   8  11
BRANCH   1  21
HETATM   21  N1  UNL     1      25.070  -0.794  54.466  1.00  0.00    -0.379 N 
HETATM   22  H4  UNL     1      25.359  -0.824  55.473  1.00  0.00     0.160 HD
BRANCH  21  23
HETATM   23  C4  UNL     1      26.091  -0.881  53.448  1.00  0.00     0.214 C 
BRANCH  23  24
HETATM   24  C3  UNL     1      27.032   0.257  53.544  1.00  0.00    -0.079 C 
HETATM   25  C2  UNL     1      27.803   1.181  53.602  1.00  0.00    -0.036 C 
BRANCH  25  26
HETATM   26  C1  UNL     1      28.711   2.305  53.666  1.00  0.00     0.323 C 
HETATM   27  O1  UNL     1      29.406   2.411  54.731  1.00  0.00    -0.293 OA
ENDBRANCH  25  26
ENDBRANCH  23  24
ENDBRANCH  21  23
ENDBRANCH   1  21
TORSDOF 6
ENDMDL
MODEL 8
REMARK VINA RESULT:      -7.6      3.604      6.276
REMARK  6 active torsions:
REMARK  status: ('A' for Active; 'I' for Inactive)
REMARK    1  A    between atoms: C1_2  and  C2_3 
REMARK    2  A    between atoms: C3_4  and  C4_5 
REMARK    3  A    between atoms: C4_5  and  N1_6 
REMARK    4  A    between atoms: N1_6  and  C5_7 
REMARK    5  A    between atoms: C10_14  and  N4_15 
REMARK    6  A    between atoms: N4_15  and  C11_16 
ROOT
HETATM    1  C5  UNL     1      23.853  -0.240  53.472  1.00  0.00     0.029 A 
HETATM    2  C6  UNL     1      22.593  -0.806  53.666  1.00  0.00     0.031 A 
HETATM    3  C7  UNL     1      21.480  -0.040  53.394  1.00  0.00     0.035 A 
HETATM    4  C8  UNL     1      21.613   1.249  52.942  1.00  0.00     0.072 A 
HETATM    5  N2  UNL     1      20.461   1.918  52.705  1.00  0.00    -0.241 NA
HETATM    6  C9  UNL     1      20.564   3.180  52.264  1.00  0.00     0.236 A 
HETATM    7  N3  UNL     1      21.754   3.752  52.067  1.00  0.00    -0.224 NA
HETATM    8  C10 UNL     1      22.927   3.158  52.278  1.00  0.00     0.142 A 
HETATM    9  C17 UNL     1      22.840   1.864  52.730  1.00  0.00     0.041 A 
HETATM   10  C18 UNL     1      23.898   1.058  53.017  1.00  0.00     0.046 A 
ENDROOT
BRANCH   8  11
HETATM   11  N4  UNL     1      24.200   3.737  52.077  1.00  0.00    -0.340 N 
HETATM   12  H8  UNL     1      24.986   3.627  52.745  1.00  0.00     0.167 HD
BRANCH  11  13
HETATM   13  C11 UNL     1      24.615   4.534  50.984  1.00  0.00     0.035 A 
HETATM   14  C12 UNL     1      23.861   5.566  50.479  1.00  0.00     0.032 A 
HETATM   15  C13 UNL     1      24.217   6.360  49.412  1.00  0.00     0.046 A 
HETATM   16  C14 UNL     1      25.416   6.132  48.772  1.00  0.00     0.138 A 
HETATM   17  F1  UNL     1      25.882   6.836  47.714  1.00  0.00    -0.204 F 
HETATM   18  C15 UNL     1      26.219   5.111  49.229  1.00  0.00     0.074 A 
HETATM   19 CL1  UNL     1      27.750   4.761  48.471  1.00  0.00    -0.081 Cl
HETATM   20  C16 UNL     1      25.797   4.362  50.298  1.00  0.00     0.056 A 
ENDBRANCH  11  13
ENDBRANCH   8  11
BRANCH   1  21
HETATM   21  N1  UNL     1      25.010  -0.989  53.738  1.00  0.00    -0.379 N 
HETATM   22  H4  UNL     1      25.067  -1.550  54.623  1.00  0.00     0.160 HD
BRANCH  21  23
HETATM   23  C4  UNL     1      26.131  -1.014  52.829  1.00  0.00     0.214 C 
BRANCH  23  24
HETATM   24  C3  UNL     1      27.257  -0.210  53.352  1.00  0.00    -0.079 C 
HETATM   25  C2  UNL     1      28.162   0.461  53.778  1.00  0.00    -0.036 C 
BRANCH  25  26
HETATM   26  C1  UNL     1      29.242   1.261  54.313  1.00  0.00     0.323 C 
HETATM   27  O1  UNL     1      29.028   2.517  54.396  1.00  0.00    -0.293 OA
ENDBRANCH  25  26
ENDBRANCH  23  24
ENDBRANCH  21  23
ENDBRANCH   1  21
TORSDOF 6
ENDMDL
MODEL 9
REMARK VINA RESULT:      -7.5      3.613      5.939
REMARK  6 active torsions:
REMARK  status: ('A' for Active; 'I' for Inactive)
REMARK    1  A    between atoms: C1_2  and  C2_3 
REMARK    2  A    between atoms: C3_4  and  C4_5 
REMARK    3  A    between atoms: C4_5  and  N1_6 
REMARK    4  A    between atoms: N1_6  and  C5_7 
REMARK    5  A    between atoms: C10_14  and  N4_15 
REMARK    6  A    between atoms: N4_15  and  C11_16 
ROOT
HETATM    1  C5  UNL     1      25.863   3.521  50.425  1.00  0.00     0.029 A 
HETATM    2  C6  UNL     1      26.035   4.768  49.823  1.00  0.00     0.031 A 
HETATM    3  C7  UNL     1      25.014   5.269  49.045  1.00  0.00     0.035 A 
HETATM    4  C8  UNL     1      23.855   4.554  48.871  1.00  0.00     0.072 A 
HETATM    5  N2  UNL     1      22.913   5.131  48.090  1.00  0.00    -0.241 NA
HETATM    6  C9  UNL     1      21.772   4.452  47.901  1.00  0.00     0.236 A 
HETATM    7  N3  UNL     1      21.574   3.258  48.464  1.00  0.00    -0.224 NA
HETATM    8  C10 UNL     1      22.452   2.629  49.243  1.00  0.00     0.142 A 
HETATM    9  C17 UNL     1      23.627   3.310  49.445  1.00  0.00     0.041 A 
HETATM   10  C18 UNL     1      24.671   2.871  50.199  1.00  0.00     0.046 A 
ENDROOT
BRANCH   8  11
HETATM   11  N4  UNL     1      22.270   1.367  49.851  1.00  0.00    -0.340 N 
HETATM   12  H8  UNL     1      22.396   0.470  49.346  1.00  0.00     0.167 HD
BRANCH  11  13
HETATM   13  C11 UNL     1      21.898   1.109  51.191  1.00  0.00     0.035 A 
HETATM   14  C12 UNL     1      20.732   1.577  51.750  1.00  0.00     0.032 A 
HETATM   15  C13 UNL     1      20.334   1.362  53.050  1.00  0.00     0.046 A 
HETATM   16  C14 UNL     1      21.142   0.625  53.890  1.00  0.00     0.138 A 
HETATM   17  F1  UNL     1      20.869   0.342  55.186  1.00  0.00    -0.204 F 
HETATM   18  C15 UNL     1      22.325   0.128  53.391  1.00  0.00     0.074 A 
HETATM   19 CL1  UNL     1      23.399  -0.813  54.393  1.00  0.00    -0.081 Cl
HETATM   20  C16 UNL     1      22.655   0.383  52.084  1.00  0.00     0.056 A 
ENDBRANCH  11  13
ENDBRANCH   8  11
BRANCH   1  21
HETATM   21  N1  UNL     1      26.882   2.978  51.224  1.00  0.00    -0.379 N 
HETATM   22  H4  UNL     1      27.873   3.008  50.884  1.00  0.00     0.160 HD
BRANCH  21  23
HETATM   23  C4  UNL     1      26.608   2.377  52.508  1.00  0.00     0.214 C 
BRANCH  23  24
HETATM   24  C3  UNL     1      26.663   0.901  52.425  1.00  0.00    -0.079 C 
HETATM   25  C2  UNL     1      26.690  -0.301  52.366  1.00  0.00    -0.036 C 
BRANCH  25  26
HETATM   26  C1  UNL     1      26.712  -1.745  52.272  1.00  0.00     0.323 C 
HETATM   27  O1  UNL     1      27.536  -2.349  53.038  1.00  0.00    -0.293 OA
ENDBRANCH  25  26
ENDBRANCH  23  24
ENDBRANCH  21  23
ENDBRANCH   1  21
TORSDOF 6
ENDMDL
