MODEL 1
REMARK VINA RESULT:      -8.8      0.000      0.000
REMARK  4 active torsions:
REMARK  status: ('A' for Active; 'I' for Inactive)
REMARK    1  A    between atoms: O1_1  and  C1_2 
REMARK    2  A    between atoms: C8_10  and  S1_11 
REMARK    3  A    between atoms: C8_10  and  C9_12 
REMARK    4  A    between atoms: N2_16  and  C13_17 
ROOT
HETATM    1  C9  UNL     1      24.745   0.693  52.664  1.00  0.00    -0.000 A 
HETATM    2  C10 UNL     1      23.373   0.629  52.621  1.00  0.00     0.014 A 
HETATM    3  C11 UNL     1      22.990   1.487  51.625  1.00  0.00     0.035 A 
HETATM    4  C12 UNL     1      24.040   2.120  51.006  1.00  0.00     0.088 A 
HETATM    5  N2  UNL     1      24.092   3.007  50.001  1.00  0.00    -0.233 N 
HETATM    6  N3  UNL     1      25.312   3.359  49.689  1.00  0.00    -0.160 NA
HETATM    7  C18 UNL     1      26.431   2.929  50.263  1.00  0.00     0.256 A 
HETATM    8  N4  UNL     1      26.413   2.047  51.267  1.00  0.00    -0.237 NA
HETATM    9  C19 UNL     1      25.207   1.589  51.698  1.00  0.00     0.095 A 
ENDROOT
BRANCH   1  10
HETATM   10  C8  UNL     1      25.781   0.044  53.503  1.00  0.00     0.099 C 
HETATM   11  C1  UNL     1      26.810   0.982  54.018  1.00  0.00     0.068 C 
HETATM   12  C2  UNL     1      28.144   0.983  54.190  1.00  0.00     0.034 C 
HETATM   13  C3  UNL     1      29.441   0.280  54.088  1.00  0.00     0.003 C 
HETATM   14  C4  UNL     1      29.877  -0.889  53.729  1.00  0.00     0.001 C 
HETATM   15  C5  UNL     1      29.683  -2.228  53.250  1.00  0.00     0.017 C 
HETATM   16  C6  UNL     1      28.474  -2.695  53.014  1.00  0.00     0.083 C 
HETATM   17  N1  UNL     1      27.508  -1.700  53.311  1.00  0.00    -0.397 N 
HETATM   18  C7  UNL     1      26.513  -0.974  52.630  1.00  0.00     0.151 C 
HETATM   19  H7  UNL     1      27.549  -1.443  54.341  1.00  0.00     0.158 HD
BRANCH  11  20
HETATM   20  O1  UNL     1      26.053   2.099  54.364  1.00  0.00    -0.363 OA
HETATM   21  H1  UNL     1      26.537   2.938  54.650  1.00  0.00     0.217 HD
ENDBRANCH  11  20
BRANCH  10  22
HETATM   22  S1  UNL     1      24.980  -0.706  54.933  1.00  0.00    -0.159 SA
HETATM   23  H10 UNL     1      25.094  -2.088  54.952  1.00  0.00     0.103 HD
ENDBRANCH  10  22
ENDBRANCH   1  10
BRANCH   5  24
HETATM   24  C13 UNL     1      22.918   3.548  49.367  1.00  0.00     0.059 A 
HETATM   25  C14 UNL     1      22.386   4.631  49.954  1.00  0.00     0.029 A 
HETATM   26  C15 UNL     1      21.213   5.114  49.261  1.00  0.00    -0.000 A 
HETATM   27  C16 UNL     1      21.042   4.297  48.247  1.00  0.00    -0.001 A 
HETATM   28  C17 UNL     1      22.086   3.208  48.195  1.00  0.00     0.157 A 
HETATM   29 CL1  UNL     1      21.273   1.628  48.420  1.00  0.00    -0.114 Cl
ENDBRANCH   5  24
TORSDOF 4
ENDMDL
MODEL 2
REMARK VINA RESULT:      -8.5      3.088      7.628
REMARK  4 active torsions:
REMARK  status: ('A' for Active; 'I' for Inactive)
REMARK    1  A    between atoms: O1_1  and  C1_2 
REMARK    2  A    between atoms: C8_10  and  S1_11 
REMARK    3  A    between atoms: C8_10  and  C9_12 
REMARK    4  A    between atoms: N2_16  and  C13_17 
ROOT
HETATM    1  C9  UNL     1      24.884   2.722  51.015  1.00  0.00    -0.000 A 
HETATM    2  C10 UNL     1      26.223   2.794  50.716  1.00  0.00     0.014 A 
HETATM    3  C11 UNL     1      26.803   1.720  51.337  1.00  0.00     0.035 A 
HETATM    4  C12 UNL     1      25.915   0.938  52.035  1.00  0.00     0.088 A 
HETATM    5  N2  UNL     1      26.072  -0.182  52.755  1.00  0.00    -0.233 N 
HETATM    6  N3  UNL     1      24.951  -0.634  53.254  1.00  0.00    -0.160 NA
HETATM    7  C18 UNL     1      23.746  -0.093  53.110  1.00  0.00     0.256 A 
HETATM    8  N4  UNL     1      23.555   1.024  52.401  1.00  0.00    -0.237 NA
HETATM    9  C19 UNL     1      24.638   1.606  51.819  1.00  0.00     0.095 A 
ENDROOT
BRANCH   1  10
HETATM   10  C8  UNL     1      23.708   3.561  50.683  1.00  0.00     0.099 C 
HETATM   11  C1  UNL     1      22.920   3.984  51.869  1.00  0.00     0.068 C 
HETATM   12  C2  UNL     1      21.620   4.109  52.195  1.00  0.00     0.034 C 
HETATM   13  C3  UNL     1      20.196   4.005  51.810  1.00  0.00     0.003 C 
HETATM   14  C4  UNL     1      19.503   3.702  50.756  1.00  0.00     0.001 C 
HETATM   15  C5  UNL     1      19.385   3.310  49.379  1.00  0.00     0.017 C 
HETATM   16  C6  UNL     1      20.454   3.143  48.627  1.00  0.00     0.083 C 
HETATM   17  N1  UNL     1      21.621   3.414  49.385  1.00  0.00    -0.397 N 
HETATM   18  C7  UNL     1      22.772   2.726  49.811  1.00  0.00     0.151 C 
HETATM   19  H7  UNL     1      21.623   4.425  49.712  1.00  0.00     0.158 HD
BRANCH  11  20
HETATM   20  O1  UNL     1      23.913   4.289  52.797  1.00  0.00    -0.363 OA
HETATM   21  H1  UNL     1      24.877   4.130  52.540  1.00  0.00     0.217 HD
ENDBRANCH  11  20
BRANCH  10  22
HETATM   22  S1  UNL     1      24.280   5.060  49.862  1.00  0.00    -0.159 SA
HETATM   23  H10 UNL     1      25.621   5.008  49.516  1.00  0.00     0.103 HD
ENDBRANCH  10  22
ENDBRANCH   1  10
BRANCH   5  24
HETATM   24  C13 UNL     1      27.354  -0.794  52.988  1.00  0.00     0.059 A 
HETATM   25  C14 UNL     1      27.415  -2.118  52.775  1.00  0.00     0.029 A 
HETATM   26  C15 UNL     1      28.730  -2.658  53.031  1.00  0.00    -0.000 A 
HETATM   27  C16 UNL     1      29.464  -1.636  53.410  1.00  0.00    -0.001 A 
HETATM   28  C17 UNL     1      28.686  -0.342  53.439  1.00  0.00     0.157 A 
HETATM   29 CL1  UNL     1      28.627   0.249  55.129  1.00  0.00    -0.114 Cl
ENDBRANCH   5  24
TORSDOF 4
ENDMDL
MODEL 3
REMARK VINA RESULT:      -8.3      2.682      3.437
REMARK  4 active torsions:
REMARK  status: ('A' for Active; 'I' for Inactive)
REMARK    1  A    between atoms: O1_1  and  C1_2 
REMARK    2  A    between atoms: C8_10  and  S1_11 
REMARK    3  A    between atoms: C8_10  and  C9_12 
REMARK    4  A    between atoms: N2_16  and  C13_17 
ROOT
HETATM    1  C9  UNL     1      24.560   0.554  53.109  1.00  0.00    -0.000 A 
HETATM    2  C10 UNL     1      24.395   1.518  52.144  1.00  0.00     0.014 A 
HETATM    3  C11 UNL     1      23.050   1.575  51.898  1.00  0.00     0.035 A 
HETATM    4  C12 UNL     1      22.312   0.695  52.651  1.00  0.00     0.088 A 
HETATM    5  N2  UNL     1      20.996   0.448  52.719  1.00  0.00    -0.233 N 
HETATM    6  N3  UNL     1      20.689  -0.474  53.593  1.00  0.00    -0.160 NA
HETATM    7  C18 UNL     1      21.536  -1.142  54.368  1.00  0.00     0.256 A 
HETATM    8  N4  UNL     1      22.854  -0.922  54.325  1.00  0.00    -0.237 NA
HETATM    9  C19 UNL     1      23.319   0.016  53.457  1.00  0.00     0.095 A 
ENDROOT
BRANCH   1  10
HETATM   10  C8  UNL     1      25.738  -0.013  53.807  1.00  0.00     0.099 C 
HETATM   11  C1  UNL     1      26.806   0.980  54.084  1.00  0.00     0.068 C 
HETATM   12  C2  UNL     1      28.150   1.022  54.035  1.00  0.00     0.034 C 
HETATM   13  C3  UNL     1      29.436   0.341  53.768  1.00  0.00     0.003 C 
HETATM   14  C4  UNL     1      29.845  -0.840  53.420  1.00  0.00     0.001 C 
HETATM   15  C5  UNL     1      29.620  -2.214  53.068  1.00  0.00     0.017 C 
HETATM   16  C6  UNL     1      28.404  -2.721  53.064  1.00  0.00     0.083 C 
HETATM   17  N1  UNL     1      27.467  -1.729  53.450  1.00  0.00    -0.397 N 
HETATM   18  C7  UNL     1      26.353  -1.074  52.895  1.00  0.00     0.151 C 
HETATM   19  H7  UNL     1      27.666  -1.400  54.440  1.00  0.00     0.158 HD
BRANCH  11  20
HETATM   20  O1  UNL     1      26.079   2.103  54.477  1.00  0.00    -0.363 OA
HETATM   21  H1  UNL     1      26.369   2.597  55.309  1.00  0.00     0.217 HD
ENDBRANCH  11  20
BRANCH  10  22
HETATM   22  S1  UNL     1      25.205  -0.679  55.396  1.00  0.00    -0.159 SA
HETATM   23  H10 UNL     1      26.026  -0.295  56.444  1.00  0.00     0.103 HD
ENDBRANCH  10  22
ENDBRANCH   1  10
BRANCH   5  24
HETATM   24  C13 UNL     1      20.028   1.103  51.877  1.00  0.00     0.059 A 
HETATM   25  C14 UNL     1      19.741   0.477  50.725  1.00  0.00     0.029 A 
HETATM   26  C15 UNL     1      18.765   1.194  49.936  1.00  0.00    -0.000 A 
HETATM   27  C16 UNL     1      18.472   2.270  50.630  1.00  0.00    -0.001 A 
HETATM   28  C17 UNL     1      19.237   2.350  51.930  1.00  0.00     0.157 A 
HETATM   29 CL1  UNL     1      20.301   3.789  51.878  1.00  0.00    -0.114 Cl
ENDBRANCH   5  24
TORSDOF 4
ENDMDL
MODEL 4
REMARK VINA RESULT:      -7.8      2.890      7.544
REMARK  4 active torsions:
REMARK  status: ('A' for Active; 'I' for Inactive)
REMARK    1  A    between atoms: O1_1  and  C1_2 
REMARK    2  A    between atoms: C8_10  and  S1_11 
REMARK    3  A    between atoms: C8_10  and  C9_12 
REMARK    4  A    between atoms: N2_16  and  C13_17 
ROOT
HETATM    1  C9  UNL     1      23.151   2.548  51.512  1.00  0.00    -0.000 A 
HETATM    2  C10 UNL     1      23.071   1.876  52.707  1.00  0.00     0.014 A 
HETATM    3  C11 UNL     1      24.364   1.623  53.081  1.00  0.00     0.035 A 
HETATM    4  C12 UNL     1      25.299   2.093  52.191  1.00  0.00     0.088 A 
HETATM    5  N2  UNL     1      26.639   2.060  52.190  1.00  0.00    -0.233 N 
HETATM    6  N3  UNL     1      27.168   2.647  51.148  1.00  0.00    -0.160 NA
HETATM    7  C18 UNL     1      26.511   3.232  50.152  1.00  0.00     0.256 A 
HETATM    8  N4  UNL     1      25.175   3.281  50.122  1.00  0.00    -0.237 NA
HETATM    9  C19 UNL     1      24.490   2.710  51.148  1.00  0.00     0.095 A 
ENDROOT
BRANCH   1  10
HETATM   10  C8  UNL     1      22.146   3.096  50.569  1.00  0.00     0.099 C 
HETATM   11  C1  UNL     1      21.981   2.288  49.334  1.00  0.00     0.068 C 
HETATM   12  C2  UNL     1      21.824   2.521  48.018  1.00  0.00     0.034 C 
HETATM   13  C3  UNL     1      21.687   3.483  46.903  1.00  0.00     0.003 C 
HETATM   14  C4  UNL     1      21.633   4.770  46.743  1.00  0.00     0.001 C 
HETATM   15  C5  UNL     1      21.632   6.116  47.243  1.00  0.00     0.017 C 
HETATM   16  C6  UNL     1      21.693   6.360  48.536  1.00  0.00     0.083 C 
HETATM   17  N1  UNL     1      21.745   5.137  49.253  1.00  0.00    -0.397 N 
HETATM   18  C7  UNL     1      22.627   4.477  50.128  1.00  0.00     0.151 C 
HETATM   19  H7  UNL     1      20.862   4.572  49.082  1.00  0.00     0.158 HD
BRANCH  11  20
HETATM   20  O1  UNL     1      22.028   0.983  49.819  1.00  0.00    -0.363 OA
HETATM   21  H1  UNL     1      22.611   0.789  50.621  1.00  0.00     0.217 HD
ENDBRANCH  11  20
BRANCH  10  22
HETATM   22  S1  UNL     1      20.544   3.142  51.394  1.00  0.00    -0.159 SA
HETATM   23  H10 UNL     1      20.119   4.431  51.676  1.00  0.00     0.103 HD
ENDBRANCH  10  22
ENDBRANCH   1  10
BRANCH   5  24
HETATM   24  C13 UNL     1      27.411   1.404  53.213  1.00  0.00     0.059 A 
HETATM   25  C14 UNL     1      28.561   2.008  53.553  1.00  0.00     0.029 A 
HETATM   26  C15 UNL     1      29.277   1.290  54.582  1.00  0.00    -0.000 A 
HETATM   27  C16 UNL     1      28.543   0.236  54.854  1.00  0.00    -0.001 A 
HETATM   28  C17 UNL     1      27.286   0.172  54.020  1.00  0.00     0.157 A 
HETATM   29 CL1  UNL     1      27.362  -1.286  52.983  1.00  0.00    -0.114 Cl
ENDBRANCH   5  24
TORSDOF 4
ENDMDL
MODEL 5
REMARK VINA RESULT:      -7.7      1.650      2.328
REMARK  4 active torsions:
REMARK  status: ('A' for Active; 'I' for Inactive)
REMARK    1  A    between atoms: O1_1  and  C1_2 
REMARK    2  A    between atoms: C8_10  and  S1_11 
REMARK    3  A    between atoms: C8_10  and  C9_12 
REMARK    4  A    between atoms: N2_16  and  C13_17 
ROOT
HETATM    1  C9  UNL     1      25.843   1.836  51.797  1.00  0.00    -0.000 A 
HETATM    2  C10 UNL     1      26.334   2.814  50.965  1.00  0.00     0.014 A 
HETATM    3  C11 UNL     1      25.258   3.275  50.254  1.00  0.00     0.035 A 
HETATM    4  C12 UNL     1      24.076   2.651  50.572  1.00  0.00     0.088 A 
HETATM    5  N2  UNL     1      22.823   2.811  50.125  1.00  0.00    -0.233 N 
HETATM    6  N3  UNL     1      21.963   2.017  50.707  1.00  0.00    -0.160 NA
HETATM    7  C18 UNL     1      22.228   1.118  51.649  1.00  0.00     0.256 A 
HETATM    8  N4  UNL     1      23.467   0.932  52.116  1.00  0.00    -0.237 NA
HETATM    9  C19 UNL     1      24.468   1.694  51.600  1.00  0.00     0.095 A 
ENDROOT
BRANCH   1  10
HETATM   10  C8  UNL     1      26.457   0.935  52.801  1.00  0.00     0.099 C 
HETATM   11  C1  UNL     1      27.730   1.449  53.368  1.00  0.00     0.068 C 
HETATM   12  C2  UNL     1      28.934   0.948  53.701  1.00  0.00     0.034 C 
HETATM   13  C3  UNL     1      29.843  -0.213  53.810  1.00  0.00     0.003 C 
HETATM   14  C4  UNL     1      29.801  -1.492  53.594  1.00  0.00     0.001 C 
HETATM   15  C5  UNL     1      29.126  -2.695  53.194  1.00  0.00     0.017 C 
HETATM   16  C6  UNL     1      27.855  -2.675  52.846  1.00  0.00     0.083 C 
HETATM   17  N1  UNL     1      27.349  -1.354  52.950  1.00  0.00    -0.397 N 
HETATM   18  C7  UNL     1      26.790  -0.382  52.101  1.00  0.00     0.151 C 
HETATM   19  H7  UNL     1      27.404  -1.017  53.955  1.00  0.00     0.158 HD
BRANCH  11  20
HETATM   20  O1  UNL     1      27.459   2.805  53.536  1.00  0.00    -0.363 OA
HETATM   21  H1  UNL     1      26.817   3.080  54.266  1.00  0.00     0.217 HD
ENDBRANCH  11  20
BRANCH  10  22
HETATM   22  S1  UNL     1      25.308   0.729  54.174  1.00  0.00    -0.159 SA
HETATM   23  H10 UNL     1      25.752   1.325  55.344  1.00  0.00     0.103 HD
ENDBRANCH  10  22
ENDBRANCH   1  10
BRANCH   5  24
HETATM   24  C13 UNL     1      22.474   3.733  49.076  1.00  0.00     0.059 A 
HETATM   25  C14 UNL     1      22.447   3.221  47.835  1.00  0.00     0.029 A 
HETATM   26  C15 UNL     1      22.090   4.206  46.840  1.00  0.00    -0.000 A 
HETATM   27  C16 UNL     1      21.907   5.326  47.501  1.00  0.00    -0.001 A 
HETATM   28  C17 UNL     1      22.136   5.169  48.985  1.00  0.00     0.157 A 
HETATM   29 CL1  UNL     1      23.530   6.188  49.458  1.00  0.00    -0.114 Cl
ENDBRANCH   5  24
TORSDOF 4
ENDMDL
MODEL 6
REMARK VINA RESULT:      -7.7      3.628      8.182
REMARK  4 active torsions:
REMARK  status: ('A' for Active; 'I' for Inactive)
REMARK    1  A    between atoms: O1_1  and  C1_2 
REMARK    2  A    between atoms: C8_10  and  S1_11 
REMARK    3  A    between atoms: C8_10  and  C9_12 
REMARK    4  A    between atoms: N2_16  and  C13_17 
ROOT
HETATM    1  C9  UNL     1      25.315   4.872  49.698  1.00  0.00    -0.000 A 
HETATM    2  C10 UNL     1      26.514   4.268  49.405  1.00  0.00     0.014 A 
HETATM    3  C11 UNL     1      26.606   3.192  50.245  1.00  0.00     0.035 A 
HETATM    4  C12 UNL     1      25.528   3.051  51.085  1.00  0.00     0.088 A 
HETATM    5  N2  UNL     1      25.232   2.145  52.028  1.00  0.00    -0.233 N 
HETATM    6  N3  UNL     1      24.076   2.358  52.601  1.00  0.00    -0.160 NA
HETATM    7  C18 UNL     1      23.231   3.348  52.332  1.00  0.00     0.256 A 
HETATM    8  N4  UNL     1      23.497   4.268  51.400  1.00  0.00    -0.237 NA
HETATM    9  C19 UNL     1      24.669   4.170  50.718  1.00  0.00     0.095 A 
ENDROOT
BRANCH   1  10
HETATM   10  C8  UNL     1      24.613   6.072  49.184  1.00  0.00     0.099 C 
HETATM   11  C1  UNL     1      24.107   6.973  50.250  1.00  0.00     0.068 C 
HETATM   12  C2  UNL     1      22.996   7.695  50.485  1.00  0.00     0.034 C 
HETATM   13  C3  UNL     1      21.660   8.154  50.047  1.00  0.00     0.003 C 
HETATM   14  C4  UNL     1      20.885   8.016  49.015  1.00  0.00     0.001 C 
HETATM   15  C5  UNL     1      20.584   7.502  47.708  1.00  0.00     0.017 C 
HETATM   16  C6  UNL     1      21.462   6.775  47.046  1.00  0.00     0.083 C 
HETATM   17  N1  UNL     1      22.645   6.634  47.815  1.00  0.00    -0.397 N 
HETATM   18  C7  UNL     1      23.392   5.594  48.399  1.00  0.00     0.151 C 
HETATM   19  H7  UNL     1      23.090   7.583  47.986  1.00  0.00     0.158 HD
BRANCH  11  20
HETATM   20  O1  UNL     1      25.151   6.964  51.173  1.00  0.00    -0.363 OA
HETATM   21  H1  UNL     1      26.085   7.165  50.844  1.00  0.00     0.217 HD
ENDBRANCH  11  20
BRANCH  10  22
HETATM   22  S1  UNL     1      25.763   7.029  48.179  1.00  0.00    -0.159 SA
HETATM   23  H10 UNL     1      26.448   7.988  48.908  1.00  0.00     0.103 HD
ENDBRANCH  10  22
ENDBRANCH   1  10
BRANCH   5  24
HETATM   24  C13 UNL     1      26.122   1.076  52.400  1.00  0.00     0.059 A 
HETATM   25  C14 UNL     1      25.531  -0.075  52.758  1.00  0.00     0.029 A 
HETATM   26  C15 UNL     1      26.488  -1.097  53.117  1.00  0.00    -0.000 A 
HETATM   27  C16 UNL     1      27.669  -0.541  52.975  1.00  0.00    -0.001 A 
HETATM   28  C17 UNL     1      27.584   0.896  52.517  1.00  0.00     0.157 A 
HETATM   29 CL1  UNL     1      28.260   1.945  53.801  1.00  0.00    -0.114 Cl
ENDBRANCH   5  24
TORSDOF 4
ENDMDL
MODEL 7
REMARK VINA RESULT:      -7.4      6.635      9.192
REMARK  4 active torsions:
REMARK  status: ('A' for Active; 'I' for Inactive)
REMARK    1  A    between atoms: O1_1  and  C1_2 
REMARK    2  A    between atoms: C8_10  and  S1_11 
REMARK    3  A    between atoms: C8_10  and  C9_12 
REMARK    4  A    between atoms: N2_16  and  C13_17 
ROOT
HETATM    1  C9  UNL     1      28.636   7.001  48.194  1.00  0.00    -0.000 A 
HETATM    2  C10 UNL     1      28.701   5.635  48.060  1.00  0.00     0.014 A 
HETATM    3  C11 UNL     1      27.542   5.150  48.604  1.00  0.00     0.035 A 
HETATM    4  C12 UNL     1      26.710   6.127  49.095  1.00  0.00     0.088 A 
HETATM    5  N2  UNL     1      25.506   6.075  49.683  1.00  0.00    -0.233 N 
HETATM    6  N3  UNL     1      25.033   7.254  49.992  1.00  0.00    -0.160 NA
HETATM    7  C18 UNL     1      25.626   8.424  49.781  1.00  0.00     0.256 A 
HETATM    8  N4  UNL     1      26.826   8.511  49.199  1.00  0.00    -0.237 NA
HETATM    9  C19 UNL     1      27.440   7.359  48.820  1.00  0.00     0.095 A 
ENDROOT
BRANCH   1  10
HETATM   10  C8  UNL     1      29.547   8.115  47.839  1.00  0.00     0.099 C 
HETATM   11  C1  UNL     1      30.281   8.682  48.998  1.00  0.00     0.068 C 
HETATM   12  C2  UNL     1      30.634   9.903  49.439  1.00  0.00     0.034 C 
HETATM   13  C3  UNL     1      30.648  11.370  49.250  1.00  0.00     0.003 C 
HETATM   14  C4  UNL     1      30.249  12.230  48.364  1.00  0.00     0.001 C 
HETATM   15  C5  UNL     1      29.629  12.579  47.116  1.00  0.00     0.017 C 
HETATM   16  C6  UNL     1      29.188  11.648  46.295  1.00  0.00     0.083 C 
HETATM   17  N1  UNL     1      29.438  10.364  46.845  1.00  0.00    -0.397 N 
HETATM   18  C7  UNL     1      28.695   9.246  47.264  1.00  0.00     0.151 C 
HETATM   19  H7  UNL     1      30.483  10.210  46.960  1.00  0.00     0.158 HD
BRANCH  11  20
HETATM   20  O1  UNL     1      30.620   7.543  49.727  1.00  0.00    -0.363 OA
HETATM   21  H1  UNL     1      30.317   6.644  49.381  1.00  0.00     0.217 HD
ENDBRANCH  11  20
BRANCH  10  22
HETATM   22  S1  UNL     1      30.780   7.505  46.674  1.00  0.00    -0.159 SA
HETATM   23  H10 UNL     1      31.901   6.982  47.300  1.00  0.00     0.103 HD
ENDBRANCH  10  22
ENDBRANCH   1  10
BRANCH   5  24
HETATM   24  C13 UNL     1      24.829   4.840  49.982  1.00  0.00     0.059 A 
HETATM   25  C14 UNL     1      24.164   4.278  48.961  1.00  0.00     0.029 A 
HETATM   26  C15 UNL     1      23.512   3.045  49.339  1.00  0.00    -0.000 A 
HETATM   27  C16 UNL     1      23.790   2.875  50.611  1.00  0.00    -0.001 A 
HETATM   28  C17 UNL     1      24.643   3.987  51.174  1.00  0.00     0.157 A 
HETATM   29 CL1  UNL     1      23.704   4.842  52.437  1.00  0.00    -0.114 Cl
ENDBRANCH   5  24
TORSDOF 4
ENDMDL
MODEL 8
REMARK VINA RESULT:      -7.3      4.871      7.123
REMARK  4 active torsions:
REMARK  status: ('A' for Active; 'I' for Inactive)
REMARK    1  A    between atoms: O1_1  and  C1_2 
REMARK    2  A    between atoms: C8_10  and  S1_11 
REMARK    3  A    between atoms: C8_10  and  C9_12 
REMARK    4  A    between atoms: N2_16  and  C13_17 
ROOT
HETATM    1  C9  UNL     1      24.284   6.307  50.177  1.00  0.00    -0.000 A 
HETATM    2  C10 UNL     1      24.334   7.675  50.053  1.00  0.00     0.014 A 
HETATM    3  C11 UNL     1      25.542   7.953  49.471  1.00  0.00     0.035 A 
HETATM    4  C12 UNL     1      26.298   6.837  49.204  1.00  0.00     0.088 A 
HETATM    5  N2  UNL     1      27.506   6.679  48.645  1.00  0.00    -0.233 N 
HETATM    6  N3  UNL     1      27.871   5.427  48.554  1.00  0.00    -0.160 NA
HETATM    7  C18 UNL     1      27.174   4.369  48.954  1.00  0.00     0.256 A 
HETATM    8  N4  UNL     1      25.967   4.492  49.517  1.00  0.00    -0.237 NA
HETATM    9  C19 UNL     1      25.458   5.742  49.674  1.00  0.00     0.095 A 
ENDROOT
BRANCH   1  10
HETATM   10  C8  UNL     1      23.286   5.359  50.728  1.00  0.00     0.099 C 
HETATM   11  C1  UNL     1      23.663   4.790  52.046  1.00  0.00     0.068 C 
HETATM   12  C2  UNL     1      23.609   3.591  52.654  1.00  0.00     0.034 C 
HETATM   13  C3  UNL     1      23.229   2.162  52.619  1.00  0.00     0.003 C 
HETATM   14  C4  UNL     1      22.646   1.341  51.800  1.00  0.00     0.001 C 
HETATM   15  C5  UNL     1      21.991   1.029  50.561  1.00  0.00     0.017 C 
HETATM   16  C6  UNL     1      21.757   1.965  49.663  1.00  0.00     0.083 C 
HETATM   17  N1  UNL     1      22.231   3.214  50.137  1.00  0.00    -0.397 N 
HETATM   18  C7  UNL     1      23.178   4.183  49.758  1.00  0.00     0.151 C 
HETATM   19  H7  UNL     1      21.714   3.493  51.022  1.00  0.00     0.158 HD
BRANCH  11  20
HETATM   20  O1  UNL     1      24.202   5.892  52.707  1.00  0.00    -0.363 OA
HETATM   21  H1  UNL     1      24.397   5.813  53.695  1.00  0.00     0.217 HD
ENDBRANCH  11  20
BRANCH  10  22
HETATM   22  S1  UNL     1      21.723   6.229  50.951  1.00  0.00    -0.159 SA
HETATM   23  H10 UNL     1      21.263   6.820  49.784  1.00  0.00     0.103 HD
ENDBRANCH  10  22
ENDBRANCH   1  10
BRANCH   5  24
HETATM   24  C13 UNL     1      28.332   7.783  48.232  1.00  0.00     0.059 A 
HETATM   25  C14 UNL     1      28.119   8.236  46.987  1.00  0.00     0.029 A 
HETATM   26  C15 UNL     1      28.985   9.342  46.646  1.00  0.00    -0.000 A 
HETATM   27  C16 UNL     1      29.732   9.545  47.707  1.00  0.00    -0.001 A 
HETATM   28  C17 UNL     1      29.421   8.585  48.830  1.00  0.00     0.157 A 
HETATM   29 CL1  UNL     1      30.869   7.576  49.135  1.00  0.00    -0.114 Cl
ENDBRANCH   5  24
TORSDOF 4
ENDMDL
MODEL 9
REMARK VINA RESULT:      -7.3      5.236      8.794
REMARK  4 active torsions:
REMARK  status: ('A' for Active; 'I' for Inactive)
REMARK    1  A    between atoms: O1_1  and  C1_2 
REMARK    2  A    between atoms: C8_10  and  S1_11 
REMARK    3  A    between atoms: C8_10  and  C9_12 
REMARK    4  A    between atoms: N2_16  and  C13_17 
ROOT
HETATM    1  C9  UNL     1      26.840   6.184  48.603  1.00  0.00    -0.000 A 
HETATM    2  C10 UNL     1      27.575   5.025  48.528  1.00  0.00     0.014 A 
HETATM    3  C11 UNL     1      26.960   4.137  49.369  1.00  0.00     0.035 A 
HETATM    4  C12 UNL     1      25.852   4.650  50.001  1.00  0.00     0.088 A 
HETATM    5  N2  UNL     1      24.985   4.117  50.873  1.00  0.00    -0.233 N 
HETATM    6  N3  UNL     1      24.039   4.947  51.229  1.00  0.00    -0.160 NA
HETATM    7  C18 UNL     1      23.889   6.200  50.816  1.00  0.00     0.256 A 
HETATM    8  N4  UNL     1      24.737   6.762  49.948  1.00  0.00    -0.237 NA
HETATM    9  C19 UNL     1      25.774   6.012  49.489  1.00  0.00     0.095 A 
ENDROOT
BRANCH   1  10
HETATM   10  C8  UNL     1      26.958   7.521  47.973  1.00  0.00     0.099 C 
HETATM   11  C1  UNL     1      26.965   8.643  48.946  1.00  0.00     0.068 C 
HETATM   12  C2  UNL     1      26.428   9.873  49.035  1.00  0.00     0.034 C 
HETATM   13  C3  UNL     1      25.605  10.949  48.441  1.00  0.00     0.003 C 
HETATM   14  C4  UNL     1      24.957  11.167  47.338  1.00  0.00     0.001 C 
HETATM   15  C5  UNL     1      24.512  10.788  46.026  1.00  0.00     0.017 C 
HETATM   16  C6  UNL     1      24.882   9.644  45.488  1.00  0.00     0.083 C 
HETATM   17  N1  UNL     1      25.732   8.945  46.384  1.00  0.00    -0.397 N 
HETATM   18  C7  UNL     1      25.735   7.723  47.081  1.00  0.00     0.151 C 
HETATM   19  H7  UNL     1      26.615   9.506  46.566  1.00  0.00     0.158 HD
BRANCH  11  20
HETATM   20  O1  UNL     1      27.763   8.145  49.975  1.00  0.00    -0.363 OA
HETATM   21  H1  UNL     1      27.501   8.349  50.928  1.00  0.00     0.217 HD
ENDBRANCH  11  20
BRANCH  10  22
HETATM   22  S1  UNL     1      28.512   7.596  47.062  1.00  0.00    -0.159 SA
HETATM   23  H10 UNL     1      29.419   6.627  47.461  1.00  0.00     0.103 HD
ENDBRANCH  10  22
ENDBRANCH   1  10
BRANCH   5  24
HETATM   24  C13 UNL     1      25.114   2.782  51.396  1.00  0.00     0.059 A 
HETATM   25  C14 UNL     1      24.006   2.262  51.947  1.00  0.00     0.029 A 
HETATM   26  C15 UNL     1      24.215   0.923  52.448  1.00  0.00    -0.000 A 
HETATM   27  C16 UNL     1      25.473   0.645  52.197  1.00  0.00    -0.001 A 
HETATM   28  C17 UNL     1      26.195   1.782  51.515  1.00  0.00     0.157 A 
HETATM   29 CL1  UNL     1      27.495   2.366  52.600  1.00  0.00    -0.114 Cl
ENDBRANCH   5  24
TORSDOF 4
ENDMDL
