MODEL 1
REMARK VINA RESULT:      -8.5      0.000      0.000
REMARK  7 active torsions:
REMARK  status: ('A' for Active; 'I' for Inactive)
REMARK    1  A    between atoms: C2_2  and  C3_3 
REMARK    2  A    between atoms: C2_2  and  N3_13 
REMARK    3  A    between atoms: C3_3  and  C4_4 
REMARK    4  A    between atoms: C4_4  and  N1_5 
REMARK    5  A    between atoms: N3_13  and  C10_14 
REMARK    6  A    between atoms: C13_17  and  N4_18 
REMARK    7  A    between atoms: N4_18  and  C14_19 
ROOT
HETATM    1  C10 UNL     1      22.072   0.568  52.155  1.00  0.00     0.124 A 
HETATM    2  C11 UNL     1      23.376   0.483  52.589  1.00  0.00     0.068 A 
HETATM    3  C12 UNL     1      23.613  -0.237  53.735  1.00  0.00     0.044 A 
HETATM    4  C13 UNL     1      24.926  -0.293  54.135  1.00  0.00     0.142 A 
HETATM    5  N5  UNL     1      25.198  -0.993  55.262  1.00  0.00    -0.224 NA
HETATM    6  C18 UNL     1      24.211  -1.592  55.934  1.00  0.00     0.236 A 
HETATM    7  N6  UNL     1      22.922  -1.544  55.553  1.00  0.00    -0.240 NA
HETATM    8  C19 UNL     1      22.604  -0.857  54.437  1.00  0.00     0.089 A 
HETATM    9  C20 UNL     1      21.319  -0.762  53.993  1.00  0.00     0.151 A 
HETATM   10  N7  UNL     1      21.096  -0.063  52.883  1.00  0.00    -0.241 NA
ENDROOT
BRANCH   1  11
HETATM   11  N3  UNL     1      21.453   1.197  51.015  1.00  0.00    -0.370 N 
HETATM   12  H18 UNL     1      20.586   1.708  51.372  1.00  0.00     0.161 HD
BRANCH  11  13
HETATM   13  C2  UNL     1      21.651   1.302  49.598  1.00  0.00     0.080 C 
HETATM   14  C1  UNL     1      20.351   1.572  48.916  1.00  0.00     0.032 C 
BRANCH  13  15
HETATM   15  C3  UNL     1      22.723   2.281  49.289  1.00  0.00     0.044 C 
BRANCH  15  16
HETATM   16  C4  UNL     1      22.797   3.418  50.286  1.00  0.00     0.128 C 
BRANCH  16  17
HETATM   17  N1  UNL     1      24.183   3.888  50.411  1.00  0.00    -0.349 N 
HETATM   18  C5  UNL     1      25.438   3.297  50.809  1.00  0.00     0.156 C 
HETATM   19  C6  UNL     1      26.485   3.391  49.727  1.00  0.00     0.292 C 
HETATM   20  N2  UNL     1      26.496   4.626  49.029  1.00  0.00     0.094 N 
HETATM   21  C7  UNL     1      27.819   5.025  48.594  1.00  0.00     0.310 C 
HETATM   22  C8  UNL     1      25.827   5.723  49.692  1.00  0.00     0.374 C 
HETATM   23  C9  UNL     1      24.438   5.265  50.054  1.00  0.00     0.248 C 
HETATM   24  O1  UNL     1      23.527   6.152  50.029  1.00  0.00    -0.271 OA
ENDBRANCH  16  17
ENDBRANCH  15  16
ENDBRANCH  13  15
ENDBRANCH  11  13
ENDBRANCH   1  11
BRANCH   4  25
HETATM   25  N4  UNL     1      25.997   0.342  53.449  1.00  0.00    -0.342 N 
HETATM   26  H20 UNL     1      25.960   1.235  52.921  1.00  0.00     0.167 HD
BRANCH  25  27
HETATM   27  C14 UNL     1      27.298  -0.287  53.464  1.00  0.00     0.027 A 
HETATM   28  P1  UNL     1      28.669   0.488  54.277  1.00  0.00    -0.008 P 
HETATM   29  C15 UNL     1      29.963  -0.997  53.813  1.00  0.00     0.014 A 
HETATM   30  C16 UNL     1      29.139  -1.788  53.144  1.00  0.00    -0.019 A 
HETATM   31  C17 UNL     1      27.705  -1.537  52.884  1.00  0.00     0.085 A 
ENDBRANCH  25  27
ENDBRANCH   4  25
TORSDOF 7
ENDMDL
MODEL 2
REMARK VINA RESULT:      -8.2      1.409      1.931
REMARK  7 active torsions:
REMARK  status: ('A' for Active; 'I' for Inactive)
REMARK    1  A    between atoms: C2_2  and  C3_3 
REMARK    2  A    between atoms: C2_2  and  N3_13 
REMARK    3  A    between atoms: C3_3  and  C4_4 
REMARK    4  A    between atoms: C4_4  and  N1_5 
REMARK    5  A    between atoms: N3_13  and  C10_14 
REMARK    6  A    between atoms: C13_17  and  N4_18 
REMARK    7  A    between atoms: N4_18  and  C14_19 
ROOT
HETATM    1  C10 UNL     1      21.779   0.164  52.216  1.00  0.00     0.124 A 
HETATM    2  C11 UNL     1      23.109   0.160  52.573  1.00  0.00     0.068 A 
HETATM    3  C12 UNL     1      23.442  -0.444  53.761  1.00  0.00     0.044 A 
HETATM    4  C13 UNL     1      24.778  -0.422  54.079  1.00  0.00     0.142 A 
HETATM    5  N5  UNL     1      25.144  -1.008  55.244  1.00  0.00    -0.224 NA
HETATM    6  C18 UNL     1      24.222  -1.573  56.029  1.00  0.00     0.236 A 
HETATM    7  N6  UNL     1      22.912  -1.600  55.728  1.00  0.00    -0.240 NA
HETATM    8  C19 UNL     1      22.501  -1.028  54.578  1.00  0.00     0.089 A 
HETATM    9  C20 UNL     1      21.189  -1.014  54.211  1.00  0.00     0.151 A 
HETATM   10  N7  UNL     1      20.873  -0.427  53.058  1.00  0.00    -0.241 NA
ENDROOT
BRANCH   1  11
HETATM   11  N3  UNL     1      21.069   0.668  51.067  1.00  0.00    -0.370 N 
HETATM   12  H18 UNL     1      21.433   0.137  50.215  1.00  0.00     0.161 HD
BRANCH  11  13
HETATM   13  C2  UNL     1      20.075   1.656  50.758  1.00  0.00     0.080 C 
HETATM   14  C1  UNL     1      18.767   0.997  50.474  1.00  0.00     0.032 C 
BRANCH  13  15
HETATM   15  C3  UNL     1      20.024   2.697  51.814  1.00  0.00     0.044 C 
BRANCH  15  16
HETATM   16  C4  UNL     1      20.273   4.094  51.286  1.00  0.00     0.128 C 
BRANCH  16  17
HETATM   17  N1  UNL     1      21.710   4.396  51.322  1.00  0.00    -0.349 N 
HETATM   18  C5  UNL     1      22.675   4.688  52.354  1.00  0.00     0.156 C 
HETATM   19  C6  UNL     1      23.826   3.714  52.357  1.00  0.00     0.292 C 
HETATM   20  N2  UNL     1      24.289   3.350  51.066  1.00  0.00     0.094 N 
HETATM   21  C7  UNL     1      25.713   3.090  51.021  1.00  0.00     0.310 C 
HETATM   22  C8  UNL     1      23.900   4.237  49.992  1.00  0.00     0.374 C 
HETATM   23  C9  UNL     1      22.404   4.409  50.053  1.00  0.00     0.248 C 
HETATM   24  O1  UNL     1      21.808   4.567  48.942  1.00  0.00    -0.271 OA
ENDBRANCH  16  17
ENDBRANCH  15  16
ENDBRANCH  13  15
ENDBRANCH  11  13
ENDBRANCH   1  11
BRANCH   4  25
HETATM   25  N4  UNL     1      25.781   0.181  53.272  1.00  0.00    -0.342 N 
HETATM   26  H20 UNL     1      25.662   0.978  52.618  1.00  0.00     0.167 HD
BRANCH  25  27
HETATM   27  C14 UNL     1      27.128  -0.339  53.339  1.00  0.00     0.027 A 
HETATM   28  P1  UNL     1      28.425   0.603  54.093  1.00  0.00    -0.008 P 
HETATM   29  C15 UNL     1      29.837  -0.804  53.749  1.00  0.00     0.014 A 
HETATM   30  C16 UNL     1      29.085  -1.708  53.140  1.00  0.00    -0.019 A 
HETATM   31  C17 UNL     1      27.638  -1.593  52.859  1.00  0.00     0.085 A 
ENDBRANCH  25  27
ENDBRANCH   4  25
TORSDOF 7
ENDMDL
MODEL 3
REMARK VINA RESULT:      -8.2      2.994      5.512
REMARK  7 active torsions:
REMARK  status: ('A' for Active; 'I' for Inactive)
REMARK    1  A    between atoms: C2_2  and  C3_3 
REMARK    2  A    between atoms: C2_2  and  N3_13 
REMARK    3  A    between atoms: C3_3  and  C4_4 
REMARK    4  A    between atoms: C4_4  and  N1_5 
REMARK    5  A    between atoms: N3_13  and  C10_14 
REMARK    6  A    between atoms: C13_17  and  N4_18 
REMARK    7  A    between atoms: N4_18  and  C14_19 
ROOT
HETATM    1  C10 UNL     1      26.605   2.262  51.307  1.00  0.00     0.124 A 
HETATM    2  C11 UNL     1      25.815   1.271  51.846  1.00  0.00     0.068 A 
HETATM    3  C12 UNL     1      26.177   0.776  53.076  1.00  0.00     0.044 A 
HETATM    4  C13 UNL     1      25.364  -0.213  53.574  1.00  0.00     0.142 A 
HETATM    5  N5  UNL     1      25.691  -0.727  54.785  1.00  0.00    -0.224 NA
HETATM    6  C18 UNL     1      26.762  -0.272  55.440  1.00  0.00     0.236 A 
HETATM    7  N6  UNL     1      27.565   0.695  54.961  1.00  0.00    -0.240 NA
HETATM    8  C19 UNL     1      27.280   1.236  53.759  1.00  0.00     0.089 A 
HETATM    9  C20 UNL     1      28.051   2.216  53.210  1.00  0.00     0.151 A 
HETATM   10  N7  UNL     1      27.695   2.691  52.019  1.00  0.00    -0.241 NA
ENDROOT
BRANCH   1  11
HETATM   11  N3  UNL     1      26.534   3.022  50.084  1.00  0.00    -0.370 N 
HETATM   12  H18 UNL     1      27.425   2.816  49.534  1.00  0.00     0.161 HD
BRANCH  11  13
HETATM   13  C2  UNL     1      25.654   3.957  49.442  1.00  0.00     0.080 C 
HETATM   14  C1  UNL     1      24.485   4.250  50.322  1.00  0.00     0.032 C 
BRANCH  13  15
HETATM   15  C3  UNL     1      26.402   5.157  48.992  1.00  0.00     0.044 C 
BRANCH  15  16
HETATM   16  C4  UNL     1      27.826   4.850  48.578  1.00  0.00     0.128 C 
BRANCH  16  17
HETATM   17  N1  UNL     1      28.513   6.088  48.186  1.00  0.00    -0.349 N 
HETATM   18  C5  UNL     1      28.113   7.350  47.613  1.00  0.00     0.156 C 
HETATM   19  C6  UNL     1      28.483   8.521  48.489  1.00  0.00     0.292 C 
HETATM   20  N2  UNL     1      29.760   8.417  49.099  1.00  0.00     0.094 N 
HETATM   21  C7  UNL     1      30.417   9.695  49.273  1.00  0.00     0.310 C 
HETATM   22  C8  UNL     1      30.661   7.459  48.497  1.00  0.00     0.374 C 
HETATM   23  C9  UNL     1      29.941   6.138  48.409  1.00  0.00     0.248 C 
HETATM   24  O1  UNL     1      30.657   5.096  48.538  1.00  0.00    -0.271 OA
ENDBRANCH  16  17
ENDBRANCH  15  16
ENDBRANCH  13  15
ENDBRANCH  11  13
ENDBRANCH   1  11
BRANCH   4  25
HETATM   25  N4  UNL     1      24.224  -0.726  52.898  1.00  0.00    -0.342 N 
HETATM   26  H20 UNL     1      24.214  -1.435  52.139  1.00  0.00     0.167 HD
BRANCH  25  27
HETATM   27  C14 UNL     1      22.917  -0.240  53.277  1.00  0.00     0.027 A 
HETATM   28  P1  UNL     1      21.969  -1.070  54.523  1.00  0.00    -0.008 P 
HETATM   29  C15 UNL     1      20.412   0.215  54.392  1.00  0.00     0.014 A 
HETATM   30  C16 UNL     1      20.884   1.017  53.451  1.00  0.00    -0.019 A 
HETATM   31  C17 UNL     1      22.194   0.894  52.775  1.00  0.00     0.085 A 
ENDBRANCH  25  27
ENDBRANCH   4  25
TORSDOF 7
ENDMDL
MODEL 4
REMARK VINA RESULT:      -8.1      2.379      5.286
REMARK  7 active torsions:
REMARK  status: ('A' for Active; 'I' for Inactive)
REMARK    1  A    between atoms: C2_2  and  C3_3 
REMARK    2  A    between atoms: C2_2  and  N3_13 
REMARK    3  A    between atoms: C3_3  and  C4_4 
REMARK    4  A    between atoms: C4_4  and  N1_5 
REMARK    5  A    between atoms: N3_13  and  C10_14 
REMARK    6  A    between atoms: C13_17  and  N4_18 
REMARK    7  A    between atoms: N4_18  and  C14_19 
ROOT
HETATM    1  C10 UNL     1      24.539  -0.406  53.584  1.00  0.00     0.124 A 
HETATM    2  C11 UNL     1      25.100   0.418  52.634  1.00  0.00     0.068 A 
HETATM    3  C12 UNL     1      26.267   1.063  52.968  1.00  0.00     0.044 A 
HETATM    4  C13 UNL     1      26.789   1.877  51.993  1.00  0.00     0.142 A 
HETATM    5  N5  UNL     1      27.939   2.530  52.287  1.00  0.00    -0.224 NA
HETATM    6  C18 UNL     1      28.515   2.369  53.481  1.00  0.00     0.236 A 
HETATM    7  N6  UNL     1      28.013   1.575  54.443  1.00  0.00    -0.240 NA
HETATM    8  C19 UNL     1      26.869   0.905  54.196  1.00  0.00     0.089 A 
HETATM    9  C20 UNL     1      26.299   0.087  55.124  1.00  0.00     0.151 A 
HETATM   10  N7  UNL     1      25.169  -0.534  54.795  1.00  0.00    -0.241 NA
ENDROOT
BRANCH   1  11
HETATM   11  N3  UNL     1      23.365  -1.243  53.593  1.00  0.00    -0.370 N 
HETATM   12  H18 UNL     1      23.700  -2.254  53.524  1.00  0.00     0.161 HD
BRANCH  11  13
HETATM   13  C2  UNL     1      21.938  -1.102  53.637  1.00  0.00     0.080 C 
HETATM   14  C1  UNL     1      21.537  -0.306  54.835  1.00  0.00     0.032 C 
BRANCH  13  15
HETATM   15  C3  UNL     1      21.421  -0.577  52.349  1.00  0.00     0.044 C 
BRANCH  15  16
HETATM   16  C4  UNL     1      20.747   0.772  52.483  1.00  0.00     0.128 C 
BRANCH  16  17
HETATM   17  N1  UNL     1      21.348   1.731  51.546  1.00  0.00    -0.349 N 
HETATM   18  C5  UNL     1      22.421   1.692  50.583  1.00  0.00     0.156 C 
HETATM   19  C6  UNL     1      21.956   2.044  49.192  1.00  0.00     0.292 C 
HETATM   20  N2  UNL     1      21.022   3.111  49.139  1.00  0.00     0.094 N 
HETATM   21  C7  UNL     1      21.142   3.918  47.943  1.00  0.00     0.310 C 
HETATM   22  C8  UNL     1      20.968   3.950  50.315  1.00  0.00     0.374 C 
HETATM   23  C9  UNL     1      20.773   3.057  51.512  1.00  0.00     0.248 C 
HETATM   24  O1  UNL     1      20.088   3.537  52.469  1.00  0.00    -0.271 OA
ENDBRANCH  16  17
ENDBRANCH  15  16
ENDBRANCH  13  15
ENDBRANCH  11  13
ENDBRANCH   1  11
BRANCH   4  25
HETATM   25  N4  UNL     1      26.195   2.078  50.718  1.00  0.00    -0.342 N 
HETATM   26  H20 UNL     1      25.772   1.356  50.103  1.00  0.00     0.167 HD
BRANCH  25  27
HETATM   27  C14 UNL     1      26.148   3.419  50.180  1.00  0.00     0.027 A 
HETATM   28  P1  UNL     1      24.870   4.546  50.666  1.00  0.00    -0.008 P 
HETATM   29  C15 UNL     1      25.559   6.049  49.500  1.00  0.00     0.014 A 
HETATM   30  C16 UNL     1      26.605   5.436  48.968  1.00  0.00    -0.019 A 
HETATM   31  C17 UNL     1      27.034   4.047  49.240  1.00  0.00     0.085 A 
ENDBRANCH  25  27
ENDBRANCH   4  25
TORSDOF 7
ENDMDL
MODEL 5
REMARK VINA RESULT:      -8.0      2.334      3.743
REMARK  7 active torsions:
REMARK  status: ('A' for Active; 'I' for Inactive)
REMARK    1  A    between atoms: C2_2  and  C3_3 
REMARK    2  A    between atoms: C2_2  and  N3_13 
REMARK    3  A    between atoms: C3_3  and  C4_4 
REMARK    4  A    between atoms: C4_4  and  N1_5 
REMARK    5  A    between atoms: N3_13  and  C10_14 
REMARK    6  A    between atoms: C13_17  and  N4_18 
REMARK    7  A    between atoms: N4_18  and  C14_19 
ROOT
HETATM    1  C10 UNL     1      22.354   0.625  52.155  1.00  0.00     0.124 A 
HETATM    2  C11 UNL     1      23.617   0.562  52.698  1.00  0.00     0.068 A 
HETATM    3  C12 UNL     1      23.778  -0.190  53.836  1.00  0.00     0.044 A 
HETATM    4  C13 UNL     1      25.052  -0.223  54.346  1.00  0.00     0.142 A 
HETATM    5  N5  UNL     1      25.249  -0.955  55.469  1.00  0.00    -0.224 NA
HETATM    6  C18 UNL     1      24.227  -1.605  56.033  1.00  0.00     0.236 A 
HETATM    7  N6  UNL     1      22.975  -1.580  55.543  1.00  0.00    -0.240 NA
HETATM    8  C19 UNL     1      22.732  -0.863  54.426  1.00  0.00     0.089 A 
HETATM    9  C20 UNL     1      21.488  -0.789  53.876  1.00  0.00     0.151 A 
HETATM   10  N7  UNL     1      21.339  -0.058  52.774  1.00  0.00    -0.241 NA
ENDROOT
BRANCH   1  11
HETATM   11  N3  UNL     1      21.815   1.277  50.987  1.00  0.00    -0.370 N 
HETATM   12  H18 UNL     1      20.789   1.490  51.191  1.00  0.00     0.161 HD
BRANCH  11  13
HETATM   13  C2  UNL     1      22.245   1.677  49.677  1.00  0.00     0.080 C 
HETATM   14  C1  UNL     1      21.208   1.320  48.665  1.00  0.00     0.032 C 
BRANCH  13  15
HETATM   15  C3  UNL     1      22.646   3.106  49.670  1.00  0.00     0.044 C 
BRANCH  15  16
HETATM   16  C4  UNL     1      22.155   3.868  50.883  1.00  0.00     0.128 C 
BRANCH  16  17
HETATM   17  N1  UNL     1      20.815   4.412  50.627  1.00  0.00    -0.349 N 
HETATM   18  C5  UNL     1      20.257   5.392  49.729  1.00  0.00     0.156 C 
HETATM   19  C6  UNL     1      19.175   4.816  48.849  1.00  0.00     0.292 C 
HETATM   20  N2  UNL     1      18.303   3.912  49.510  1.00  0.00     0.094 N 
HETATM   21  C7  UNL     1      16.948   3.949  49.000  1.00  0.00     0.310 C 
HETATM   22  C8  UNL     1      18.304   3.989  50.954  1.00  0.00     0.374 C 
HETATM   23  C9  UNL     1      19.732   3.875  51.421  1.00  0.00     0.248 C 
HETATM   24  O1  UNL     1      19.916   3.293  52.536  1.00  0.00    -0.271 OA
ENDBRANCH  16  17
ENDBRANCH  15  16
ENDBRANCH  13  15
ENDBRANCH  11  13
ENDBRANCH   1  11
BRANCH   4  25
HETATM   25  N4  UNL     1      26.158   0.466  53.777  1.00  0.00    -0.342 N 
HETATM   26  H20 UNL     1      26.174   1.445  53.430  1.00  0.00     0.167 HD
BRANCH  25  27
HETATM   27  C14 UNL     1      27.418  -0.231  53.651  1.00  0.00     0.027 A 
HETATM   28  P1  UNL     1      28.901   0.448  54.342  1.00  0.00    -0.008 P 
HETATM   29  C15 UNL     1      30.060  -1.090  53.722  1.00  0.00     0.014 A 
HETATM   30  C16 UNL     1      29.133  -1.818  53.119  1.00  0.00    -0.019 A 
HETATM   31  C17 UNL     1      27.697  -1.484  53.007  1.00  0.00     0.085 A 
ENDBRANCH  25  27
ENDBRANCH   4  25
TORSDOF 7
ENDMDL
MODEL 6
REMARK VINA RESULT:      -8.0      2.462      5.338
REMARK  7 active torsions:
REMARK  status: ('A' for Active; 'I' for Inactive)
REMARK    1  A    between atoms: C2_2  and  C3_3 
REMARK    2  A    between atoms: C2_2  and  N3_13 
REMARK    3  A    between atoms: C3_3  and  C4_4 
REMARK    4  A    between atoms: C4_4  and  N1_5 
REMARK    5  A    between atoms: N3_13  and  C10_14 
REMARK    6  A    between atoms: C13_17  and  N4_18 
REMARK    7  A    between atoms: N4_18  and  C14_19 
ROOT
HETATM    1  C10 UNL     1      26.609   2.298  51.328  1.00  0.00     0.124 A 
HETATM    2  C11 UNL     1      25.858   1.282  51.875  1.00  0.00     0.068 A 
HETATM    3  C12 UNL     1      26.259   0.786  53.093  1.00  0.00     0.044 A 
HETATM    4  C13 UNL     1      25.485  -0.228  53.599  1.00  0.00     0.142 A 
HETATM    5  N5  UNL     1      25.851  -0.743  54.798  1.00  0.00    -0.224 NA
HETATM    6  C18 UNL     1      26.923  -0.264  55.435  1.00  0.00     0.236 A 
HETATM    7  N6  UNL     1      27.689   0.728  54.948  1.00  0.00    -0.240 NA
HETATM    8  C19 UNL     1      27.363   1.271  53.757  1.00  0.00     0.089 A 
HETATM    9  C20 UNL     1      28.096   2.276  53.200  1.00  0.00     0.151 A 
HETATM   10  N7  UNL     1      27.702   2.751  52.021  1.00  0.00    -0.241 NA
ENDROOT
BRANCH   1  11
HETATM   11  N3  UNL     1      26.491   3.066  50.114  1.00  0.00    -0.370 N 
HETATM   12  H18 UNL     1      26.391   2.369  49.310  1.00  0.00     0.161 HD
BRANCH  11  13
HETATM   13  C2  UNL     1      26.498   4.439  49.698  1.00  0.00     0.080 C 
HETATM   14  C1  UNL     1      27.552   4.658  48.665  1.00  0.00     0.032 C 
BRANCH  13  15
HETATM   15  C3  UNL     1      25.138   4.870  49.290  1.00  0.00     0.044 C 
BRANCH  15  16
HETATM   16  C4  UNL     1      24.598   6.011  50.128  1.00  0.00     0.128 C 
BRANCH  16  17
HETATM   17  N1  UNL     1      23.187   5.770  50.456  1.00  0.00    -0.349 N 
HETATM   18  C5  UNL     1      21.919   6.125  49.867  1.00  0.00     0.156 C 
HETATM   19  C6  UNL     1      21.083   4.915  49.531  1.00  0.00     0.292 C 
HETATM   20  N2  UNL     1      21.125   3.886  50.507  1.00  0.00     0.094 N 
HETATM   21  C7  UNL     1      19.882   3.149  50.615  1.00  0.00     0.310 C 
HETATM   22  C8  UNL     1      21.594   4.285  51.815  1.00  0.00     0.374 C 
HETATM   23  C9  UNL     1      22.919   4.981  51.638  1.00  0.00     0.248 C 
HETATM   24  O1  UNL     1      23.763   4.834  52.576  1.00  0.00    -0.271 OA
ENDBRANCH  16  17
ENDBRANCH  15  16
ENDBRANCH  13  15
ENDBRANCH  11  13
ENDBRANCH   1  11
BRANCH   4  25
HETATM   25  N4  UNL     1      24.345  -0.767  52.943  1.00  0.00    -0.342 N 
HETATM   26  H20 UNL     1      24.336  -1.496  52.203  1.00  0.00     0.167 HD
BRANCH  25  27
HETATM   27  C14 UNL     1      23.036  -0.280  53.316  1.00  0.00     0.027 A 
HETATM   28  P1  UNL     1      22.121  -1.052  54.621  1.00  0.00    -0.008 P 
HETATM   29  C15 UNL     1      20.542   0.200  54.444  1.00  0.00     0.014 A 
HETATM   30  C16 UNL     1      20.987   0.955  53.452  1.00  0.00    -0.019 A 
HETATM   31  C17 UNL     1      22.288   0.814  52.762  1.00  0.00     0.085 A 
ENDBRANCH  25  27
ENDBRANCH   4  25
TORSDOF 7
ENDMDL
MODEL 7
REMARK VINA RESULT:      -8.0      2.901      4.718
REMARK  7 active torsions:
REMARK  status: ('A' for Active; 'I' for Inactive)
REMARK    1  A    between atoms: C2_2  and  C3_3 
REMARK    2  A    between atoms: C2_2  and  N3_13 
REMARK    3  A    between atoms: C3_3  and  C4_4 
REMARK    4  A    between atoms: C4_4  and  N1_5 
REMARK    5  A    between atoms: N3_13  and  C10_14 
REMARK    6  A    between atoms: C13_17  and  N4_18 
REMARK    7  A    between atoms: N4_18  and  C14_19 
ROOT
HETATM    1  C10 UNL     1      25.258   3.401  50.887  1.00  0.00     0.124 A 
HETATM    2  C11 UNL     1      25.510   2.574  51.959  1.00  0.00     0.068 A 
HETATM    3  C12 UNL     1      24.562   1.627  52.262  1.00  0.00     0.044 A 
HETATM    4  C13 UNL     1      24.852   0.828  53.340  1.00  0.00     0.142 A 
HETATM    5  N5  UNL     1      23.938  -0.118  53.669  1.00  0.00    -0.224 NA
HETATM    6  C18 UNL     1      22.815  -0.241  52.958  1.00  0.00     0.236 A 
HETATM    7  N6  UNL     1      22.520   0.536  51.901  1.00  0.00    -0.240 NA
HETATM    8  C19 UNL     1      23.400   1.492  51.536  1.00  0.00     0.089 A 
HETATM    9  C20 UNL     1      23.166   2.319  50.479  1.00  0.00     0.151 A 
HETATM   10  N7  UNL     1      24.089   3.234  50.192  1.00  0.00    -0.241 NA
ENDROOT
BRANCH   1  11
HETATM   11  N3  UNL     1      26.005   4.468  50.269  1.00  0.00    -0.370 N 
HETATM   12  H18 UNL     1      27.038   4.287  50.473  1.00  0.00     0.161 HD
BRANCH  11  13
HETATM   13  C2  UNL     1      25.760   5.664  49.515  1.00  0.00     0.080 C 
HETATM   14  C1  UNL     1      25.306   6.758  50.422  1.00  0.00     0.032 C 
BRANCH  13  15
HETATM   15  C3  UNL     1      26.936   6.007  48.677  1.00  0.00     0.044 C 
BRANCH  15  16
HETATM   16  C4  UNL     1      27.038   7.486  48.371  1.00  0.00     0.128 C 
BRANCH  16  17
HETATM   17  N1  UNL     1      28.396   7.967  48.659  1.00  0.00    -0.349 N 
HETATM   18  C5  UNL     1      29.732   7.505  48.374  1.00  0.00     0.156 C 
HETATM   19  C6  UNL     1      30.538   8.521  47.603  1.00  0.00     0.292 C 
HETATM   20  N2  UNL     1      30.349   9.862  48.026  1.00  0.00     0.094 N 
HETATM   21  C7  UNL     1      31.537  10.678  47.888  1.00  0.00     0.310 C 
HETATM   22  C8  UNL     1      29.770  10.024  49.341  1.00  0.00     0.374 C 
HETATM   23  C9  UNL     1      28.505   9.208  49.393  1.00  0.00     0.248 C 
HETATM   24  O1  UNL     1      27.564   9.670  50.112  1.00  0.00    -0.271 OA
ENDBRANCH  16  17
ENDBRANCH  15  16
ENDBRANCH  13  15
ENDBRANCH  11  13
ENDBRANCH   1  11
BRANCH   4  25
HETATM   25  N4  UNL     1      26.032   0.941  54.124  1.00  0.00    -0.342 N 
HETATM   26  H20 UNL     1      26.194   1.586  54.921  1.00  0.00     0.167 HD
BRANCH  25  27
HETATM   27  C14 UNL     1      27.153   0.081  53.816  1.00  0.00     0.027 A 
HETATM   28  P1  UNL     1      28.759   0.414  54.485  1.00  0.00    -0.008 P 
HETATM   29  C15 UNL     1      29.618  -1.181  53.583  1.00  0.00     0.014 A 
HETATM   30  C16 UNL     1      28.556  -1.661  52.956  1.00  0.00    -0.019 A 
HETATM   31  C17 UNL     1      27.191  -1.094  52.992  1.00  0.00     0.085 A 
ENDBRANCH  25  27
ENDBRANCH   4  25
TORSDOF 7
ENDMDL
MODEL 8
REMARK VINA RESULT:      -7.9      1.996      3.187
REMARK  7 active torsions:
REMARK  status: ('A' for Active; 'I' for Inactive)
REMARK    1  A    between atoms: C2_2  and  C3_3 
REMARK    2  A    between atoms: C2_2  and  N3_13 
REMARK    3  A    between atoms: C3_3  and  C4_4 
REMARK    4  A    between atoms: C4_4  and  N1_5 
REMARK    5  A    between atoms: N3_13  and  C10_14 
REMARK    6  A    between atoms: C13_17  and  N4_18 
REMARK    7  A    between atoms: N4_18  and  C14_19 
ROOT
HETATM    1  C10 UNL     1      23.563   1.944  50.819  1.00  0.00     0.124 A 
HETATM    2  C11 UNL     1      24.299   1.499  51.894  1.00  0.00     0.068 A 
HETATM    3  C12 UNL     1      23.714   0.564  52.714  1.00  0.00     0.044 A 
HETATM    4  C13 UNL     1      24.481   0.151  53.776  1.00  0.00     0.142 A 
HETATM    5  N5  UNL     1      23.937  -0.770  54.608  1.00  0.00    -0.224 NA
HETATM    6  C18 UNL     1      22.706  -1.236  54.378  1.00  0.00     0.236 A 
HETATM    7  N6  UNL     1      21.946  -0.839  53.342  1.00  0.00    -0.240 NA
HETATM    8  C19 UNL     1      22.447   0.077  52.488  1.00  0.00     0.089 A 
HETATM    9  C20 UNL     1      21.732   0.530  51.420  1.00  0.00     0.151 A 
HETATM   10  N7  UNL     1      22.304   1.436  50.630  1.00  0.00    -0.241 NA
ENDROOT
BRANCH   1  11
HETATM   11  N3  UNL     1      23.840   2.877  49.755  1.00  0.00    -0.370 N 
HETATM   12  H18 UNL     1      23.630   2.376  48.835  1.00  0.00     0.161 HD
BRANCH  11  13
HETATM   13  C2  UNL     1      24.323   4.219  49.591  1.00  0.00     0.080 C 
HETATM   14  C1  UNL     1      23.339   5.191  50.150  1.00  0.00     0.032 C 
BRANCH  13  15
HETATM   15  C3  UNL     1      25.697   4.352  50.137  1.00  0.00     0.044 C 
BRANCH  15  16
HETATM   16  C4  UNL     1      26.771   4.271  49.073  1.00  0.00     0.128 C 
BRANCH  16  17
HETATM   17  N1  UNL     1      27.086   5.616  48.573  1.00  0.00    -0.349 N 
HETATM   18  C5  UNL     1      26.323   6.793  48.237  1.00  0.00     0.156 C 
HETATM   19  C6  UNL     1      26.751   8.001  49.033  1.00  0.00     0.292 C 
HETATM   20  N2  UNL     1      28.154   8.117  49.212  1.00  0.00     0.094 N 
HETATM   21  C7  UNL     1      28.612   9.490  49.261  1.00  0.00     0.310 C 
HETATM   22  C8  UNL     1      28.964   7.343  48.299  1.00  0.00     0.374 C 
HETATM   23  C9  UNL     1      28.482   5.916  48.349  1.00  0.00     0.248 C 
HETATM   24  O1  UNL     1      29.364   5.016  48.180  1.00  0.00    -0.271 OA
ENDBRANCH  16  17
ENDBRANCH  15  16
ENDBRANCH  13  15
ENDBRANCH  11  13
ENDBRANCH   1  11
BRANCH   4  25
HETATM   25  N4  UNL     1      25.788   0.636  54.054  1.00  0.00    -0.342 N 
HETATM   26  H20 UNL     1      26.039   1.551  54.476  1.00  0.00     0.167 HD
BRANCH  25  27
HETATM   27  C14 UNL     1      26.920  -0.204  53.733  1.00  0.00     0.027 A 
HETATM   28  P1  UNL     1      28.531   0.168  54.370  1.00  0.00    -0.008 P 
HETATM   29  C15 UNL     1      29.407  -1.416  53.467  1.00  0.00     0.014 A 
HETATM   30  C16 UNL     1      28.344  -1.924  52.863  1.00  0.00    -0.019 A 
HETATM   31  C17 UNL     1      26.967  -1.385  52.919  1.00  0.00     0.085 A 
ENDBRANCH  25  27
ENDBRANCH   4  25
TORSDOF 7
ENDMDL
MODEL 9
REMARK VINA RESULT:      -7.8      4.207      7.343
REMARK  7 active torsions:
REMARK  status: ('A' for Active; 'I' for Inactive)
REMARK    1  A    between atoms: C2_2  and  C3_3 
REMARK    2  A    between atoms: C2_2  and  N3_13 
REMARK    3  A    between atoms: C3_3  and  C4_4 
REMARK    4  A    between atoms: C4_4  and  N1_5 
REMARK    5  A    between atoms: N3_13  and  C10_14 
REMARK    6  A    between atoms: C13_17  and  N4_18 
REMARK    7  A    between atoms: N4_18  and  C14_19 
ROOT
HETATM    1  C10 UNL     1      20.336  -0.667  53.781  1.00  0.00     0.124 A 
HETATM    2  C11 UNL     1      21.062   0.321  53.155  1.00  0.00     0.068 A 
HETATM    3  C12 UNL     1      22.426   0.304  53.323  1.00  0.00     0.044 A 
HETATM    4  C13 UNL     1      23.111   1.308  52.684  1.00  0.00     0.142 A 
HETATM    5  N5  UNL     1      24.458   1.324  52.828  1.00  0.00    -0.224 NA
HETATM    6  C18 UNL     1      25.064   0.391  53.566  1.00  0.00     0.236 A 
HETATM    7  N6  UNL     1      24.405  -0.597  54.197  1.00  0.00    -0.240 NA
HETATM    8  C19 UNL     1      23.062  -0.653  54.082  1.00  0.00     0.089 A 
HETATM    9  C20 UNL     1      22.327  -1.622  54.696  1.00  0.00     0.151 A 
HETATM   10  N7  UNL     1      21.007  -1.599  54.529  1.00  0.00    -0.241 NA
ENDROOT
BRANCH   1  11
HETATM   11  N3  UNL     1      18.929  -0.981  53.819  1.00  0.00    -0.370 N 
HETATM   12  H18 UNL     1      18.567  -0.682  54.778  1.00  0.00     0.161 HD
BRANCH  11  13
HETATM   13  C2  UNL     1      17.932  -1.580  52.979  1.00  0.00     0.080 C 
HETATM   14  C1  UNL     1      17.440  -2.849  53.590  1.00  0.00     0.032 C 
BRANCH  13  15
HETATM   15  C3  UNL     1      16.866  -0.601  52.650  1.00  0.00     0.044 C 
BRANCH  15  16
HETATM   16  C4  UNL     1      17.361   0.558  51.810  1.00  0.00     0.128 C 
BRANCH  16  17
HETATM   17  N1  UNL     1      16.320   1.590  51.714  1.00  0.00    -0.349 N 
HETATM   18  C5  UNL     1      14.901   1.598  51.455  1.00  0.00     0.156 C 
HETATM   19  C6  UNL     1      14.116   2.229  52.578  1.00  0.00     0.292 C 
HETATM   20  N2  UNL     1      14.720   3.384  53.139  1.00  0.00     0.094 N 
HETATM   21  C7  UNL     1      13.761   4.364  53.603  1.00  0.00     0.310 C 
HETATM   22  C8  UNL     1      15.736   4.014  52.323  1.00  0.00     0.374 C 
HETATM   23  C9  UNL     1      16.736   2.957  51.934  1.00  0.00     0.248 C 
HETATM   24  O1  UNL     1      17.942   3.340  51.810  1.00  0.00    -0.271 OA
ENDBRANCH  16  17
ENDBRANCH  15  16
ENDBRANCH  13  15
ENDBRANCH  11  13
ENDBRANCH   1  11
BRANCH   4  25
HETATM   25  N4  UNL     1      22.495   2.322  51.902  1.00  0.00    -0.342 N 
HETATM   26  H20 UNL     1      22.101   3.222  52.240  1.00  0.00     0.167 HD
BRANCH  25  27
HETATM   27  C14 UNL     1      22.385   2.124  50.474  1.00  0.00     0.027 A 
HETATM   28  P1  UNL     1      23.253   3.178  49.345  1.00  0.00    -0.008 P 
HETATM   29  C15 UNL     1      22.554   2.227  47.702  1.00  0.00     0.014 A 
HETATM   30  C16 UNL     1      21.808   1.309  48.295  1.00  0.00    -0.019 A 
HETATM   31  C17 UNL     1      21.629   1.139  49.753  1.00  0.00     0.085 A 
ENDBRANCH  25  27
ENDBRANCH   4  25
TORSDOF 7
ENDMDL
