MODEL 1
REMARK VINA RESULT:      -7.1      0.000      0.000
REMARK  4 active torsions:
REMARK  status: ('A' for Active; 'I' for Inactive)
REMARK    1  A    between atoms: O1_2  and  C2_3 
REMARK    2  A    between atoms: C5_6  and  C6_7 
REMARK    3  A    between atoms: C8_11  and  C9_12 
REMARK    4  A    between atoms: C14_18  and  O2_19 
ROOT
HETATM    1  C6  UNL     1      24.481   0.529  53.182  1.00  0.00     0.137 A 
HETATM    2  N1  UNL     1      23.891  -0.406  53.847  1.00  0.00    -0.224 NA
HETATM    3  C7  UNL     1      24.600  -0.965  54.971  1.00  0.00     0.232 A 
HETATM    4  N2  UNL     1      25.764  -0.675  55.433  1.00  0.00    -0.253 NA
HETATM    5  C8  UNL     1      26.541   0.353  54.788  1.00  0.00     0.232 A 
HETATM    6  N3  UNL     1      25.778   0.872  53.675  1.00  0.00    -0.348 N 
HETATM    7  H15 UNL     1      26.355   1.615  53.221  1.00  0.00     0.163 HD
ENDROOT
BRANCH   1   8
HETATM    8  C5  UNL     1      23.979   1.248  52.017  1.00  0.00     0.012 A 
HETATM    9  C4  UNL     1      22.665   0.995  51.657  1.00  0.00     0.018 A 
HETATM   10  C3  UNL     1      22.190   1.675  50.554  1.00  0.00     0.040 A 
HETATM   11  C2  UNL     1      23.018   2.561  49.869  1.00  0.00     0.101 A 
HETATM   12  C14 UNL     1      24.324   2.801  50.244  1.00  0.00     0.102 A 
HETATM   13  C13 UNL     1      24.819   2.120  51.356  1.00  0.00     0.055 A 
BRANCH  11  14
HETATM   14  O1  UNL     1      22.508   3.218  48.777  1.00  0.00    -0.353 OA
HETATM   15  C1  UNL     1      22.208   2.585  47.556  1.00  0.00     0.210 C 
ENDBRANCH  11  14
BRANCH  12  16
HETATM   16  O2  UNL     1      25.077   3.700  49.502  1.00  0.00    -0.353 OA
HETATM   17  C15 UNL     1      26.497   3.629  49.607  1.00  0.00     0.210 C 
ENDBRANCH  12  16
ENDBRANCH   1   8
BRANCH   5  18
HETATM   18  C9  UNL     1      27.841  -0.161  54.281  1.00  0.00     0.023 C 
HETATM   19  C10 UNL     1      28.970   0.453  53.956  1.00  0.00    -0.088 C 
HETATM   20  C11 UNL     1      30.165  -0.319  53.457  1.00  0.00     0.042 C 
HETATM   21  C12 UNL     1      29.054   1.934  54.088  1.00  0.00     0.042 C 
ENDBRANCH   5  18
TORSDOF 4
ENDMDL
MODEL 2
REMARK VINA RESULT:      -6.9      3.133      4.665
REMARK  4 active torsions:
REMARK  status: ('A' for Active; 'I' for Inactive)
REMARK    1  A    between atoms: O1_2  and  C2_3 
REMARK    2  A    between atoms: C5_6  and  C6_7 
REMARK    3  A    between atoms: C8_11  and  C9_12 
REMARK    4  A    between atoms: C14_18  and  O2_19 
ROOT
HETATM    1  C6  UNL     1      24.148   1.626  51.748  1.00  0.00     0.137 A 
HETATM    2  N1  UNL     1      24.258   2.767  51.156  1.00  0.00    -0.224 NA
HETATM    3  C7  UNL     1      25.583   3.189  50.775  1.00  0.00     0.232 A 
HETATM    4  N2  UNL     1      26.710   2.594  50.936  1.00  0.00    -0.253 NA
HETATM    5  C8  UNL     1      26.742   1.308  51.584  1.00  0.00     0.232 A 
HETATM    6  N3  UNL     1      25.389   0.941  51.940  1.00  0.00    -0.348 N 
HETATM    7  H15 UNL     1      25.430   0.009  52.407  1.00  0.00     0.163 HD
ENDROOT
BRANCH   1   8
HETATM    8  C5  UNL     1      22.930   0.983  52.227  1.00  0.00     0.012 A 
HETATM    9  C4  UNL     1      21.782   1.210  51.486  1.00  0.00     0.018 A 
HETATM   10  C3  UNL     1      20.629   0.602  51.940  1.00  0.00     0.040 A 
HETATM   11  C2  UNL     1      20.661  -0.190  53.084  1.00  0.00     0.101 A 
HETATM   12  C14 UNL     1      21.815  -0.405  53.809  1.00  0.00     0.102 A 
HETATM   13  C13 UNL     1      22.988   0.202  53.364  1.00  0.00     0.055 A 
BRANCH  11  14
HETATM   14  O1  UNL     1      19.493  -0.778  53.503  1.00  0.00    -0.353 OA
HETATM   15  C1  UNL     1      18.310  -0.788  52.741  1.00  0.00     0.210 C 
ENDBRANCH  11  14
BRANCH  12  16
HETATM   16  O2  UNL     1      21.754  -1.210  54.938  1.00  0.00    -0.353 OA
HETATM   17  C15 UNL     1      22.979  -1.550  55.584  1.00  0.00     0.210 C 
ENDBRANCH  12  16
ENDBRANCH   1   8
BRANCH   5  18
HETATM   18  C9  UNL     1      27.574   1.320  52.816  1.00  0.00     0.023 C 
HETATM   19  C10 UNL     1      28.143   0.345  53.512  1.00  0.00    -0.088 C 
HETATM   20  C11 UNL     1      28.952   0.635  54.751  1.00  0.00     0.042 C 
HETATM   21  C12 UNL     1      27.976  -1.063  53.056  1.00  0.00     0.042 C 
ENDBRANCH   5  18
TORSDOF 4
ENDMDL
MODEL 3
REMARK VINA RESULT:      -6.8      1.543      2.795
REMARK  4 active torsions:
REMARK  status: ('A' for Active; 'I' for Inactive)
REMARK    1  A    between atoms: O1_2  and  C2_3 
REMARK    2  A    between atoms: C5_6  and  C6_7 
REMARK    3  A    between atoms: C8_11  and  C9_12 
REMARK    4  A    between atoms: C14_18  and  O2_19 
ROOT
HETATM    1  C6  UNL     1      23.978   0.041  53.567  1.00  0.00     0.137 A 
HETATM    2  N1  UNL     1      23.568  -0.778  54.476  1.00  0.00    -0.224 NA
HETATM    3  C7  UNL     1      24.506  -1.141  55.510  1.00  0.00     0.232 A 
HETATM    4  N2  UNL     1      25.725  -0.770  55.677  1.00  0.00    -0.253 NA
HETATM    5  C8  UNL     1      26.319   0.145  54.736  1.00  0.00     0.232 A 
HETATM    6  N3  UNL     1      25.332   0.470  53.730  1.00  0.00    -0.348 N 
HETATM    7  H15 UNL     1      25.778   1.133  53.058  1.00  0.00     0.163 HD
ENDROOT
BRANCH   1   8
HETATM    8  C5  UNL     1      23.228   0.557  52.428  1.00  0.00     0.012 A 
HETATM    9  C4  UNL     1      23.893   1.457  51.611  1.00  0.00     0.018 A 
HETATM   10  C3  UNL     1      23.184   1.946  50.533  1.00  0.00     0.040 A 
HETATM   11  C2  UNL     1      21.872   1.532  50.314  1.00  0.00     0.101 A 
HETATM   12  C14 UNL     1      21.227   0.634  51.139  1.00  0.00     0.102 A 
HETATM   13  C13 UNL     1      21.930   0.131  52.233  1.00  0.00     0.055 A 
BRANCH  11  14
HETATM   14  O1  UNL     1      21.201   2.042  49.230  1.00  0.00    -0.353 OA
HETATM   15  C1  UNL     1      21.771   2.171  47.950  1.00  0.00     0.210 C 
ENDBRANCH  11  14
BRANCH  12  16
HETATM   16  O2  UNL     1      19.919   0.278  50.844  1.00  0.00    -0.353 OA
HETATM   17  C15 UNL     1      19.016   0.086  51.931  1.00  0.00     0.210 C 
ENDBRANCH  12  16
ENDBRANCH   1   8
BRANCH   5  18
HETATM   18  C9  UNL     1      27.513  -0.434  54.066  1.00  0.00     0.023 C 
HETATM   19  C10 UNL     1      28.758   0.005  53.939  1.00  0.00    -0.088 C 
HETATM   20  C11 UNL     1      29.798  -0.794  53.194  1.00  0.00     0.042 C 
HETATM   21  C12 UNL     1      29.130   1.314  54.544  1.00  0.00     0.042 C 
ENDBRANCH   5  18
TORSDOF 4
ENDMDL
MODEL 4
REMARK VINA RESULT:      -6.7      2.267      3.685
REMARK  4 active torsions:
REMARK  status: ('A' for Active; 'I' for Inactive)
REMARK    1  A    between atoms: O1_2  and  C2_3 
REMARK    2  A    between atoms: C5_6  and  C6_7 
REMARK    3  A    between atoms: C8_11  and  C9_12 
REMARK    4  A    between atoms: C14_18  and  O2_19 
ROOT
HETATM    1  C6  UNL     1      25.082   2.422  51.419  1.00  0.00     0.137 A 
HETATM    2  N1  UNL     1      23.939   1.824  51.444  1.00  0.00    -0.224 NA
HETATM    3  C7  UNL     1      23.778   0.747  52.390  1.00  0.00     0.232 A 
HETATM    4  N2  UNL     1      24.616   0.270  53.239  1.00  0.00    -0.253 NA
HETATM    5  C8  UNL     1      25.936   0.841  53.323  1.00  0.00     0.232 A 
HETATM    6  N3  UNL     1      26.034   1.911  52.355  1.00  0.00    -0.348 N 
HETATM    7  H15 UNL     1      26.995   2.312  52.430  1.00  0.00     0.163 HD
ENDROOT
BRANCH   1   8
HETATM    8  C5  UNL     1      25.490   3.529  50.563  1.00  0.00     0.012 A 
HETATM    9  C4  UNL     1      26.659   3.350  49.841  1.00  0.00     0.018 A 
HETATM   10  C3  UNL     1      27.047   4.399  49.031  1.00  0.00     0.040 A 
HETATM   11  C2  UNL     1      26.276   5.556  48.971  1.00  0.00     0.101 A 
HETATM   12  C14 UNL     1      25.113   5.716  49.696  1.00  0.00     0.102 A 
HETATM   13  C13 UNL     1      24.708   4.666  50.520  1.00  0.00     0.055 A 
BRANCH  11  14
HETATM   14  O1  UNL     1      26.695   6.577  48.153  1.00  0.00    -0.353 OA
HETATM   15  C1  UNL     1      28.047   6.917  47.963  1.00  0.00     0.210 C 
ENDBRANCH  11  14
BRANCH  12  16
HETATM   16  O2  UNL     1      24.407   6.904  49.574  1.00  0.00    -0.353 OA
HETATM   17  C15 UNL     1      24.167   7.665  50.756  1.00  0.00     0.210 C 
ENDBRANCH  12  16
ENDBRANCH   1   8
BRANCH   5  18
HETATM   18  C9  UNL     1      26.999  -0.159  53.041  1.00  0.00     0.023 C 
HETATM   19  C10 UNL     1      28.135  -0.445  53.663  1.00  0.00    -0.088 C 
HETATM   20  C11 UNL     1      29.053  -1.530  53.158  1.00  0.00     0.042 C 
HETATM   21  C12 UNL     1      28.506   0.324  54.883  1.00  0.00     0.042 C 
ENDBRANCH   5  18
TORSDOF 4
ENDMDL
MODEL 5
REMARK VINA RESULT:      -6.7      3.502      6.780
REMARK  4 active torsions:
REMARK  status: ('A' for Active; 'I' for Inactive)
REMARK    1  A    between atoms: O1_2  and  C2_3 
REMARK    2  A    between atoms: C5_6  and  C6_7 
REMARK    3  A    between atoms: C8_11  and  C9_12 
REMARK    4  A    between atoms: C14_18  and  O2_19 
ROOT
HETATM    1  C6  UNL     1      25.940   2.761  51.171  1.00  0.00     0.137 A 
HETATM    2  N1  UNL     1      26.820   2.797  50.228  1.00  0.00    -0.224 NA
HETATM    3  C7  UNL     1      26.824   3.958  49.372  1.00  0.00     0.232 A 
HETATM    4  N2  UNL     1      26.068   4.997  49.397  1.00  0.00    -0.253 NA
HETATM    5  C8  UNL     1      25.038   5.095  50.399  1.00  0.00     0.232 A 
HETATM    6  N3  UNL     1      25.086   3.907  51.222  1.00  0.00    -0.348 N 
HETATM    7  H15 UNL     1      24.334   3.995  51.941  1.00  0.00     0.163 HD
ENDROOT
BRANCH   1   8
HETATM    8  C5  UNL     1      25.734   1.710  52.160  1.00  0.00     0.012 A 
HETATM    9  C4  UNL     1      24.420   1.352  52.413  1.00  0.00     0.018 A 
HETATM   10  C3  UNL     1      24.224   0.357  53.349  1.00  0.00     0.040 A 
HETATM   11  C2  UNL     1      25.317  -0.231  53.982  1.00  0.00     0.101 A 
HETATM   12  C14 UNL     1      26.619   0.138  53.716  1.00  0.00     0.102 A 
HETATM   13  C13 UNL     1      26.833   1.143  52.773  1.00  0.00     0.055 A 
BRANCH  11  14
HETATM   14  O1  UNL     1      25.080  -1.218  54.907  1.00  0.00    -0.353 OA
HETATM   15  C1  UNL     1      23.888  -1.321  55.649  1.00  0.00     0.210 C 
ENDBRANCH  11  14
BRANCH  12  16
HETATM   16  O2  UNL     1      27.646  -0.502  54.394  1.00  0.00    -0.353 OA
HETATM   17  C15 UNL     1      28.816   0.252  54.704  1.00  0.00     0.210 C 
ENDBRANCH  12  16
ENDBRANCH   1   8
BRANCH   5  18
HETATM   18  C9  UNL     1      23.681   5.209  49.800  1.00  0.00     0.023 C 
HETATM   19  C10 UNL     1      22.763   6.163  49.863  1.00  0.00    -0.088 C 
HETATM   20  C11 UNL     1      21.442   6.025  49.148  1.00  0.00     0.042 C 
HETATM   21  C12 UNL     1      23.046   7.391  50.655  1.00  0.00     0.042 C 
ENDBRANCH   5  18
TORSDOF 4
ENDMDL
MODEL 6
REMARK VINA RESULT:      -6.5      2.862      4.642
REMARK  4 active torsions:
REMARK  status: ('A' for Active; 'I' for Inactive)
REMARK    1  A    between atoms: O1_2  and  C2_3 
REMARK    2  A    between atoms: C5_6  and  C6_7 
REMARK    3  A    between atoms: C8_11  and  C9_12 
REMARK    4  A    between atoms: C14_18  and  O2_19 
ROOT
HETATM    1  C6  UNL     1      24.507   0.038  53.486  1.00  0.00     0.137 A 
HETATM    2  N1  UNL     1      25.370  -0.877  53.772  1.00  0.00    -0.224 NA
HETATM    3  C7  UNL     1      26.765  -0.523  53.676  1.00  0.00     0.232 A 
HETATM    4  N2  UNL     1      27.306   0.593  53.342  1.00  0.00    -0.253 NA
HETATM    5  C8  UNL     1      26.462   1.709  52.995  1.00  0.00     0.232 A 
HETATM    6  N3  UNL     1      25.082   1.292  53.110  1.00  0.00    -0.348 N 
HETATM    7  H15 UNL     1      24.487   2.111  52.856  1.00  0.00     0.163 HD
ENDROOT
BRANCH   1   8
HETATM    8  C5  UNL     1      23.053  -0.069  53.506  1.00  0.00     0.012 A 
HETATM    9  C4  UNL     1      22.525  -1.151  54.192  1.00  0.00     0.018 A 
HETATM   10  C3  UNL     1      21.149  -1.253  54.210  1.00  0.00     0.040 A 
HETATM   11  C2  UNL     1      20.369  -0.298  53.563  1.00  0.00     0.101 A 
HETATM   12  C14 UNL     1      20.913   0.773  52.886  1.00  0.00     0.102 A 
HETATM   13  C13 UNL     1      22.302   0.890  52.857  1.00  0.00     0.055 A 
BRANCH  11  14
HETATM   14  O1  UNL     1      19.003  -0.435  53.605  1.00  0.00    -0.353 OA
HETATM   15  C1  UNL     1      18.332  -1.639  53.319  1.00  0.00     0.210 C 
ENDBRANCH  11  14
BRANCH  12  16
HETATM   16  O2  UNL     1      20.059   1.677  52.269  1.00  0.00    -0.353 OA
HETATM   17  C15 UNL     1      20.426   3.054  52.273  1.00  0.00     0.210 C 
ENDBRANCH  12  16
ENDBRANCH   1   8
BRANCH   5  18
HETATM   18  C9  UNL     1      26.705   2.187  51.608  1.00  0.00     0.023 C 
HETATM   19  C10 UNL     1      26.039   3.032  50.832  1.00  0.00    -0.088 C 
HETATM   20  C11 UNL     1      26.510   3.349  49.435  1.00  0.00     0.042 C 
HETATM   21  C12 UNL     1      24.804   3.677  51.357  1.00  0.00     0.042 C 
ENDBRANCH   5  18
TORSDOF 4
ENDMDL
MODEL 7
REMARK VINA RESULT:      -6.3      4.110      6.369
REMARK  4 active torsions:
REMARK  status: ('A' for Active; 'I' for Inactive)
REMARK    1  A    between atoms: O1_2  and  C2_3 
REMARK    2  A    between atoms: C5_6  and  C6_7 
REMARK    3  A    between atoms: C8_11  and  C9_12 
REMARK    4  A    between atoms: C14_18  and  O2_19 
ROOT
HETATM    1  C6  UNL     1      25.689   4.872  49.463  1.00  0.00     0.137 A 
HETATM    2  N1  UNL     1      24.501   4.764  48.973  1.00  0.00    -0.224 NA
HETATM    3  C7  UNL     1      23.575   3.902  49.666  1.00  0.00     0.232 A 
HETATM    4  N2  UNL     1      23.748   3.200  50.728  1.00  0.00    -0.253 NA
HETATM    5  C8  UNL     1      25.030   3.221  51.386  1.00  0.00     0.232 A 
HETATM    6  N3  UNL     1      25.909   4.100  50.646  1.00  0.00    -0.348 N 
HETATM    7  H15 UNL     1      26.831   4.103  51.136  1.00  0.00     0.163 HD
ENDROOT
BRANCH   1   8
HETATM    8  C5  UNL     1      26.796   5.672  48.953  1.00  0.00     0.012 A 
HETATM    9  C4  UNL     1      27.928   4.977  48.559  1.00  0.00     0.018 A 
HETATM   10  C3  UNL     1      28.976   5.735  48.077  1.00  0.00     0.040 A 
HETATM   11  C2  UNL     1      28.861   7.121  48.006  1.00  0.00     0.101 A 
HETATM   12  C14 UNL     1      27.725   7.795  48.402  1.00  0.00     0.102 A 
HETATM   13  C13 UNL     1      26.657   7.044  48.892  1.00  0.00     0.055 A 
BRANCH  11  14
HETATM   14  O1  UNL     1      29.926   7.839  47.520  1.00  0.00    -0.353 OA
HETATM   15  C1  UNL     1      30.246   7.928  46.153  1.00  0.00     0.210 C 
ENDBRANCH  11  14
BRANCH  12  16
HETATM   16  O2  UNL     1      27.698   9.179  48.296  1.00  0.00    -0.353 OA
HETATM   17  C15 UNL     1      26.781   9.895  49.119  1.00  0.00     0.210 C 
ENDBRANCH  12  16
ENDBRANCH   1   8
BRANCH   5  18
HETATM   18  C9  UNL     1      25.649   1.871  51.455  1.00  0.00     0.023 C 
HETATM   19  C10 UNL     1      26.181   1.190  52.460  1.00  0.00    -0.088 C 
HETATM   20  C11 UNL     1      26.752  -0.191  52.256  1.00  0.00     0.042 C 
HETATM   21  C12 UNL     1      26.214   1.806  53.815  1.00  0.00     0.042 C 
ENDBRANCH   5  18
TORSDOF 4
ENDMDL
MODEL 8
REMARK VINA RESULT:      -6.3      3.659      6.927
REMARK  4 active torsions:
REMARK  status: ('A' for Active; 'I' for Inactive)
REMARK    1  A    between atoms: O1_2  and  C2_3 
REMARK    2  A    between atoms: C5_6  and  C6_7 
REMARK    3  A    between atoms: C8_11  and  C9_12 
REMARK    4  A    between atoms: C14_18  and  O2_19 
ROOT
HETATM    1  C6  UNL     1      26.222   3.578  50.312  1.00  0.00     0.137 A 
HETATM    2  N1  UNL     1      27.179   3.529  49.448  1.00  0.00    -0.224 NA
HETATM    3  C7  UNL     1      27.469   4.735  48.713  1.00  0.00     0.232 A 
HETATM    4  N2  UNL     1      26.910   5.889  48.780  1.00  0.00    -0.253 NA
HETATM    5  C8  UNL     1      25.823   6.093  49.703  1.00  0.00     0.232 A 
HETATM    6  N3  UNL     1      25.582   4.853  50.407  1.00  0.00    -0.348 N 
HETATM    7  H15 UNL     1      24.793   5.019  51.070  1.00  0.00     0.163 HD
ENDROOT
BRANCH   1   8
HETATM    8  C5  UNL     1      25.741   2.505  51.173  1.00  0.00     0.012 A 
HETATM    9  C4  UNL     1      26.638   1.484  51.444  1.00  0.00     0.018 A 
HETATM   10  C3  UNL     1      26.183   0.467  52.259  1.00  0.00     0.040 A 
HETATM   11  C2  UNL     1      24.885   0.504  52.761  1.00  0.00     0.101 A 
HETATM   12  C14 UNL     1      24.006   1.529  52.481  1.00  0.00     0.102 A 
HETATM   13  C13 UNL     1      24.451   2.564  51.659  1.00  0.00     0.055 A 
BRANCH  11  14
HETATM   14  O1  UNL     1      24.470  -0.527  53.568  1.00  0.00    -0.353 OA
HETATM   15  C1  UNL     1      25.049  -0.820  54.818  1.00  0.00     0.210 C 
ENDBRANCH  11  14
BRANCH  12  16
HETATM   16  O2  UNL     1      22.731   1.483  53.026  1.00  0.00    -0.353 OA
HETATM   17  C15 UNL     1      21.620   1.612  52.141  1.00  0.00     0.210 C 
ENDBRANCH  12  16
ENDBRANCH   1   8
BRANCH   5  18
HETATM   18  C9  UNL     1      24.570   6.504  49.014  1.00  0.00     0.023 C 
HETATM   19  C10 UNL     1      23.572   7.292  49.387  1.00  0.00    -0.088 C 
HETATM   20  C11 UNL     1      22.395   7.548  48.479  1.00  0.00     0.042 C 
HETATM   21  C12 UNL     1      23.618   7.936  50.728  1.00  0.00     0.042 C 
ENDBRANCH   5  18
TORSDOF 4
ENDMDL
MODEL 9
REMARK VINA RESULT:      -6.1      2.165      4.238
REMARK  4 active torsions:
REMARK  status: ('A' for Active; 'I' for Inactive)
REMARK    1  A    between atoms: O1_2  and  C2_3 
REMARK    2  A    between atoms: C5_6  and  C6_7 
REMARK    3  A    between atoms: C8_11  and  C9_12 
REMARK    4  A    between atoms: C14_18  and  O2_19 
ROOT
HETATM    1  C6  UNL     1      25.635   1.771  52.777  1.00  0.00     0.137 A 
HETATM    2  N1  UNL     1      26.603   1.703  53.627  1.00  0.00    -0.224 NA
HETATM    3  C7  UNL     1      26.722   0.489  54.396  1.00  0.00     0.232 A 
HETATM    4  N2  UNL     1      25.996  -0.571  54.373  1.00  0.00    -0.253 NA
HETATM    5  C8  UNL     1      24.875  -0.637  53.470  1.00  0.00     0.232 A 
HETATM    6  N3  UNL     1      24.810   0.604  52.730  1.00  0.00    -0.348 N 
HETATM    7  H15 UNL     1      23.995   0.539  52.082  1.00  0.00     0.163 HD
ENDROOT
BRANCH   1   8
HETATM    8  C5  UNL     1      25.305   2.879  51.889  1.00  0.00     0.012 A 
HETATM    9  C4  UNL     1      26.116   3.039  50.777  1.00  0.00     0.018 A 
HETATM   10  C3  UNL     1      25.804   4.088  49.936  1.00  0.00     0.040 A 
HETATM   11  C2  UNL     1      24.724   4.917  50.225  1.00  0.00     0.101 A 
HETATM   12  C14 UNL     1      23.927   4.742  51.337  1.00  0.00     0.102 A 
HETATM   13  C13 UNL     1      24.229   3.687  52.197  1.00  0.00     0.055 A 
BRANCH  11  14
HETATM   14  O1  UNL     1      24.446   5.950  49.363  1.00  0.00    -0.353 OA
HETATM   15  C1  UNL     1      23.663   5.807  48.203  1.00  0.00     0.210 C 
ENDBRANCH  11  14
BRANCH  12  16
HETATM   16  O2  UNL     1      22.870   5.617  51.546  1.00  0.00    -0.353 OA
HETATM   17  C15 UNL     1      21.545   5.122  51.365  1.00  0.00     0.210 C 
ENDBRANCH  12  16
ENDBRANCH   1   8
BRANCH   5  18
HETATM   18  C9  UNL     1      23.587  -0.836  54.186  1.00  0.00     0.023 C 
HETATM   19  C10 UNL     1      22.327  -0.715  53.793  1.00  0.00    -0.088 C 
HETATM   20  C11 UNL     1      21.183  -0.981  54.739  1.00  0.00     0.042 C 
HETATM   21  C12 UNL     1      22.041  -0.308  52.390  1.00  0.00     0.042 C 
ENDBRANCH   5  18
TORSDOF 4
ENDMDL
