MODEL 1
REMARK VINA RESULT:      -7.6      0.000      0.000
REMARK  6 active torsions:
REMARK  status: ('A' for Active; 'I' for Inactive)
REMARK    1  A    between atoms: C2_2  and  C3_3 
REMARK    2  A    between atoms: C3_3  and  C4_4 
REMARK    3  A    between atoms: C4_4  and  N1_5 
REMARK       I    between atoms: N1_5  and  C5_6 
REMARK    4  A    between atoms: N1_5  and  C12_15 
REMARK       I    between atoms: C5_6  and  N2_8 
REMARK    5  A    between atoms: N2_8  and  C6_9 
REMARK    6  A    between atoms: C17_20  and  O2_21 
ROOT
HETATM    1  N1  UNL     1      25.920   0.258  53.071  1.00  0.00    -0.297 N 
HETATM    2  C5  UNL     1      25.732   1.174  52.018  1.00  0.00     0.327 C 
HETATM    3  O1  UNL     1      26.583   1.375  51.146  1.00  0.00    -0.246 OA
HETATM    4  N2  UNL     1      24.537   1.930  51.897  1.00  0.00    -0.309 N 
HETATM    5  H10 UNL     1      23.745   1.848  52.572  1.00  0.00     0.170 HD
ENDROOT
BRANCH   1   6
HETATM    6  C4  UNL     1      24.885  -0.032  54.039  1.00  0.00     0.134 C 
BRANCH   6   7
HETATM    7  C3  UNL     1      23.739  -0.746  53.433  1.00  0.00     0.020 C 
BRANCH   7   8
HETATM    8  C2  UNL     1      22.403  -0.186  53.901  1.00  0.00    -0.003 C 
HETATM    9  C1  UNL     1      21.578  -1.244  54.600  1.00  0.00     0.005 C 
ENDBRANCH   7   8
ENDBRANCH   6   7
ENDBRANCH   1   6
BRANCH   1  10
HETATM   10  C12 UNL     1      27.110  -0.499  53.208  1.00  0.00     0.074 A 
HETATM   11  C13 UNL     1      27.117  -1.755  52.666  1.00  0.00     0.033 A 
HETATM   12  C14 UNL     1      28.218  -2.581  52.735  1.00  0.00     0.002 A 
HETATM   13  C15 UNL     1      29.350  -2.092  53.388  1.00  0.00     0.003 A 
HETATM   14  C16 UNL     1      29.317  -0.803  53.932  1.00  0.00     0.041 A 
HETATM   15  C17 UNL     1      28.192   0.029  53.855  1.00  0.00     0.118 A 
BRANCH  15  16
HETATM   16  O2  UNL     1      28.490   1.205  54.468  1.00  0.00    -0.239 OA
HETATM   17 CL1  UNL     1      28.735   2.662  53.629  1.00  0.00     0.067 Cl
ENDBRANCH  15  16
ENDBRANCH   1  10
BRANCH   4  18
HETATM   18  C6  UNL     1      24.297   2.872  50.849  1.00  0.00     0.036 A 
HETATM   19  C7  UNL     1      23.360   2.460  49.911  1.00  0.00     0.029 A 
HETATM   20  C8  UNL     1      23.060   3.304  48.858  1.00  0.00     0.002 A 
HETATM   21  C9  UNL     1      23.691   4.533  48.756  1.00  0.00     0.000 A 
HETATM   22  C10 UNL     1      24.615   4.913  49.700  1.00  0.00     0.002 A 
HETATM   23  C11 UNL     1      24.944   4.089  50.777  1.00  0.00     0.029 A 
ENDBRANCH   4  18
TORSDOF 6
ENDMDL
MODEL 2
REMARK VINA RESULT:      -7.2      2.485      6.452
REMARK  6 active torsions:
REMARK  status: ('A' for Active; 'I' for Inactive)
REMARK    1  A    between atoms: C2_2  and  C3_3 
REMARK    2  A    between atoms: C3_3  and  C4_4 
REMARK    3  A    between atoms: C4_4  and  N1_5 
REMARK       I    between atoms: N1_5  and  C5_6 
REMARK    4  A    between atoms: N1_5  and  C12_15 
REMARK       I    between atoms: C5_6  and  N2_8 
REMARK    5  A    between atoms: N2_8  and  C6_9 
REMARK    6  A    between atoms: C17_20  and  O2_21 
ROOT
HETATM    1  N1  UNL     1      23.517   1.710  52.580  1.00  0.00    -0.297 N 
HETATM    2  C5  UNL     1      24.877   1.363  52.688  1.00  0.00     0.327 C 
HETATM    3  O1  UNL     1      25.777   2.002  52.134  1.00  0.00    -0.246 OA
HETATM    4  N2  UNL     1      25.298   0.243  53.451  1.00  0.00    -0.309 N 
HETATM    5  H10 UNL     1      24.631  -0.374  53.965  1.00  0.00     0.170 HD
ENDROOT
BRANCH   1   6
HETATM    6  C4  UNL     1      22.478   1.006  53.299  1.00  0.00     0.134 C 
BRANCH   6   7
HETATM    7  C3  UNL     1      22.048  -0.223  52.594  1.00  0.00     0.020 C 
BRANCH   7   8
HETATM    8  C2  UNL     1      21.950  -1.416  53.534  1.00  0.00    -0.003 C 
HETATM    9  C1  UNL     1      22.198  -1.007  54.969  1.00  0.00     0.005 C 
ENDBRANCH   7   8
ENDBRANCH   6   7
ENDBRANCH   1   6
BRANCH   1  10
HETATM   10  C12 UNL     1      23.081   2.822  51.817  1.00  0.00     0.074 A 
HETATM   11  C13 UNL     1      23.029   4.033  52.451  1.00  0.00     0.033 A 
HETATM   12  C14 UNL     1      22.623   5.183  51.809  1.00  0.00     0.002 A 
HETATM   13  C15 UNL     1      22.259   5.078  50.467  1.00  0.00     0.003 A 
HETATM   14  C16 UNL     1      22.323   3.827  49.841  1.00  0.00     0.041 A 
HETATM   15  C17 UNL     1      22.738   2.664  50.502  1.00  0.00     0.118 A 
BRANCH  15  16
HETATM   16  O2  UNL     1      22.695   1.634  49.617  1.00  0.00    -0.239 OA
HETATM   17 CL1  UNL     1      21.254   0.864  49.149  1.00  0.00     0.067 Cl
ENDBRANCH  15  16
ENDBRANCH   1  10
BRANCH   4  18
HETATM   18  C6  UNL     1      26.665  -0.152  53.592  1.00  0.00     0.036 A 
HETATM   19  C7  UNL     1      27.350   0.506  54.605  1.00  0.00     0.029 A 
HETATM   20  C8  UNL     1      28.679   0.192  54.820  1.00  0.00     0.002 A 
HETATM   21  C9  UNL     1      29.299  -0.763  54.030  1.00  0.00     0.000 A 
HETATM   22  C10 UNL     1      28.595  -1.397  53.035  1.00  0.00     0.002 A 
HETATM   23  C11 UNL     1      27.252  -1.108  52.789  1.00  0.00     0.029 A 
ENDBRANCH   4  18
TORSDOF 6
ENDMDL
MODEL 3
REMARK VINA RESULT:      -7.2      1.843      6.024
REMARK  6 active torsions:
REMARK  status: ('A' for Active; 'I' for Inactive)
REMARK    1  A    between atoms: C2_2  and  C3_3 
REMARK    2  A    between atoms: C3_3  and  C4_4 
REMARK    3  A    between atoms: C4_4  and  N1_5 
REMARK       I    between atoms: N1_5  and  C5_6 
REMARK    4  A    between atoms: N1_5  and  C12_15 
REMARK       I    between atoms: C5_6  and  N2_8 
REMARK    5  A    between atoms: N2_8  and  C6_9 
REMARK    6  A    between atoms: C17_20  and  O2_21 
ROOT
HETATM    1  N1  UNL     1      23.627   1.273  52.145  1.00  0.00    -0.297 N 
HETATM    2  C5  UNL     1      24.993   0.951  52.254  1.00  0.00     0.327 C 
HETATM    3  O1  UNL     1      25.830   1.293  51.412  1.00  0.00    -0.246 OA
HETATM    4  N2  UNL     1      25.495   0.206  53.351  1.00  0.00    -0.309 N 
HETATM    5  H10 UNL     1      24.887  -0.139  54.126  1.00  0.00     0.170 HD
ENDROOT
BRANCH   1   6
HETATM    6  C4  UNL     1      22.669   0.941  53.177  1.00  0.00     0.134 C 
BRANCH   6   7
HETATM    7  C3  UNL     1      22.115  -0.422  53.004  1.00  0.00     0.020 C 
BRANCH   7   8
HETATM    8  C2  UNL     1      21.652  -1.022  54.325  1.00  0.00    -0.003 C 
HETATM    9  C1  UNL     1      22.821  -1.278  55.250  1.00  0.00     0.005 C 
ENDBRANCH   7   8
ENDBRANCH   6   7
ENDBRANCH   1   6
BRANCH   1  10
HETATM   10  C12 UNL     1      23.111   2.011  51.052  1.00  0.00     0.074 A 
HETATM   11  C13 UNL     1      22.358   1.327  50.136  1.00  0.00     0.033 A 
HETATM   12  C14 UNL     1      21.803   1.941  49.034  1.00  0.00     0.002 A 
HETATM   13  C15 UNL     1      22.034   3.307  48.872  1.00  0.00     0.003 A 
HETATM   14  C16 UNL     1      22.806   3.983  49.824  1.00  0.00     0.041 A 
HETATM   15  C17 UNL     1      23.365   3.350  50.942  1.00  0.00     0.118 A 
BRANCH  15  16
HETATM   16  O2  UNL     1      24.042   4.282  51.664  1.00  0.00    -0.239 OA
HETATM   17 CL1  UNL     1      23.661   4.676  53.272  1.00  0.00     0.067 Cl
ENDBRANCH  15  16
ENDBRANCH   1  10
BRANCH   4  18
HETATM   18  C6  UNL     1      26.872  -0.147  53.508  1.00  0.00     0.036 A 
HETATM   19  C7  UNL     1      27.604   0.736  54.290  1.00  0.00     0.029 A 
HETATM   20  C8  UNL     1      28.947   0.480  54.500  1.00  0.00     0.002 A 
HETATM   21  C9  UNL     1      29.533  -0.641  53.933  1.00  0.00     0.000 A 
HETATM   22  C10 UNL     1      28.781  -1.496  53.163  1.00  0.00     0.002 A 
HETATM   23  C11 UNL     1      27.424  -1.271  52.929  1.00  0.00     0.029 A 
ENDBRANCH   4  18
TORSDOF 6
ENDMDL
MODEL 4
REMARK VINA RESULT:      -7.2      2.990      7.218
REMARK  6 active torsions:
REMARK  status: ('A' for Active; 'I' for Inactive)
REMARK    1  A    between atoms: C2_2  and  C3_3 
REMARK    2  A    between atoms: C3_3  and  C4_4 
REMARK    3  A    between atoms: C4_4  and  N1_5 
REMARK       I    between atoms: N1_5  and  C5_6 
REMARK    4  A    between atoms: N1_5  and  C12_15 
REMARK       I    between atoms: C5_6  and  N2_8 
REMARK    5  A    between atoms: N2_8  and  C6_9 
REMARK    6  A    between atoms: C17_20  and  O2_21 
ROOT
HETATM    1  N1  UNL     1      24.771   3.368  50.802  1.00  0.00    -0.297 N 
HETATM    2  C5  UNL     1      25.484   2.714  51.824  1.00  0.00     0.327 C 
HETATM    3  O1  UNL     1      24.995   2.475  52.934  1.00  0.00    -0.246 OA
HETATM    4  N2  UNL     1      26.823   2.285  51.639  1.00  0.00    -0.309 N 
HETATM    5  H10 UNL     1      27.345   2.430  50.746  1.00  0.00     0.170 HD
ENDROOT
BRANCH   1   6
HETATM    6  C4  UNL     1      25.324   3.569  49.480  1.00  0.00     0.134 C 
BRANCH   6   7
HETATM    7  C3  UNL     1      26.084   4.836  49.381  1.00  0.00     0.020 C 
BRANCH   7   8
HETATM    8  C2  UNL     1      27.469   4.626  48.786  1.00  0.00    -0.003 C 
HETATM    9  C1  UNL     1      28.075   5.935  48.330  1.00  0.00     0.005 C 
ENDBRANCH   7   8
ENDBRANCH   6   7
ENDBRANCH   1   6
BRANCH   1  10
HETATM   10  C12 UNL     1      23.436   3.807  50.976  1.00  0.00     0.074 A 
HETATM   11  C13 UNL     1      22.441   2.925  50.655  1.00  0.00     0.033 A 
HETATM   12  C14 UNL     1      21.105   3.240  50.785  1.00  0.00     0.002 A 
HETATM   13  C15 UNL     1      20.788   4.512  51.264  1.00  0.00     0.003 A 
HETATM   14  C16 UNL     1      21.825   5.395  51.586  1.00  0.00     0.041 A 
HETATM   15  C17 UNL     1      23.179   5.064  51.450  1.00  0.00     0.118 A 
BRANCH  15  16
HETATM   16  O2  UNL     1      23.920   6.130  51.853  1.00  0.00    -0.239 OA
HETATM   17 CL1  UNL     1      24.082   7.554  50.940  1.00  0.00     0.067 Cl
ENDBRANCH  15  16
ENDBRANCH   1  10
BRANCH   4  18
HETATM   18  C6  UNL     1      27.590   1.617  52.644  1.00  0.00     0.036 A 
HETATM   19  C7  UNL     1      27.407   0.242  52.685  1.00  0.00     0.029 A 
HETATM   20  C8  UNL     1      28.107  -0.493  53.625  1.00  0.00     0.002 A 
HETATM   21  C9  UNL     1      28.968   0.148  54.501  1.00  0.00     0.000 A 
HETATM   22  C10 UNL     1      29.127   1.512  54.436  1.00  0.00     0.002 A 
HETATM   23  C11 UNL     1      28.440   2.287  53.501  1.00  0.00     0.029 A 
ENDBRANCH   4  18
TORSDOF 6
ENDMDL
MODEL 5
REMARK VINA RESULT:      -6.9      3.197      7.374
REMARK  6 active torsions:
REMARK  status: ('A' for Active; 'I' for Inactive)
REMARK    1  A    between atoms: C2_2  and  C3_3 
REMARK    2  A    between atoms: C3_3  and  C4_4 
REMARK    3  A    between atoms: C4_4  and  N1_5 
REMARK       I    between atoms: N1_5  and  C5_6 
REMARK    4  A    between atoms: N1_5  and  C12_15 
REMARK       I    between atoms: C5_6  and  N2_8 
REMARK    5  A    between atoms: N2_8  and  C6_9 
REMARK    6  A    between atoms: C17_20  and  O2_21 
ROOT
HETATM    1  N1  UNL     1      24.741   3.548  50.808  1.00  0.00    -0.297 N 
HETATM    2  C5  UNL     1      25.433   2.805  51.783  1.00  0.00     0.327 C 
HETATM    3  O1  UNL     1      24.880   2.333  52.783  1.00  0.00    -0.246 OA
HETATM    4  N2  UNL     1      26.825   2.550  51.674  1.00  0.00    -0.309 N 
HETATM    5  H10 UNL     1      27.402   2.896  50.876  1.00  0.00     0.170 HD
ENDROOT
BRANCH   1   6
HETATM    6  C4  UNL     1      25.380   4.024  49.601  1.00  0.00     0.134 C 
BRANCH   6   7
HETATM    7  C3  UNL     1      25.814   5.435  49.720  1.00  0.00     0.020 C 
BRANCH   7   8
HETATM    8  C2  UNL     1      26.759   5.839  48.597  1.00  0.00    -0.003 C 
HETATM    9  C1  UNL     1      27.978   4.944  48.557  1.00  0.00     0.005 C 
ENDBRANCH   7   8
ENDBRANCH   6   7
ENDBRANCH   1   6
BRANCH   1  10
HETATM   10  C12 UNL     1      23.354   3.814  50.908  1.00  0.00     0.074 A 
HETATM   11  C13 UNL     1      22.985   5.000  51.482  1.00  0.00     0.033 A 
HETATM   12  C14 UNL     1      21.665   5.368  51.630  1.00  0.00     0.002 A 
HETATM   13  C15 UNL     1      20.693   4.480  51.169  1.00  0.00     0.003 A 
HETATM   14  C16 UNL     1      21.097   3.274  50.585  1.00  0.00     0.041 A 
HETATM   15  C17 UNL     1      22.442   2.910  50.438  1.00  0.00     0.118 A 
BRANCH  15  16
HETATM   16  O2  UNL     1      22.490   1.695  49.830  1.00  0.00    -0.239 OA
HETATM   17 CL1  UNL     1      21.909   1.413  48.258  1.00  0.00     0.067 Cl
ENDBRANCH  15  16
ENDBRANCH   1  10
BRANCH   4  18
HETATM   18  C6  UNL     1      27.573   1.803  52.636  1.00  0.00     0.036 A 
HETATM   19  C7  UNL     1      27.345   0.434  52.601  1.00  0.00     0.029 A 
HETATM   20  C8  UNL     1      28.023  -0.375  53.495  1.00  0.00     0.002 A 
HETATM   21  C9  UNL     1      28.909   0.187  54.400  1.00  0.00     0.000 A 
HETATM   22  C10 UNL     1      29.113   1.546  54.410  1.00  0.00     0.002 A 
HETATM   23  C11 UNL     1      28.448   2.395  53.524  1.00  0.00     0.029 A 
ENDBRANCH   4  18
TORSDOF 6
ENDMDL
MODEL 6
REMARK VINA RESULT:      -6.9      2.866      6.648
REMARK  6 active torsions:
REMARK  status: ('A' for Active; 'I' for Inactive)
REMARK    1  A    between atoms: C2_2  and  C3_3 
REMARK    2  A    between atoms: C3_3  and  C4_4 
REMARK    3  A    between atoms: C4_4  and  N1_5 
REMARK       I    between atoms: N1_5  and  C5_6 
REMARK    4  A    between atoms: N1_5  and  C12_15 
REMARK       I    between atoms: C5_6  and  N2_8 
REMARK    5  A    between atoms: N2_8  and  C6_9 
REMARK    6  A    between atoms: C17_20  and  O2_21 
ROOT
HETATM    1  N1  UNL     1      23.654   1.095  52.430  1.00  0.00    -0.297 N 
HETATM    2  C5  UNL     1      24.764   0.295  52.762  1.00  0.00     0.327 C 
HETATM    3  O1  UNL     1      24.653  -0.833  53.254  1.00  0.00    -0.246 OA
HETATM    4  N2  UNL     1      26.093   0.745  52.550  1.00  0.00    -0.309 N 
HETATM    5  H10 UNL     1      26.315   1.679  52.141  1.00  0.00     0.170 HD
ENDROOT
BRANCH   1   6
HETATM    6  C4  UNL     1      23.792   2.379  51.778  1.00  0.00     0.134 C 
BRANCH   6   7
HETATM    7  C3  UNL     1      23.949   3.483  52.752  1.00  0.00     0.020 C 
BRANCH   7   8
HETATM    8  C2  UNL     1      22.942   4.600  52.516  1.00  0.00    -0.003 C 
HETATM    9  C1  UNL     1      21.819   4.144  51.611  1.00  0.00     0.005 C 
ENDBRANCH   7   8
ENDBRANCH   6   7
ENDBRANCH   1   6
BRANCH   1  10
HETATM   10  C12 UNL     1      22.322   0.662  52.642  1.00  0.00     0.074 A 
HETATM   11  C13 UNL     1      21.907   0.533  53.940  1.00  0.00     0.033 A 
HETATM   12  C14 UNL     1      20.633   0.121  54.268  1.00  0.00     0.002 A 
HETATM   13  C15 UNL     1      19.758  -0.167  53.219  1.00  0.00     0.003 A 
HETATM   14  C16 UNL     1      20.208  -0.026  51.902  1.00  0.00     0.041 A 
HETATM   15  C17 UNL     1      21.505   0.394  51.579  1.00  0.00     0.118 A 
BRANCH  15  16
HETATM   16  O2  UNL     1      21.614   0.434  50.225  1.00  0.00    -0.239 OA
HETATM   17 CL1  UNL     1      20.669   1.447  49.240  1.00  0.00     0.067 Cl
ENDBRANCH  15  16
ENDBRANCH   1  10
BRANCH   4  18
HETATM   18  C6  UNL     1      27.253  -0.028  52.870  1.00  0.00     0.036 A 
HETATM   19  C7  UNL     1      28.283   0.700  53.449  1.00  0.00     0.029 A 
HETATM   20  C8  UNL     1      29.448   0.040  53.795  1.00  0.00     0.002 A 
HETATM   21  C9  UNL     1      29.567  -1.321  53.561  1.00  0.00     0.000 A 
HETATM   22  C10 UNL     1      28.528  -2.013  52.986  1.00  0.00     0.002 A 
HETATM   23  C11 UNL     1      27.337  -1.383  52.624  1.00  0.00     0.029 A 
ENDBRANCH   4  18
TORSDOF 6
ENDMDL
MODEL 7
REMARK VINA RESULT:      -6.8      2.765      6.602
REMARK  6 active torsions:
REMARK  status: ('A' for Active; 'I' for Inactive)
REMARK    1  A    between atoms: C2_2  and  C3_3 
REMARK    2  A    between atoms: C3_3  and  C4_4 
REMARK    3  A    between atoms: C4_4  and  N1_5 
REMARK       I    between atoms: N1_5  and  C5_6 
REMARK    4  A    between atoms: N1_5  and  C12_15 
REMARK       I    between atoms: C5_6  and  N2_8 
REMARK    5  A    between atoms: N2_8  and  C6_9 
REMARK    6  A    between atoms: C17_20  and  O2_21 
ROOT
HETATM    1  N1  UNL     1      23.209   1.913  52.269  1.00  0.00    -0.297 N 
HETATM    2  C5  UNL     1      24.557   1.559  52.467  1.00  0.00     0.327 C 
HETATM    3  O1  UNL     1      25.497   2.224  52.019  1.00  0.00    -0.246 OA
HETATM    4  N2  UNL     1      24.920   0.401  53.202  1.00  0.00    -0.309 N 
HETATM    5  H10 UNL     1      24.217  -0.241  53.630  1.00  0.00     0.170 HD
ENDROOT
BRANCH   1   6
HETATM    6  C4  UNL     1      22.119   1.174  52.867  1.00  0.00     0.134 C 
BRANCH   6   7
HETATM    7  C3  UNL     1      21.647   0.075  51.995  1.00  0.00     0.020 C 
BRANCH   7   8
HETATM    8  C2  UNL     1      20.271   0.361  51.409  1.00  0.00    -0.003 C 
HETATM    9  C1  UNL     1      19.605   1.521  52.116  1.00  0.00     0.005 C 
ENDBRANCH   7   8
ENDBRANCH   6   7
ENDBRANCH   1   6
BRANCH   1  10
HETATM   10  C12 UNL     1      22.833   3.063  51.532  1.00  0.00     0.074 A 
HETATM   11  C13 UNL     1      22.609   4.213  52.239  1.00  0.00     0.033 A 
HETATM   12  C14 UNL     1      22.241   5.392  51.628  1.00  0.00     0.002 A 
HETATM   13  C15 UNL     1      22.098   5.383  50.241  1.00  0.00     0.003 A 
HETATM   14  C16 UNL     1      22.333   4.193  49.542  1.00  0.00     0.041 A 
HETATM   15  C17 UNL     1      22.708   3.000  50.171  1.00  0.00     0.118 A 
BRANCH  15  16
HETATM   16  O2  UNL     1      22.865   2.046  49.216  1.00  0.00    -0.239 OA
HETATM   17 CL1  UNL     1      22.400   2.260  47.596  1.00  0.00     0.067 Cl
ENDBRANCH  15  16
ENDBRANCH   1  10
BRANCH   4  18
HETATM   18  C6  UNL     1      26.273  -0.003  53.431  1.00  0.00     0.036 A 
HETATM   19  C7  UNL     1      26.866   0.584  54.541  1.00  0.00     0.029 A 
HETATM   20  C8  UNL     1      28.174   0.256  54.845  1.00  0.00     0.002 A 
HETATM   21  C9  UNL     1      28.865  -0.642  54.047  1.00  0.00     0.000 A 
HETATM   22  C10 UNL     1      28.250  -1.206  52.955  1.00  0.00     0.002 A 
HETATM   23  C11 UNL     1      26.931  -0.901  52.616  1.00  0.00     0.029 A 
ENDBRANCH   4  18
TORSDOF 6
ENDMDL
MODEL 8
REMARK VINA RESULT:      -6.6      2.922      6.996
REMARK  6 active torsions:
REMARK  status: ('A' for Active; 'I' for Inactive)
REMARK    1  A    between atoms: C2_2  and  C3_3 
REMARK    2  A    between atoms: C3_3  and  C4_4 
REMARK    3  A    between atoms: C4_4  and  N1_5 
REMARK       I    between atoms: N1_5  and  C5_6 
REMARK    4  A    between atoms: N1_5  and  C12_15 
REMARK       I    between atoms: C5_6  and  N2_8 
REMARK    5  A    between atoms: N2_8  and  C6_9 
REMARK    6  A    between atoms: C17_20  and  O2_21 
ROOT
HETATM    1  N1  UNL     1      23.886   2.503  50.564  1.00  0.00    -0.297 N 
HETATM    2  C5  UNL     1      24.734   1.832  51.466  1.00  0.00     0.327 C 
HETATM    3  O1  UNL     1      24.310   1.075  52.346  1.00  0.00    -0.246 OA
HETATM    4  N2  UNL     1      26.143   1.988  51.417  1.00  0.00    -0.309 N 
HETATM    5  H10 UNL     1      26.620   2.601  50.718  1.00  0.00     0.170 HD
ENDROOT
BRANCH   1   6
HETATM    6  C4  UNL     1      24.396   3.321  49.485  1.00  0.00     0.134 C 
BRANCH   6   7
HETATM    7  C3  UNL     1      24.826   4.658  49.956  1.00  0.00     0.020 C 
BRANCH   7   8
HETATM    8  C2  UNL     1      25.859   5.285  49.030  1.00  0.00    -0.003 C 
HETATM    9  C1  UNL     1      27.142   4.483  49.016  1.00  0.00     0.005 C 
ENDBRANCH   7   8
ENDBRANCH   6   7
ENDBRANCH   1   6
BRANCH   1  10
HETATM   10  C12 UNL     1      22.477   2.361  50.606  1.00  0.00     0.074 A 
HETATM   11  C13 UNL     1      21.935   1.308  49.921  1.00  0.00     0.033 A 
HETATM   12  C14 UNL     1      20.578   1.069  49.893  1.00  0.00     0.002 A 
HETATM   13  C15 UNL     1      19.753   1.948  50.595  1.00  0.00     0.003 A 
HETATM   14  C16 UNL     1      20.334   3.017  51.287  1.00  0.00     0.041 A 
HETATM   15  C17 UNL     1      21.715   3.251  51.311  1.00  0.00     0.118 A 
BRANCH  15  16
HETATM   16  O2  UNL     1      21.947   4.352  52.073  1.00  0.00    -0.239 OA
HETATM   17 CL1  UNL     1      21.801   5.941  51.489  1.00  0.00     0.067 Cl
ENDBRANCH  15  16
ENDBRANCH   1  10
BRANCH   4  18
HETATM   18  C6  UNL     1      27.046   1.331  52.309  1.00  0.00     0.036 A 
HETATM   19  C7  UNL     1      27.880   2.187  53.015  1.00  0.00     0.029 A 
HETATM   20  C8  UNL     1      28.789   1.644  53.904  1.00  0.00     0.002 A 
HETATM   21  C9  UNL     1      28.854   0.271  54.073  1.00  0.00     0.000 A 
HETATM   22  C10 UNL     1      28.015  -0.551  53.359  1.00  0.00     0.002 A 
HETATM   23  C11 UNL     1      27.084  -0.041  52.454  1.00  0.00     0.029 A 
ENDBRANCH   4  18
TORSDOF 6
ENDMDL
MODEL 9
REMARK VINA RESULT:      -6.5      3.648      7.420
REMARK  6 active torsions:
REMARK  status: ('A' for Active; 'I' for Inactive)
REMARK    1  A    between atoms: C2_2  and  C3_3 
REMARK    2  A    between atoms: C3_3  and  C4_4 
REMARK    3  A    between atoms: C4_4  and  N1_5 
REMARK       I    between atoms: N1_5  and  C5_6 
REMARK    4  A    between atoms: N1_5  and  C12_15 
REMARK       I    between atoms: C5_6  and  N2_8 
REMARK    5  A    between atoms: N2_8  and  C6_9 
REMARK    6  A    between atoms: C17_20  and  O2_21 
ROOT
HETATM    1  N1  UNL     1      22.528   3.996  50.546  1.00  0.00    -0.297 N 
HETATM    2  C5  UNL     1      22.574   3.143  51.665  1.00  0.00     0.327 C 
HETATM    3  O1  UNL     1      23.112   3.464  52.730  1.00  0.00    -0.246 OA
HETATM    4  N2  UNL     1      21.998   1.847  51.635  1.00  0.00    -0.309 N 
HETATM    5  H10 UNL     1      21.515   1.462  50.793  1.00  0.00     0.170 HD
ENDROOT
BRANCH   1   6
HETATM    6  C4  UNL     1      21.823   3.643  49.333  1.00  0.00     0.134 C 
BRANCH   6   7
HETATM    7  C3  UNL     1      22.698   3.718  48.140  1.00  0.00     0.020 C 
BRANCH   7   8
HETATM    8  C2  UNL     1      22.088   4.573  47.038  1.00  0.00    -0.003 C 
HETATM    9  C1  UNL     1      22.718   5.947  46.996  1.00  0.00     0.005 C 
ENDBRANCH   7   8
ENDBRANCH   6   7
ENDBRANCH   1   6
BRANCH   1  10
HETATM   10  C12 UNL     1      23.105   5.290  50.560  1.00  0.00     0.074 A 
HETATM   11  C13 UNL     1      22.250   6.354  50.654  1.00  0.00     0.033 A 
HETATM   12  C14 UNL     1      22.696   7.657  50.679  1.00  0.00     0.002 A 
HETATM   13  C15 UNL     1      24.074   7.868  50.604  1.00  0.00     0.003 A 
HETATM   14  C16 UNL     1      24.926   6.762  50.509  1.00  0.00     0.041 A 
HETATM   15  C17 UNL     1      24.462   5.441  50.486  1.00  0.00     0.118 A 
BRANCH  15  16
HETATM   16  O2  UNL     1      25.536   4.614  50.397  1.00  0.00    -0.239 OA
HETATM   17 CL1  UNL     1      26.580   4.577  49.056  1.00  0.00     0.067 Cl
ENDBRANCH  15  16
ENDBRANCH   1  10
BRANCH   4  18
HETATM   18  C6  UNL     1      22.018   0.943  52.743  1.00  0.00     0.036 A 
HETATM   19  C7  UNL     1      23.180   0.191  52.847  1.00  0.00     0.029 A 
HETATM   20  C8  UNL     1      23.294  -0.713  53.888  1.00  0.00     0.002 A 
HETATM   21  C9  UNL     1      22.259  -0.852  54.799  1.00  0.00     0.000 A 
HETATM   22  C10 UNL     1      21.121  -0.092  54.668  1.00  0.00     0.002 A 
HETATM   23  C11 UNL     1      20.969   0.830  53.632  1.00  0.00     0.029 A 
ENDBRANCH   4  18
TORSDOF 6
ENDMDL
