MODEL 1
REMARK VINA RESULT:      -8.7      0.000      0.000
REMARK  4 active torsions:
REMARK  status: ('A' for Active; 'I' for Inactive)
REMARK    1  A    between atoms: C9_9  and  N1_10 
REMARK    2  A    between atoms: N1_10  and  C10_11 
REMARK    3  A    between atoms: C10_11  and  C12_13 
REMARK    4  A    between atoms: C20_24  and  O1_25 
ROOT
HETATM    1  C1  UNL     1      25.714   8.258  47.867  1.00  0.00     0.048 C 
HETATM    2  C2  UNL     1      26.124   7.038  48.651  1.00  0.00    -0.035 C 
HETATM    3  C3  UNL     1      27.090   6.425  47.965  1.00  0.00     0.007 C 
HETATM    4  C4  UNL     1      27.720   5.193  48.454  1.00  0.00     0.003 C 
HETATM    5  C5  UNL     1      27.253   4.289  49.326  1.00  0.00     0.030 C 
HETATM    6  C6  UNL     1      25.950   4.377  49.989  1.00  0.00     0.040 A 
HETATM    7  C7  UNL     1      25.280   3.276  50.499  1.00  0.00     0.049 A 
HETATM    8  C8  UNL     1      24.083   3.713  51.055  1.00  0.00     0.058 A 
HETATM    9  C9  UNL     1      23.080   2.991  51.683  1.00  0.00     0.139 A 
HETATM   10  N2  UNL     1      22.055   3.753  52.102  1.00  0.00    -0.224 NA
HETATM   11  C18 UNL     1      21.997   5.081  51.937  1.00  0.00     0.237 A 
HETATM   12  N3  UNL     1      22.974   5.777  51.328  1.00  0.00    -0.223 NA
HETATM   13  C19 UNL     1      24.031   5.075  50.882  1.00  0.00     0.148 A 
HETATM   14  N4  UNL     1      25.157   5.444  50.244  1.00  0.00    -0.300 N 
HETATM   15  C20 UNL     1      25.417   6.816  49.908  1.00  0.00     0.256 C 
ENDROOT
BRANCH   9  16
HETATM   16  N1  UNL     1      23.170   1.577  51.871  1.00  0.00    -0.366 N 
HETATM   17  H8  UNL     1      22.830   1.010  51.034  1.00  0.00     0.161 HD
BRANCH  16  18
HETATM   18  C10 UNL     1      23.651   0.881  53.037  1.00  0.00     0.108 C 
HETATM   19  C11 UNL     1      22.964  -0.472  53.135  1.00  0.00     0.037 C 
BRANCH  18  20
HETATM   20  C12 UNL     1      25.117   0.737  53.131  1.00  0.00    -0.058 A 
HETATM   21  C13 UNL     1      25.593  -0.413  52.618  1.00  0.00     0.004 A 
HETATM   22  C14 UNL     1      27.004  -0.733  52.614  1.00  0.00    -0.004 A 
HETATM   23  C15 UNL     1      27.714   0.235  53.157  1.00  0.00    -0.026 A 
HETATM   24  C16 UNL     1      27.368   1.543  53.751  1.00  0.00     0.031 A 
HETATM   25  C17 UNL     1      25.890   1.812  53.778  1.00  0.00     0.040 A 
ENDBRANCH  18  20
ENDBRANCH  16  18
ENDBRANCH   9  16
BRANCH  15  26
HETATM   26  O1  UNL     1      26.070   7.394  51.000  1.00  0.00    -0.372 OA
HETATM   27  H22 UNL     1      26.664   6.740  51.480  1.00  0.00     0.212 HD
ENDBRANCH  15  26
TORSDOF 4
ENDMDL
MODEL 2
REMARK VINA RESULT:      -8.6      1.346      2.637
REMARK  4 active torsions:
REMARK  status: ('A' for Active; 'I' for Inactive)
REMARK    1  A    between atoms: C9_9  and  N1_10 
REMARK    2  A    between atoms: N1_10  and  C10_11 
REMARK    3  A    between atoms: C10_11  and  C12_13 
REMARK    4  A    between atoms: C20_24  and  O1_25 
ROOT
HETATM    1  C1  UNL     1      25.994   8.821  47.901  1.00  0.00     0.048 C 
HETATM    2  C2  UNL     1      26.392   7.522  48.553  1.00  0.00    -0.035 C 
HETATM    3  C3  UNL     1      27.367   6.985  47.818  1.00  0.00     0.007 C 
HETATM    4  C4  UNL     1      27.989   5.706  48.177  1.00  0.00     0.003 C 
HETATM    5  C5  UNL     1      27.509   4.713  48.939  1.00  0.00     0.030 C 
HETATM    6  C6  UNL     1      26.197   4.732  49.590  1.00  0.00     0.040 A 
HETATM    7  C7  UNL     1      25.519   3.583  49.967  1.00  0.00     0.049 A 
HETATM    8  C8  UNL     1      24.315   3.959  50.551  1.00  0.00     0.058 A 
HETATM    9  C9  UNL     1      23.303   3.175  51.083  1.00  0.00     0.139 A 
HETATM   10  N2  UNL     1      22.273   3.889  51.568  1.00  0.00    -0.224 NA
HETATM   11  C18 UNL     1      22.218   5.227  51.548  1.00  0.00     0.237 A 
HETATM   12  N3  UNL     1      23.204   5.983  51.032  1.00  0.00    -0.223 NA
HETATM   13  C19 UNL     1      24.267   5.332  50.527  1.00  0.00     0.148 A 
HETATM   14  N4  UNL     1      25.401   5.766  49.948  1.00  0.00    -0.300 N 
HETATM   15  C20 UNL     1      25.668   7.166  49.768  1.00  0.00     0.256 C 
ENDROOT
BRANCH   9  16
HETATM   16  N1  UNL     1      23.389   1.749  51.117  1.00  0.00    -0.366 N 
HETATM   17  H8  UNL     1      23.037   1.276  50.228  1.00  0.00     0.161 HD
BRANCH  16  18
HETATM   18  C10 UNL     1      23.882   0.930  52.194  1.00  0.00     0.108 C 
HETATM   19  C11 UNL     1      24.734   1.780  53.124  1.00  0.00     0.037 C 
BRANCH  18  20
HETATM   20  C12 UNL     1      22.855   0.187  52.950  1.00  0.00    -0.058 A 
HETATM   21  C13 UNL     1      23.336  -0.508  53.998  1.00  0.00     0.004 A 
HETATM   22  C14 UNL     1      22.482  -1.294  54.863  1.00  0.00    -0.004 A 
HETATM   23  C15 UNL     1      21.222  -1.219  54.485  1.00  0.00    -0.026 A 
HETATM   24  C16 UNL     1      20.527  -0.512  53.388  1.00  0.00     0.031 A 
HETATM   25  C17 UNL     1      21.457   0.251  52.489  1.00  0.00     0.040 A 
ENDBRANCH  18  20
ENDBRANCH  16  18
ENDBRANCH   9  16
BRANCH  15  26
HETATM   26  O1  UNL     1      26.306   7.619  50.925  1.00  0.00    -0.372 OA
HETATM   27  H22 UNL     1      26.047   7.088  51.738  1.00  0.00     0.212 HD
ENDBRANCH  15  26
TORSDOF 4
ENDMDL
MODEL 3
REMARK VINA RESULT:      -8.4      4.206      6.531
REMARK  4 active torsions:
REMARK  status: ('A' for Active; 'I' for Inactive)
REMARK    1  A    between atoms: C9_9  and  N1_10 
REMARK    2  A    between atoms: N1_10  and  C10_11 
REMARK    3  A    between atoms: C10_11  and  C12_13 
REMARK    4  A    between atoms: C20_24  and  O1_25 
ROOT
HETATM    1  C1  UNL     1      28.665   0.516  54.923  1.00  0.00     0.048 C 
HETATM    2  C2  UNL     1      27.615   0.575  53.843  1.00  0.00    -0.035 C 
HETATM    3  C3  UNL     1      27.921   1.595  53.040  1.00  0.00     0.007 C 
HETATM    4  C4  UNL     1      27.097   1.934  51.875  1.00  0.00     0.003 C 
HETATM    5  C5  UNL     1      25.812   1.642  51.630  1.00  0.00     0.030 C 
HETATM    6  C6  UNL     1      24.950   0.884  52.540  1.00  0.00     0.040 A 
HETATM    7  C7  UNL     1      23.566   0.975  52.530  1.00  0.00     0.049 A 
HETATM    8  C8  UNL     1      23.066   0.130  53.513  1.00  0.00     0.058 A 
HETATM    9  C9  UNL     1      21.754  -0.123  53.884  1.00  0.00     0.139 A 
HETATM   10  N2  UNL     1      21.644  -1.009  54.888  1.00  0.00    -0.224 NA
HETATM   11  C18 UNL     1      22.691  -1.599  55.481  1.00  0.00     0.237 A 
HETATM   12  N3  UNL     1      23.962  -1.351  55.117  1.00  0.00    -0.223 NA
HETATM   13  C19 UNL     1      24.145  -0.471  54.116  1.00  0.00     0.148 A 
HETATM   14  N4  UNL     1      25.255  -0.003  53.516  1.00  0.00    -0.300 N 
HETATM   15  C20 UNL     1      26.565  -0.436  53.913  1.00  0.00     0.256 C 
ENDROOT
BRANCH   9  16
HETATM   16  N1  UNL     1      20.649   0.498  53.225  1.00  0.00    -0.366 N 
HETATM   17  H8  UNL     1      20.213   1.299  53.778  1.00  0.00     0.161 HD
BRANCH  16  18
HETATM   18  C10 UNL     1      20.093   0.153  51.941  1.00  0.00     0.108 C 
HETATM   19  C11 UNL     1      18.589  -0.024  52.075  1.00  0.00     0.037 C 
BRANCH  18  20
HETATM   20  C12 UNL     1      20.420   1.078  50.838  1.00  0.00    -0.058 A 
HETATM   21  C13 UNL     1      21.156   0.525  49.855  1.00  0.00     0.004 A 
HETATM   22  C14 UNL     1      21.570   1.272  48.686  1.00  0.00    -0.004 A 
HETATM   23  C15 UNL     1      21.129   2.512  48.731  1.00  0.00    -0.026 A 
HETATM   24  C16 UNL     1      20.317   3.271  49.706  1.00  0.00     0.031 A 
HETATM   25  C17 UNL     1      19.951   2.472  50.924  1.00  0.00     0.040 A 
ENDBRANCH  18  20
ENDBRANCH  16  18
ENDBRANCH   9  16
BRANCH  15  26
HETATM   26  O1  UNL     1      26.869  -1.577  53.167  1.00  0.00    -0.372 OA
HETATM   27  H22 UNL     1      26.183  -2.302  53.280  1.00  0.00     0.212 HD
ENDBRANCH  15  26
TORSDOF 4
ENDMDL
MODEL 4
REMARK VINA RESULT:      -8.4      2.222      6.654
REMARK  4 active torsions:
REMARK  status: ('A' for Active; 'I' for Inactive)
REMARK    1  A    between atoms: C9_9  and  N1_10 
REMARK    2  A    between atoms: N1_10  and  C10_11 
REMARK    3  A    between atoms: C10_11  and  C12_13 
REMARK    4  A    between atoms: C20_24  and  O1_25 
ROOT
HETATM    1  C1  UNL     1      21.056  -0.741  54.339  1.00  0.00     0.048 C 
HETATM    2  C2  UNL     1      22.173  -0.162  53.510  1.00  0.00    -0.035 C 
HETATM    3  C3  UNL     1      23.318  -0.673  53.965  1.00  0.00     0.007 C 
HETATM    4  C4  UNL     1      24.611  -0.315  53.373  1.00  0.00     0.003 C 
HETATM    5  C5  UNL     1      24.946   0.767  52.656  1.00  0.00     0.030 C 
HETATM    6  C6  UNL     1      24.022   1.850  52.314  1.00  0.00     0.040 A 
HETATM    7  C7  UNL     1      24.438   3.135  52.002  1.00  0.00     0.049 A 
HETATM    8  C8  UNL     1      23.312   3.905  51.731  1.00  0.00     0.058 A 
HETATM    9  C9  UNL     1      23.214   5.240  51.373  1.00  0.00     0.139 A 
HETATM   10  N2  UNL     1      21.949   5.653  51.187  1.00  0.00    -0.224 NA
HETATM   11  C18 UNL     1      20.878   4.860  51.329  1.00  0.00     0.237 A 
HETATM   12  N3  UNL     1      20.978   3.564  51.676  1.00  0.00    -0.223 NA
HETATM   13  C19 UNL     1      22.219   3.085  51.879  1.00  0.00     0.148 A 
HETATM   14  N4  UNL     1      22.671   1.867  52.227  1.00  0.00    -0.300 N 
HETATM   15  C20 UNL     1      21.775   0.769  52.459  1.00  0.00     0.256 C 
ENDROOT
BRANCH   9  16
HETATM   16  N1  UNL     1      24.369   6.064  51.202  1.00  0.00    -0.366 N 
HETATM   17  H8  UNL     1      24.979   6.136  52.075  1.00  0.00     0.161 HD
BRANCH  16  18
HETATM   18  C10 UNL     1      24.766   6.777  50.015  1.00  0.00     0.108 C 
HETATM   19  C11 UNL     1      24.792   8.269  50.308  1.00  0.00     0.037 C 
BRANCH  18  20
HETATM   20  C12 UNL     1      26.035   6.337  49.403  1.00  0.00    -0.058 A 
HETATM   21  C13 UNL     1      26.834   7.345  49.005  1.00  0.00     0.004 A 
HETATM   22  C14 UNL     1      28.122   7.113  48.387  1.00  0.00    -0.004 A 
HETATM   23  C15 UNL     1      28.379   5.824  48.289  1.00  0.00    -0.026 A 
HETATM   24  C16 UNL     1      27.637   4.605  48.673  1.00  0.00     0.031 A 
HETATM   25  C17 UNL     1      26.287   4.892  49.265  1.00  0.00     0.040 A 
ENDBRANCH  18  20
ENDBRANCH  16  18
ENDBRANCH   9  16
BRANCH  15  26
HETATM   26  O1  UNL     1      21.568   0.135  51.232  1.00  0.00    -0.372 OA
HETATM   27  H22 UNL     1      20.599   0.121  50.967  1.00  0.00     0.212 HD
ENDBRANCH  15  26
TORSDOF 4
ENDMDL
MODEL 5
REMARK VINA RESULT:      -8.1      2.498      5.641
REMARK  4 active torsions:
REMARK  status: ('A' for Active; 'I' for Inactive)
REMARK    1  A    between atoms: C9_9  and  N1_10 
REMARK    2  A    between atoms: N1_10  and  C10_11 
REMARK    3  A    between atoms: C10_11  and  C12_13 
REMARK    4  A    between atoms: C20_24  and  O1_25 
ROOT
HETATM    1  C1  UNL     1      30.005  -0.114  53.072  1.00  0.00     0.048 C 
HETATM    2  C2  UNL     1      28.746   0.515  53.613  1.00  0.00    -0.035 C 
HETATM    3  C3  UNL     1      28.312  -0.252  54.614  1.00  0.00     0.007 C 
HETATM    4  C4  UNL     1      27.096   0.078  55.366  1.00  0.00     0.003 C 
HETATM    5  C5  UNL     1      26.057   0.843  55.007  1.00  0.00     0.030 C 
HETATM    6  C6  UNL     1      25.943   1.530  53.718  1.00  0.00     0.040 A 
HETATM    7  C7  UNL     1      24.732   1.915  53.165  1.00  0.00     0.049 A 
HETATM    8  C8  UNL     1      24.985   2.536  51.947  1.00  0.00     0.058 A 
HETATM    9  C9  UNL     1      24.103   3.087  51.031  1.00  0.00     0.139 A 
HETATM   10  N2  UNL     1      24.711   3.607  49.951  1.00  0.00    -0.224 NA
HETATM   11  C18 UNL     1      26.038   3.602  49.766  1.00  0.00     0.237 A 
HETATM   12  N3  UNL     1      26.889   3.066  50.659  1.00  0.00    -0.223 NA
HETATM   13  C19 UNL     1      26.348   2.526  51.766  1.00  0.00     0.148 A 
HETATM   14  N4  UNL     1      26.893   1.920  52.836  1.00  0.00    -0.300 N 
HETATM   15  C20 UNL     1      28.313   1.746  52.961  1.00  0.00     0.256 C 
ENDROOT
BRANCH   9  16
HETATM   16  N1  UNL     1      22.692   3.106  51.256  1.00  0.00    -0.366 N 
HETATM   17  H8  UNL     1      22.329   4.037  51.629  1.00  0.00     0.161 HD
BRANCH  16  18
HETATM   18  C10 UNL     1      21.760   2.030  51.038  1.00  0.00     0.108 C 
HETATM   19  C11 UNL     1      22.136   1.286  49.766  1.00  0.00     0.037 C 
BRANCH  18  20
HETATM   20  C12 UNL     1      21.593   1.094  52.167  1.00  0.00    -0.058 A 
HETATM   21  C13 UNL     1      22.263  -0.064  52.028  1.00  0.00     0.004 A 
HETATM   22  C14 UNL     1      22.227  -1.105  53.033  1.00  0.00    -0.004 A 
HETATM   23  C15 UNL     1      21.478  -0.753  54.058  1.00  0.00    -0.026 A 
HETATM   24  C16 UNL     1      20.691   0.457  54.377  1.00  0.00     0.031 A 
HETATM   25  C17 UNL     1      20.719   1.489  53.286  1.00  0.00     0.040 A 
ENDBRANCH  18  20
ENDBRANCH  16  18
ENDBRANCH   9  16
BRANCH  15  26
HETATM   26  O1  UNL     1      28.819   2.889  53.584  1.00  0.00    -0.372 OA
HETATM   27  H22 UNL     1      28.095   3.453  53.994  1.00  0.00     0.212 HD
ENDBRANCH  15  26
TORSDOF 4
ENDMDL
MODEL 6
REMARK VINA RESULT:      -8.1      1.192      1.346
REMARK  4 active torsions:
REMARK  status: ('A' for Active; 'I' for Inactive)
REMARK    1  A    between atoms: C9_9  and  N1_10 
REMARK    2  A    between atoms: N1_10  and  C10_11 
REMARK    3  A    between atoms: C10_11  and  C12_13 
REMARK    4  A    between atoms: C20_24  and  O1_25 
ROOT
HETATM    1  C1  UNL     1      24.337   7.285  48.215  1.00  0.00     0.048 C 
HETATM    2  C2  UNL     1      24.957   6.237  49.102  1.00  0.00    -0.035 C 
HETATM    3  C3  UNL     1      26.063   5.801  48.496  1.00  0.00     0.007 C 
HETATM    4  C4  UNL     1      26.914   4.768  49.096  1.00  0.00     0.003 C 
HETATM    5  C5  UNL     1      26.607   3.845  50.018  1.00  0.00     0.030 C 
HETATM    6  C6  UNL     1      25.285   3.695  50.629  1.00  0.00     0.040 A 
HETATM    7  C7  UNL     1      24.839   2.512  51.197  1.00  0.00     0.049 A 
HETATM    8  C8  UNL     1      23.551   2.718  51.679  1.00  0.00     0.058 A 
HETATM    9  C9  UNL     1      22.694   1.841  52.326  1.00  0.00     0.139 A 
HETATM   10  N2  UNL     1      21.512   2.391  52.652  1.00  0.00    -0.224 NA
HETATM   11  C18 UNL     1      21.182   3.663  52.386  1.00  0.00     0.237 A 
HETATM   12  N3  UNL     1      22.018   4.510  51.759  1.00  0.00    -0.223 NA
HETATM   13  C19 UNL     1      23.221   4.023  51.402  1.00  0.00     0.148 A 
HETATM   14  N4  UNL     1      24.272   4.582  50.776  1.00  0.00    -0.300 N 
HETATM   15  C20 UNL     1      24.253   5.952  50.347  1.00  0.00     0.256 C 
ENDROOT
BRANCH   9  16
HETATM   16  N1  UNL     1      23.071   0.495  52.623  1.00  0.00    -0.366 N 
HETATM   17  H8  UNL     1      22.828  -0.200  51.851  1.00  0.00     0.161 HD
BRANCH  16  18
HETATM   18  C10 UNL     1      23.718   0.013  53.816  1.00  0.00     0.108 C 
HETATM   19  C11 UNL     1      23.020  -1.251  54.292  1.00  0.00     0.037 C 
BRANCH  18  20
HETATM   20  C12 UNL     1      25.175  -0.197  53.710  1.00  0.00    -0.058 A 
HETATM   21  C13 UNL     1      25.550  -0.941  52.653  1.00  0.00     0.004 A 
HETATM   22  C14 UNL     1      26.936  -1.251  52.378  1.00  0.00    -0.004 A 
HETATM   23  C15 UNL     1      27.734  -0.710  53.276  1.00  0.00    -0.026 A 
HETATM   24  C16 UNL     1      27.502   0.126  54.472  1.00  0.00     0.031 A 
HETATM   25  C17 UNL     1      26.047   0.383  54.746  1.00  0.00     0.040 A 
ENDBRANCH  18  20
ENDBRANCH  16  18
ENDBRANCH   9  16
BRANCH  15  26
HETATM   26  O1  UNL     1      24.715   6.727  51.414  1.00  0.00    -0.372 OA
HETATM   27  H22 UNL     1      25.666   7.025  51.286  1.00  0.00     0.212 HD
ENDBRANCH  15  26
TORSDOF 4
ENDMDL
MODEL 7
REMARK VINA RESULT:      -8.1      3.488      7.296
REMARK  4 active torsions:
REMARK  status: ('A' for Active; 'I' for Inactive)
REMARK    1  A    between atoms: C9_9  and  N1_10 
REMARK    2  A    between atoms: N1_10  and  C10_11 
REMARK    3  A    between atoms: C10_11  and  C12_13 
REMARK    4  A    between atoms: C20_24  and  O1_25 
ROOT
HETATM    1  C1  UNL     1      18.036  -1.955  53.437  1.00  0.00     0.048 C 
HETATM    2  C2  UNL     1      19.022  -0.884  53.048  1.00  0.00    -0.035 C 
HETATM    3  C3  UNL     1      18.691  -0.456  51.829  1.00  0.00     0.007 C 
HETATM    4  C4  UNL     1      19.453   0.596  51.148  1.00  0.00     0.003 C 
HETATM    5  C5  UNL     1      20.715   0.998  51.352  1.00  0.00     0.030 C 
HETATM    6  C6  UNL     1      21.613   0.423  52.357  1.00  0.00     0.040 A 
HETATM    7  C7  UNL     1      22.995   0.490  52.269  1.00  0.00     0.049 A 
HETATM    8  C8  UNL     1      23.534  -0.152  53.379  1.00  0.00     0.058 A 
HETATM    9  C9  UNL     1      24.859  -0.344  53.737  1.00  0.00     0.139 A 
HETATM   10  N2  UNL     1      25.009  -1.016  54.890  1.00  0.00    -0.224 NA
HETATM   11  C18 UNL     1      23.986  -1.461  55.633  1.00  0.00     0.237 A 
HETATM   12  N3  UNL     1      22.702  -1.271  55.282  1.00  0.00    -0.223 NA
HETATM   13  C19 UNL     1      22.479  -0.605  54.134  1.00  0.00     0.148 A 
HETATM   14  N4  UNL     1      21.346  -0.248  53.501  1.00  0.00    -0.300 N 
HETATM   15  C20 UNL     1      20.052  -0.572  54.033  1.00  0.00     0.256 C 
ENDROOT
BRANCH   9  16
HETATM   16  N1  UNL     1      25.937   0.158  52.945  1.00  0.00    -0.366 N 
HETATM   17  H8  UNL     1      26.361  -0.566  52.287  1.00  0.00     0.161 HD
BRANCH  16  18
HETATM   18  C10 UNL     1      26.481   1.492  52.956  1.00  0.00     0.108 C 
HETATM   19  C11 UNL     1      27.999   1.418  52.935  1.00  0.00     0.037 C 
BRANCH  18  20
HETATM   20  C12 UNL     1      25.982   2.391  51.897  1.00  0.00    -0.058 A 
HETATM   21  C13 UNL     1      26.720   2.383  50.772  1.00  0.00     0.004 A 
HETATM   22  C14 UNL     1      26.387   3.194  49.621  1.00  0.00    -0.004 A 
HETATM   23  C15 UNL     1      25.296   3.902  49.836  1.00  0.00    -0.026 A 
HETATM   24  C16 UNL     1      24.372   4.027  50.983  1.00  0.00     0.031 A 
HETATM   25  C17 UNL     1      24.784   3.204  52.171  1.00  0.00     0.040 A 
ENDBRANCH  18  20
ENDBRANCH  16  18
ENDBRANCH   9  16
BRANCH  15  26
HETATM   26  O1  UNL     1      19.681   0.470  54.887  1.00  0.00    -0.372 OA
HETATM   27  H22 UNL     1      19.769   0.220  55.856  1.00  0.00     0.212 HD
ENDBRANCH  15  26
TORSDOF 4
ENDMDL
MODEL 8
REMARK VINA RESULT:      -7.7      4.106      6.818
REMARK  4 active torsions:
REMARK  status: ('A' for Active; 'I' for Inactive)
REMARK    1  A    between atoms: C9_9  and  N1_10 
REMARK    2  A    between atoms: N1_10  and  C10_11 
REMARK    3  A    between atoms: C10_11  and  C12_13 
REMARK    4  A    between atoms: C20_24  and  O1_25 
ROOT
HETATM    1  C1  UNL     1      30.497   0.165  53.787  1.00  0.00     0.048 C 
HETATM    2  C2  UNL     1      29.167  -0.532  53.673  1.00  0.00    -0.035 C 
HETATM    3  C3  UNL     1      29.380  -1.713  53.090  1.00  0.00     0.007 C 
HETATM    4  C4  UNL     1      28.285  -2.653  52.827  1.00  0.00     0.003 C 
HETATM    5  C5  UNL     1      26.971  -2.415  52.712  1.00  0.00     0.030 C 
HETATM    6  C6  UNL     1      26.357  -1.091  52.839  1.00  0.00     0.040 A 
HETATM    7  C7  UNL     1      25.131  -0.765  52.281  1.00  0.00     0.049 A 
HETATM    8  C8  UNL     1      24.850   0.561  52.590  1.00  0.00     0.058 A 
HETATM    9  C9  UNL     1      23.749   1.336  52.259  1.00  0.00     0.139 A 
HETATM   10  N2  UNL     1      23.817   2.591  52.733  1.00  0.00    -0.224 NA
HETATM   11  C18 UNL     1      24.842   3.060  53.458  1.00  0.00     0.237 A 
HETATM   12  N3  UNL     1      25.907   2.304  53.777  1.00  0.00    -0.223 NA
HETATM   13  C19 UNL     1      25.905   1.034  53.333  1.00  0.00     0.148 A 
HETATM   14  N4  UNL     1      26.789   0.029  53.465  1.00  0.00    -0.300 N 
HETATM   15  C20 UNL     1      28.014   0.194  54.195  1.00  0.00     0.256 C 
ENDROOT
BRANCH   9  16
HETATM   16  N1  UNL     1      22.654   0.812  51.505  1.00  0.00    -0.366 N 
HETATM   17  H8  UNL     1      22.889  -0.080  50.970  1.00  0.00     0.161 HD
BRANCH  16  18
HETATM   18  C10 UNL     1      21.325   1.356  51.403  1.00  0.00     0.108 C 
HETATM   19  C11 UNL     1      21.054   1.761  49.963  1.00  0.00     0.037 C 
BRANCH  18  20
HETATM   20  C12 UNL     1      20.243   0.495  51.922  1.00  0.00    -0.058 A 
HETATM   21  C13 UNL     1      20.550  -0.149  53.063  1.00  0.00     0.004 A 
HETATM   22  C14 UNL     1      19.617  -1.034  53.727  1.00  0.00    -0.004 A 
HETATM   23  C15 UNL     1      18.475  -1.100  53.073  1.00  0.00    -0.026 A 
HETATM   24  C16 UNL     1      17.971  -0.468  51.836  1.00  0.00     0.031 A 
HETATM   25  C17 UNL     1      18.988   0.404  51.156  1.00  0.00     0.040 A 
ENDBRANCH  18  20
ENDBRANCH  16  18
ENDBRANCH   9  16
BRANCH  15  26
HETATM   26  O1  UNL     1      27.747  -0.115  55.531  1.00  0.00    -0.372 OA
HETATM   27  H22 UNL     1      28.431  -0.736  55.925  1.00  0.00     0.212 HD
ENDBRANCH  15  26
TORSDOF 4
ENDMDL
MODEL 9
REMARK VINA RESULT:      -7.6      2.465      4.856
REMARK  4 active torsions:
REMARK  status: ('A' for Active; 'I' for Inactive)
REMARK    1  A    between atoms: C9_9  and  N1_10 
REMARK    2  A    between atoms: N1_10  and  C10_11 
REMARK    3  A    between atoms: C10_11  and  C12_13 
REMARK    4  A    between atoms: C20_24  and  O1_25 
ROOT
HETATM    1  C1  UNL     1      25.739   7.495  50.398  1.00  0.00     0.048 C 
HETATM    2  C2  UNL     1      24.541   6.586  50.488  1.00  0.00    -0.035 C 
HETATM    3  C3  UNL     1      23.476   7.348  50.741  1.00  0.00     0.007 C 
HETATM    4  C4  UNL     1      22.135   6.773  50.890  1.00  0.00     0.003 C 
HETATM    5  C5  UNL     1      21.778   5.521  51.205  1.00  0.00     0.030 C 
HETATM    6  C6  UNL     1      22.723   4.435  51.472  1.00  0.00     0.040 A 
HETATM    7  C7  UNL     1      22.404   3.316  52.226  1.00  0.00     0.049 A 
HETATM    8  C8  UNL     1      23.523   2.493  52.281  1.00  0.00     0.058 A 
HETATM    9  C9  UNL     1      23.696   1.270  52.911  1.00  0.00     0.139 A 
HETATM   10  N2  UNL     1      24.926   0.755  52.750  1.00  0.00    -0.224 NA
HETATM   11  C18 UNL     1      25.900   1.354  52.049  1.00  0.00     0.237 A 
HETATM   12  N3  UNL     1      25.726   2.540  51.439  1.00  0.00    -0.223 NA
HETATM   13  C19 UNL     1      24.516   3.113  51.561  1.00  0.00     0.148 A 
HETATM   14  N4  UNL     1      24.011   4.269  51.091  1.00  0.00    -0.300 N 
HETATM   15  C20 UNL     1      24.799   5.163  50.290  1.00  0.00     0.256 C 
ENDROOT
BRANCH   9  16
HETATM   16  N1  UNL     1      22.639   0.635  53.633  1.00  0.00    -0.366 N 
HETATM   17  H8  UNL     1      22.354   1.153  54.521  1.00  0.00     0.161 HD
BRANCH  16  18
HETATM   18  C10 UNL     1      21.958  -0.586  53.289  1.00  0.00     0.108 C 
HETATM   19  C11 UNL     1      21.924  -1.503  54.502  1.00  0.00     0.037 C 
BRANCH  18  20
HETATM   20  C12 UNL     1      20.608  -0.421  52.714  1.00  0.00    -0.058 A 
HETATM   21  C13 UNL     1      19.622  -0.958  53.457  1.00  0.00     0.004 A 
HETATM   22  C14 UNL     1      18.232  -0.893  53.061  1.00  0.00    -0.004 A 
HETATM   23  C15 UNL     1      18.091  -0.251  51.919  1.00  0.00    -0.026 A 
HETATM   24  C16 UNL     1      19.040   0.398  50.991  1.00  0.00     0.031 A 
HETATM   25  C17 UNL     1      20.474   0.264  51.417  1.00  0.00     0.040 A 
ENDBRANCH  18  20
ENDBRANCH  16  18
ENDBRANCH   9  16
BRANCH  15  26
HETATM   26  O1  UNL     1      24.646   4.772  48.957  1.00  0.00    -0.372 OA
HETATM   27  H22 UNL     1      25.523   4.731  48.468  1.00  0.00     0.212 HD
ENDBRANCH  15  26
TORSDOF 4
ENDMDL
