MODEL 1
REMARK VINA RESULT:      -8.1      0.000      0.000
REMARK  1 active torsions:
REMARK  status: ('A' for Active; 'I' for Inactive)
REMARK       I    between atoms: C3_4  and  N2_5 
REMARK    1  A    between atoms: C6_9  and  C7_10 
ROOT
HETATM    1  C1  UNL     1      21.782   6.357  50.505  1.00  0.00     0.062 C 
HETATM    2  C2  UNL     1      22.563   5.455  49.954  1.00  0.00     0.038 C 
HETATM    3  N1  UNL     1      22.036   4.206  49.583  1.00  0.00    -0.072 NA
HETATM    4  C3  UNL     1      21.195   3.640  50.361  1.00  0.00     0.720 C 
HETATM    5  N2  UNL     1      20.621   4.027  51.629  1.00  0.00    -0.231 N 
HETATM    6  N3  UNL     1      21.132   2.505  49.466  1.00  0.00    -0.073 NA
HETATM    7  C4  UNL     1      22.141   1.651  49.472  1.00  0.00     0.168 C 
HETATM    8  C5  UNL     1      23.139   2.122  50.465  1.00  0.00     0.080 A 
HETATM    9  C6  UNL     1      23.157   1.496  51.721  1.00  0.00     0.075 A 
HETATM   10  N4  UNL     1      24.136   2.081  52.483  1.00  0.00    -0.245 NA
HETATM   11  C12 UNL     1      24.656   3.015  51.670  1.00  0.00     0.210 A 
HETATM   12  N5  UNL     1      24.100   3.084  50.451  1.00  0.00    -0.333 N 
HETATM   13  C13 UNL     1      24.554   4.010  49.462  1.00  0.00     0.100 C 
HETATM   14  C14 UNL     1      26.077   4.164  49.449  1.00  0.00     0.026 C 
HETATM   15  C15 UNL     1      26.447   5.508  48.857  1.00  0.00     0.002 C 
HETATM   16  C16 UNL     1      26.047   6.607  49.779  1.00  0.00     0.001 C 
HETATM   17  C17 UNL     1      24.757   6.297  50.498  1.00  0.00     0.013 C 
HETATM   18  C18 UNL     1      23.967   5.365  49.585  1.00  0.00     0.057 C 
HETATM   19  H3  UNL     1      19.856   4.438  51.052  1.00  0.00     0.174 HD
HETATM   20  H4  UNL     1      20.998   3.856  52.600  1.00  0.00     0.174 HD
ENDROOT
BRANCH   9  21
HETATM   21  C7  UNL     1      22.296   0.373  52.192  1.00  0.00     0.088 A 
HETATM   22  C8  UNL     1      22.970  -0.568  53.087  1.00  0.00    -0.009 A 
HETATM   23  C9  UNL     1      22.405  -0.615  54.304  1.00  0.00     0.039 A 
HETATM   24  C10 UNL     1      21.277   0.331  54.288  1.00  0.00     0.113 A 
HETATM   25  F1  UNL     1      20.451   0.571  55.342  1.00  0.00    -0.206 F 
HETATM   26  C11 UNL     1      21.209   0.896  53.094  1.00  0.00     0.030 A 
ENDBRANCH   9  21
TORSDOF 1
ENDMDL
MODEL 2
REMARK VINA RESULT:      -7.5      2.510      3.369
REMARK  1 active torsions:
REMARK  status: ('A' for Active; 'I' for Inactive)
REMARK       I    between atoms: C3_4  and  N2_5 
REMARK    1  A    between atoms: C6_9  and  C7_10 
ROOT
HETATM    1  C1  UNL     1      21.620   6.740  50.385  1.00  0.00     0.062 C 
HETATM    2  C2  UNL     1      21.448   5.496  49.998  1.00  0.00     0.038 C 
HETATM    3  N1  UNL     1      21.090   4.513  50.937  1.00  0.00    -0.072 NA
HETATM    4  C3  UNL     1      21.640   4.539  52.091  1.00  0.00     0.720 C 
HETATM    5  N2  UNL     1      22.617   5.421  52.689  1.00  0.00    -0.231 N 
HETATM    6  N3  UNL     1      20.915   3.344  52.463  1.00  0.00    -0.073 NA
HETATM    7  C4  UNL     1      21.332   2.187  51.978  1.00  0.00     0.168 C 
HETATM    8  C5  UNL     1      22.515   2.445  51.120  1.00  0.00     0.080 A 
HETATM    9  C6  UNL     1      23.784   2.191  51.662  1.00  0.00     0.075 A 
HETATM   10  N4  UNL     1      24.730   2.501  50.718  1.00  0.00    -0.245 NA
HETATM   11  C12 UNL     1      24.004   2.919  49.668  1.00  0.00     0.210 A 
HETATM   12  N5  UNL     1      22.675   2.906  49.850  1.00  0.00    -0.333 N 
HETATM   13  C13 UNL     1      21.765   3.301  48.823  1.00  0.00     0.100 C 
HETATM   14  C14 UNL     1      22.196   2.824  47.433  1.00  0.00     0.026 C 
HETATM   15  C15 UNL     1      21.583   3.718  46.375  1.00  0.00     0.002 C 
HETATM   16  C16 UNL     1      22.199   5.074  46.426  1.00  0.00     0.001 C 
HETATM   17  C17 UNL     1      22.524   5.493  47.839  1.00  0.00     0.013 C 
HETATM   18  C18 UNL     1      21.536   4.764  48.744  1.00  0.00     0.057 C 
HETATM   19  H3  UNL     1      21.788   5.949  53.038  1.00  0.00     0.174 HD
HETATM   20  H4  UNL     1      23.669   5.355  52.653  1.00  0.00     0.174 HD
ENDROOT
BRANCH   9  21
HETATM   21  C7  UNL     1      24.106   1.659  53.017  1.00  0.00     0.088 A 
HETATM   22  C8  UNL     1      24.324   0.213  53.061  1.00  0.00    -0.009 A 
HETATM   23  C9  UNL     1      25.564  -0.108  53.461  1.00  0.00     0.039 A 
HETATM   24  C10 UNL     1      26.272   1.157  53.717  1.00  0.00     0.113 A 
HETATM   25  F1  UNL     1      27.562   1.253  54.140  1.00  0.00    -0.206 F 
HETATM   26  C11 UNL     1      25.452   2.164  53.467  1.00  0.00     0.030 A 
ENDBRANCH   9  21
TORSDOF 1
ENDMDL
MODEL 3
REMARK VINA RESULT:      -7.4      3.192      5.533
REMARK  1 active torsions:
REMARK  status: ('A' for Active; 'I' for Inactive)
REMARK       I    between atoms: C3_4  and  N2_5 
REMARK    1  A    between atoms: C6_9  and  C7_10 
ROOT
HETATM    1  C1  UNL     1      22.583   2.533  49.079  1.00  0.00     0.062 C 
HETATM    2  C2  UNL     1      22.321   2.476  50.365  1.00  0.00     0.038 C 
HETATM    3  N1  UNL     1      23.135   3.172  51.277  1.00  0.00    -0.072 NA
HETATM    4  C3  UNL     1      24.399   3.181  51.087  1.00  0.00     0.720 C 
HETATM    5  N2  UNL     1      25.239   2.593  50.069  1.00  0.00    -0.231 N 
HETATM    6  N3  UNL     1      24.574   3.953  52.298  1.00  0.00    -0.073 NA
HETATM    7  C4  UNL     1      24.467   3.326  53.456  1.00  0.00     0.168 C 
HETATM    8  C5  UNL     1      24.172   1.898  53.184  1.00  0.00     0.080 A 
HETATM    9  C6  UNL     1      25.233   0.983  53.271  1.00  0.00     0.075 A 
HETATM   10  N4  UNL     1      24.752  -0.268  52.977  1.00  0.00    -0.245 NA
HETATM   11  C12 UNL     1      23.449  -0.058  52.730  1.00  0.00     0.210 A 
HETATM   12  N5  UNL     1      23.045   1.217  52.840  1.00  0.00    -0.333 N 
HETATM   13  C13 UNL     1      21.686   1.603  52.630  1.00  0.00     0.100 C 
HETATM   14  C14 UNL     1      20.688   0.594  53.205  1.00  0.00     0.026 C 
HETATM   15  C15 UNL     1      19.365   0.716  52.478  1.00  0.00     0.002 C 
HETATM   16  C16 UNL     1      19.500   0.232  51.075  1.00  0.00     0.001 C 
HETATM   17  C17 UNL     1      20.850   0.569  50.491  1.00  0.00     0.013 C 
HETATM   18  C18 UNL     1      21.331   1.826  51.209  1.00  0.00     0.057 C 
HETATM   19  H3  UNL     1      25.130   3.508  49.582  1.00  0.00     0.174 HD
HETATM   20  H4  UNL     1      25.665   1.628  50.046  1.00  0.00     0.174 HD
ENDROOT
BRANCH   9  21
HETATM   21  C7  UNL     1      26.650   1.264  53.635  1.00  0.00     0.088 A 
HETATM   22  C8  UNL     1      27.043   0.773  54.957  1.00  0.00    -0.009 A 
HETATM   23  C9  UNL     1      28.024  -0.141  54.895  1.00  0.00     0.039 A 
HETATM   24  C10 UNL     1      28.355  -0.318  53.472  1.00  0.00     0.113 A 
HETATM   25  F1  UNL     1      29.306  -1.167  52.996  1.00  0.00    -0.206 F 
HETATM   26  C11 UNL     1      27.580   0.475  52.750  1.00  0.00     0.030 A 
ENDBRANCH   9  21
TORSDOF 1
ENDMDL
MODEL 4
REMARK VINA RESULT:      -7.4      7.521     10.667
REMARK  1 active torsions:
REMARK  status: ('A' for Active; 'I' for Inactive)
REMARK       I    between atoms: C3_4  and  N2_5 
REMARK    1  A    between atoms: C6_9  and  C7_10 
ROOT
HETATM    1  C1  UNL     1      34.811   7.742  48.297  1.00  0.00     0.062 C 
HETATM    2  C2  UNL     1      34.120   7.042  47.426  1.00  0.00     0.038 C 
HETATM    3  N1  UNL     1      33.146   7.675  46.634  1.00  0.00    -0.072 NA
HETATM    4  C3  UNL     1      32.400   8.562  47.171  1.00  0.00     0.720 C 
HETATM    5  N2  UNL     1      32.331   9.102  48.510  1.00  0.00    -0.231 N 
HETATM    6  N3  UNL     1      31.690   8.722  45.921  1.00  0.00    -0.073 NA
HETATM    7  C4  UNL     1      30.817   7.791  45.578  1.00  0.00     0.168 C 
HETATM    8  C5  UNL     1      30.802   6.757  46.643  1.00  0.00     0.080 A 
HETATM    9  C6  UNL     1      29.753   6.795  47.575  1.00  0.00     0.075 A 
HETATM   10  N4  UNL     1      29.930   5.769  48.469  1.00  0.00    -0.245 NA
HETATM   11  C12 UNL     1      31.055   5.169  48.045  1.00  0.00     0.210 A 
HETATM   12  N5  UNL     1      31.618   5.716  46.957  1.00  0.00    -0.333 N 
HETATM   13  C13 UNL     1      32.806   5.183  46.370  1.00  0.00     0.100 C 
HETATM   14  C14 UNL     1      32.831   3.652  46.367  1.00  0.00     0.026 C 
HETATM   15  C15 UNL     1      34.264   3.166  46.305  1.00  0.00     0.002 C 
HETATM   16  C16 UNL     1      34.968   3.471  47.583  1.00  0.00     0.001 C 
HETATM   17  C17 UNL     1      34.518   4.784  48.174  1.00  0.00     0.013 C 
HETATM   18  C18 UNL     1      34.061   5.651  47.006  1.00  0.00     0.057 C 
HETATM   19  H3  UNL     1      32.988   9.828  48.151  1.00  0.00     0.174 HD
HETATM   20  H4  UNL     1      31.781   8.742  49.335  1.00  0.00     0.174 HD
ENDROOT
BRANCH   9  21
HETATM   21  C7  UNL     1      28.609   7.750  47.621  1.00  0.00     0.088 A 
HETATM   22  C8  UNL     1      27.320   7.132  47.934  1.00  0.00    -0.009 A 
HETATM   23  C9  UNL     1      26.787   7.602  49.072  1.00  0.00     0.039 A 
HETATM   24  C10 UNL     1      27.728   8.600  49.605  1.00  0.00     0.113 A 
HETATM   25  F1  UNL     1      27.544   9.305  50.754  1.00  0.00    -0.206 F 
HETATM   26  C11 UNL     1      28.765   8.690  48.788  1.00  0.00     0.030 A 
ENDBRANCH   9  21
TORSDOF 1
ENDMDL
MODEL 5
REMARK VINA RESULT:      -7.3      3.048      6.217
REMARK  1 active torsions:
REMARK  status: ('A' for Active; 'I' for Inactive)
REMARK       I    between atoms: C3_4  and  N2_5 
REMARK    1  A    between atoms: C6_9  and  C7_10 
ROOT
HETATM    1  C1  UNL     1      22.206   0.125  51.929  1.00  0.00     0.062 C 
HETATM    2  C2  UNL     1      23.022   0.918  52.586  1.00  0.00     0.038 C 
HETATM    3  N1  UNL     1      22.727   2.288  52.701  1.00  0.00    -0.072 NA
HETATM    4  C3  UNL     1      22.248   2.899  51.686  1.00  0.00     0.720 C 
HETATM    5  N2  UNL     1      21.915   2.462  50.349  1.00  0.00    -0.231 N 
HETATM    6  N3  UNL     1      22.240   4.136  52.435  1.00  0.00    -0.073 NA
HETATM    7  C4  UNL     1      23.392   4.758  52.620  1.00  0.00     0.168 C 
HETATM    8  C5  UNL     1      24.458   3.960  51.965  1.00  0.00     0.080 A 
HETATM    9  C6  UNL     1      24.917   4.387  50.709  1.00  0.00     0.075 A 
HETATM   10  N4  UNL     1      25.885   3.515  50.280  1.00  0.00    -0.245 NA
HETATM   11  C12 UNL     1      25.968   2.618  51.277  1.00  0.00     0.210 A 
HETATM   12  N5  UNL     1      25.140   2.835  52.310  1.00  0.00    -0.333 N 
HETATM   13  C13 UNL     1      25.120   1.984  53.457  1.00  0.00     0.100 C 
HETATM   14  C14 UNL     1      26.519   1.527  53.880  1.00  0.00     0.026 C 
HETATM   15  C15 UNL     1      26.418   0.232  54.660  1.00  0.00     0.002 C 
HETATM   16  C16 UNL     1      26.002  -0.881  53.760  1.00  0.00     0.001 C 
HETATM   17  C17 UNL     1      25.026  -0.419  52.707  1.00  0.00     0.013 C 
HETATM   18  C18 UNL     1      24.281   0.772  53.300  1.00  0.00     0.057 C 
HETATM   19  H3  UNL     1      20.962   2.300  50.739  1.00  0.00     0.174 HD
HETATM   20  H4  UNL     1      22.539   2.415  49.500  1.00  0.00     0.174 HD
ENDROOT
BRANCH   9  21
HETATM   21  C7  UNL     1      24.476   5.584  49.937  1.00  0.00     0.088 A 
HETATM   22  C8  UNL     1      24.864   6.863  50.534  1.00  0.00    -0.009 A 
HETATM   23  C9  UNL     1      25.675   7.577  49.737  1.00  0.00     0.039 A 
HETATM   24  C10 UNL     1      25.881   6.782  48.515  1.00  0.00     0.113 A 
HETATM   25  F1  UNL     1      26.649   7.168  47.459  1.00  0.00    -0.206 F 
HETATM   26  C11 UNL     1      25.205   5.650  48.620  1.00  0.00     0.030 A 
ENDBRANCH   9  21
TORSDOF 1
ENDMDL
MODEL 6
REMARK VINA RESULT:      -7.3      2.643      3.908
REMARK  1 active torsions:
REMARK  status: ('A' for Active; 'I' for Inactive)
REMARK       I    between atoms: C3_4  and  N2_5 
REMARK    1  A    between atoms: C6_9  and  C7_10 
ROOT
HETATM    1  C1  UNL     1      23.349   4.962  51.496  1.00  0.00     0.062 C 
HETATM    2  C2  UNL     1      23.552   3.681  51.288  1.00  0.00     0.038 C 
HETATM    3  N1  UNL     1      22.879   3.026  50.241  1.00  0.00    -0.072 NA
HETATM    4  C3  UNL     1      21.653   3.315  50.026  1.00  0.00     0.720 C 
HETATM    5  N2  UNL     1      20.738   4.234  50.663  1.00  0.00    -0.231 N 
HETATM    6  N3  UNL     1      21.610   2.336  48.962  1.00  0.00    -0.073 NA
HETATM    7  C4  UNL     1      21.545   1.058  49.295  1.00  0.00     0.168 C 
HETATM    8  C5  UNL     1      21.534   0.966  50.775  1.00  0.00     0.080 A 
HETATM    9  C6  UNL     1      20.299   0.756  51.409  1.00  0.00     0.075 A 
HETATM   10  N4  UNL     1      20.508   0.711  52.764  1.00  0.00    -0.245 NA
HETATM   11  C12 UNL     1      21.833   0.893  52.887  1.00  0.00     0.210 A 
HETATM   12  N5  UNL     1      22.498   1.049  51.732  1.00  0.00    -0.333 N 
HETATM   13  C13 UNL     1      23.914   1.231  51.690  1.00  0.00     0.100 C 
HETATM   14  C14 UNL     1      24.654   0.357  52.708  1.00  0.00     0.026 C 
HETATM   15  C15 UNL     1      25.994   0.982  53.035  1.00  0.00     0.002 C 
HETATM   16  C16 UNL     1      25.801   2.240  53.810  1.00  0.00     0.001 C 
HETATM   17  C17 UNL     1      24.574   2.995  53.362  1.00  0.00     0.013 C 
HETATM   18  C18 UNL     1      24.353   2.631  51.898  1.00  0.00     0.057 C 
HETATM   19  H3  UNL     1      21.056   4.910  49.936  1.00  0.00     0.174 HD
HETATM   20  H4  UNL     1      20.115   4.067  51.498  1.00  0.00     0.174 HD
ENDROOT
BRANCH   9  21
HETATM   21  C7  UNL     1      18.964   0.585  50.768  1.00  0.00     0.088 A 
HETATM   22  C8  UNL     1      18.083  -0.361  51.453  1.00  0.00    -0.009 A 
HETATM   23  C9  UNL     1      16.959   0.217  51.905  1.00  0.00     0.039 A 
HETATM   24  C10 UNL     1      17.030   1.639  51.532  1.00  0.00     0.113 A 
HETATM   25  F1  UNL     1      16.074   2.565  51.814  1.00  0.00    -0.206 F 
HETATM   26  C11 UNL     1      18.164   1.856  50.887  1.00  0.00     0.030 A 
ENDBRANCH   9  21
TORSDOF 1
ENDMDL
MODEL 7
REMARK VINA RESULT:      -7.2      2.237      3.723
REMARK  1 active torsions:
REMARK  status: ('A' for Active; 'I' for Inactive)
REMARK       I    between atoms: C3_4  and  N2_5 
REMARK    1  A    between atoms: C6_9  and  C7_10 
ROOT
HETATM    1  C1  UNL     1      24.158   5.522  48.672  1.00  0.00     0.062 C 
HETATM    2  C2  UNL     1      22.937   5.130  48.957  1.00  0.00     0.038 C 
HETATM    3  N1  UNL     1      22.499   5.117  50.292  1.00  0.00    -0.072 NA
HETATM    4  C3  UNL     1      23.307   4.720  51.198  1.00  0.00     0.720 C 
HETATM    5  N2  UNL     1      24.673   4.248  51.152  1.00  0.00    -0.231 N 
HETATM    6  N3  UNL     1      22.279   4.908  52.198  1.00  0.00    -0.073 NA
HETATM    7  C4  UNL     1      21.311   4.011  52.271  1.00  0.00     0.168 C 
HETATM    8  C5  UNL     1      21.556   2.980  51.232  1.00  0.00     0.080 A 
HETATM    9  C6  UNL     1      22.133   1.766  51.638  1.00  0.00     0.075 A 
HETATM   10  N4  UNL     1      22.281   0.966  50.534  1.00  0.00    -0.245 NA
HETATM   11  C12 UNL     1      21.797   1.716  49.530  1.00  0.00     0.210 A 
HETATM   12  N5  UNL     1      21.349   2.929  49.888  1.00  0.00    -0.333 N 
HETATM   13  C13 UNL     1      20.785   3.839  48.943  1.00  0.00     0.100 C 
HETATM   14  C14 UNL     1      19.901   3.142  47.905  1.00  0.00     0.026 C 
HETATM   15  C15 UNL     1      19.826   3.988  46.650  1.00  0.00     0.002 C 
HETATM   16  C16 UNL     1      21.144   3.999  45.956  1.00  0.00     0.001 C 
HETATM   17  C17 UNL     1      22.295   3.988  46.932  1.00  0.00     0.013 C 
HETATM   18  C18 UNL     1      21.786   4.649  48.208  1.00  0.00     0.057 C 
HETATM   19  H3  UNL     1      24.925   5.245  51.323  1.00  0.00     0.174 HD
HETATM   20  H4  UNL     1      25.022   3.264  50.998  1.00  0.00     0.174 HD
ENDROOT
BRANCH   9  21
HETATM   21  C7  UNL     1      22.518   1.358  53.018  1.00  0.00     0.088 A 
HETATM   22  C8  UNL     1      21.860   0.140  53.493  1.00  0.00    -0.009 A 
HETATM   23  C9  UNL     1      22.733  -0.844  53.764  1.00  0.00     0.039 A 
HETATM   24  C10 UNL     1      24.076  -0.316  53.472  1.00  0.00     0.113 A 
HETATM   25  F1  UNL     1      25.233  -1.016  53.621  1.00  0.00    -0.206 F 
HETATM   26  C11 UNL     1      23.963   0.932  53.049  1.00  0.00     0.030 A 
ENDBRANCH   9  21
TORSDOF 1
ENDMDL
MODEL 8
REMARK VINA RESULT:      -7.1      2.537      6.245
REMARK  1 active torsions:
REMARK  status: ('A' for Active; 'I' for Inactive)
REMARK       I    between atoms: C3_4  and  N2_5 
REMARK    1  A    between atoms: C6_9  and  C7_10 
ROOT
HETATM    1  C1  UNL     1      24.618   1.025  53.283  1.00  0.00     0.062 C 
HETATM    2  C2  UNL     1      23.555   0.875  52.525  1.00  0.00     0.038 C 
HETATM    3  N1  UNL     1      23.562   1.362  51.206  1.00  0.00    -0.072 NA
HETATM    4  C3  UNL     1      24.108   2.494  50.973  1.00  0.00     0.720 C 
HETATM    5  N2  UNL     1      24.772   3.453  51.827  1.00  0.00    -0.231 N 
HETATM    6  N3  UNL     1      23.737   2.386  49.579  1.00  0.00    -0.073 NA
HETATM    7  C4  UNL     1      22.476   2.609  49.252  1.00  0.00     0.168 C 
HETATM    8  C5  UNL     1      21.727   2.931  50.492  1.00  0.00     0.080 A 
HETATM    9  C6  UNL     1      21.453   4.282  50.758  1.00  0.00     0.075 A 
HETATM   10  N4  UNL     1      20.767   4.360  51.943  1.00  0.00    -0.245 NA
HETATM   11  C12 UNL     1      20.659   3.079  52.333  1.00  0.00     0.210 A 
HETATM   12  N5  UNL     1      21.213   2.182  51.504  1.00  0.00    -0.333 N 
HETATM   13  C13 UNL     1      21.166   0.778  51.764  1.00  0.00     0.100 C 
HETATM   14  C14 UNL     1      19.821   0.328  52.343  1.00  0.00     0.026 C 
HETATM   15  C15 UNL     1      20.008  -0.957  53.123  1.00  0.00     0.002 C 
HETATM   16  C16 UNL     1      20.791  -0.698  54.363  1.00  0.00     0.001 C 
HETATM   17  C17 UNL     1      21.852   0.353  54.151  1.00  0.00     0.013 C 
HETATM   18  C18 UNL     1      22.230   0.293  52.675  1.00  0.00     0.057 C 
HETATM   19  H3  UNL     1      25.643   2.945  51.564  1.00  0.00     0.174 HD
HETATM   20  H4  UNL     1      24.346   4.245  52.379  1.00  0.00     0.174 HD
ENDROOT
BRANCH   9  21
HETATM   21  C7  UNL     1      21.805   5.464  49.922  1.00  0.00     0.088 A 
HETATM   22  C8  UNL     1      20.904   6.607  50.082  1.00  0.00    -0.009 A 
HETATM   23  C9  UNL     1      21.532   7.694  50.556  1.00  0.00     0.039 A 
HETATM   24  C10 UNL     1      22.944   7.324  50.747  1.00  0.00     0.113 A 
HETATM   25  F1  UNL     1      23.909   8.160  51.216  1.00  0.00    -0.206 F 
HETATM   26  C11 UNL     1      23.108   6.061  50.389  1.00  0.00     0.030 A 
ENDBRANCH   9  21
TORSDOF 1
ENDMDL
MODEL 9
REMARK VINA RESULT:      -6.8      9.820     11.305
REMARK  1 active torsions:
REMARK  status: ('A' for Active; 'I' for Inactive)
REMARK       I    between atoms: C3_4  and  N2_5 
REMARK    1  A    between atoms: C6_9  and  C7_10 
ROOT
HETATM    1  C1  UNL     1      30.261   9.645  44.416  1.00  0.00     0.062 C 
HETATM    2  C2  UNL     1      30.957   9.546  45.526  1.00  0.00     0.038 C 
HETATM    3  N1  UNL     1      32.254   9.003  45.494  1.00  0.00    -0.072 NA
HETATM    4  C3  UNL     1      32.475   7.990  44.748  1.00  0.00     0.720 C 
HETATM    5  N2  UNL     1      31.629   7.223  43.862  1.00  0.00    -0.231 N 
HETATM    6  N3  UNL     1      33.847   7.953  45.207  1.00  0.00    -0.073 NA
HETATM    7  C4  UNL     1      34.085   7.471  46.414  1.00  0.00     0.168 C 
HETATM    8  C5  UNL     1      32.790   7.072  47.017  1.00  0.00     0.080 A 
HETATM    9  C6  UNL     1      32.454   5.709  47.004  1.00  0.00     0.075 A 
HETATM   10  N4  UNL     1      31.226   5.558  47.596  1.00  0.00    -0.245 NA
HETATM   11  C12 UNL     1      30.881   6.811  47.934  1.00  0.00     0.210 A 
HETATM   12  N5  UNL     1      31.777   7.757  47.614  1.00  0.00    -0.333 N 
HETATM   13  C13 UNL     1      31.570   9.135  47.925  1.00  0.00     0.100 C 
HETATM   14  C14 UNL     1      30.926   9.343  49.299  1.00  0.00     0.026 C 
HETATM   15  C15 UNL     1      30.210  10.677  49.329  1.00  0.00     0.002 C 
HETATM   16  C16 UNL     1      29.012  10.640  48.444  1.00  0.00     0.001 C 
HETATM   17  C17 UNL     1      29.249   9.806  47.209  1.00  0.00     0.013 C 
HETATM   18  C18 UNL     1      30.747   9.864  46.930  1.00  0.00     0.057 C 
HETATM   19  H3  UNL     1      31.965   7.878  43.124  1.00  0.00     0.174 HD
HETATM   20  H4  UNL     1      31.020   6.393  44.092  1.00  0.00     0.174 HD
ENDROOT
BRANCH   9  21
HETATM   21  C7  UNL     1      33.264   4.577  46.469  1.00  0.00     0.088 A 
HETATM   22  C8  UNL     1      34.268   4.061  47.401  1.00  0.00    -0.009 A 
HETATM   23  C9  UNL     1      34.058   2.776  47.724  1.00  0.00     0.039 A 
HETATM   24  C10 UNL     1      32.853   2.344  46.998  1.00  0.00     0.113 A 
HETATM   25  F1  UNL     1      32.311   1.097  47.065  1.00  0.00    -0.206 F 
HETATM   26  C11 UNL     1      32.396   3.360  46.284  1.00  0.00     0.030 A 
ENDBRANCH   9  21
TORSDOF 1
ENDMDL
