MODEL 1
REMARK VINA RESULT:      -8.7      0.000      0.000
REMARK  6 active torsions:
REMARK  status: ('A' for Active; 'I' for Inactive)
REMARK    1  A    between atoms: N1_1  and  C1_2 
REMARK    2  A    between atoms: C2_4  and  N3_5 
REMARK    3  A    between atoms: N3_5  and  C3_6 
REMARK    4  A    between atoms: C6_9  and  S1_10 
REMARK    5  A    between atoms: S1_10  and  N4_11 
REMARK    6  A    between atoms: N6_26  and  C16_27 
ROOT
HETATM    1  C1  UNL     1      26.165   2.254  52.337  1.00  0.00     0.205 C 
HETATM    2  N2  UNL     1      25.763   2.994  51.449  1.00  0.00    -0.033 NA
HETATM    3  C2  UNL     1      24.523   3.405  50.917  1.00  0.00     0.725 C 
HETATM    4  N5  UNL     1      23.263   3.722  50.750  1.00  0.00    -0.101 NA
HETATM    5  C9  UNL     1      22.252   3.642  51.845  1.00  0.00     0.210 C 
HETATM    6  C10 UNL     1      22.512   2.295  52.471  1.00  0.00     0.003 A 
HETATM    7  C11 UNL     1      21.691   1.292  52.074  1.00  0.00     0.015 A 
HETATM    8  C12 UNL     1      22.396   0.092  52.297  1.00  0.00     0.045 A 
HETATM    9  C13 UNL     1      23.701   0.104  52.832  1.00  0.00     0.146 A 
HETATM   10  F1  UNL     1      24.449  -1.000  53.052  1.00  0.00    -0.204 F 
HETATM   11  C14 UNL     1      24.026   1.411  53.045  1.00  0.00     0.122 A 
HETATM   12  C15 UNL     1      23.687   2.702  52.992  1.00  0.00     0.154 A 
HETATM   13  F2  UNL     1      24.305   3.787  53.386  1.00  0.00    -0.203 F 
HETATM   14  N6  UNL     1      25.414   1.449  53.222  1.00  0.00    -0.257 N 
ENDROOT
BRANCH   3  15
HETATM   15  N3  UNL     1      25.003   3.615  49.557  1.00  0.00    -0.188 N 
HETATM   16  H3  UNL     1      24.716   3.047  48.681  1.00  0.00     0.184 HD
BRANCH  15  17
HETATM   17  C3  UNL     1      25.959   4.637  49.165  1.00  0.00     0.049 A 
HETATM   18  C4  UNL     1      27.301   4.402  48.860  1.00  0.00     0.031 A 
HETATM   19  C5  UNL     1      28.224   5.323  48.499  1.00  0.00     0.027 A 
HETATM   20  C6  UNL     1      27.810   6.616  48.422  1.00  0.00     0.074 A 
HETATM   21  C7  UNL     1      26.502   6.933  48.707  1.00  0.00     0.027 A 
HETATM   22  C8  UNL     1      25.616   5.946  49.068  1.00  0.00     0.031 A 
BRANCH  20  23
HETATM   23  S1  UNL     1      28.916   7.890  47.966  1.00  0.00     0.239 S 
HETATM   24  O1  UNL     1      29.803   7.379  46.874  1.00  0.00    -0.206 OA
HETATM   25  O2  UNL     1      28.085   9.057  47.520  1.00  0.00    -0.206 OA
BRANCH  23  26
HETATM   26  N4  UNL     1      29.887   8.318  49.342  1.00  0.00    -0.225 NA
HETATM   27  H6  UNL     1      29.275   8.382  50.162  1.00  0.00     0.136 HD
HETATM   28  H7  UNL     1      30.618   7.596  49.534  1.00  0.00     0.136 HD
ENDBRANCH  23  26
ENDBRANCH  20  23
ENDBRANCH  15  17
ENDBRANCH   3  15
BRANCH   1  29
HETATM   29  N1  UNL     1      27.565   2.438  52.179  1.00  0.00    -0.271 NA
HETATM   30  H1  UNL     1      28.368   2.605  52.809  1.00  0.00     0.127 HD
HETATM   31  H2  UNL     1      28.351   2.606  52.844  1.00  0.00     0.127 HD
ENDBRANCH   1  29
BRANCH  14  32
HETATM   32  C16 UNL     1      26.264   0.858  54.077  1.00  0.00     0.363 C 
HETATM   33  O3  UNL     1      26.474   1.900  54.704  1.00  0.00    -0.283 OA
ENDBRANCH  14  32
TORSDOF 6
ENDMDL
MODEL 2
REMARK VINA RESULT:      -8.0      3.647      4.795
REMARK  6 active torsions:
REMARK  status: ('A' for Active; 'I' for Inactive)
REMARK    1  A    between atoms: N1_1  and  C1_2 
REMARK    2  A    between atoms: C2_4  and  N3_5 
REMARK    3  A    between atoms: N3_5  and  C3_6 
REMARK    4  A    between atoms: C6_9  and  S1_10 
REMARK    5  A    between atoms: S1_10  and  N4_11 
REMARK    6  A    between atoms: N6_26  and  C16_27 
ROOT
HETATM    1  C1  UNL     1      28.290   1.995  53.108  1.00  0.00     0.205 C 
HETATM    2  N2  UNL     1      27.307   2.305  52.449  1.00  0.00    -0.033 NA
HETATM    3  C2  UNL     1      26.083   1.719  52.065  1.00  0.00     0.725 C 
HETATM    4  N5  UNL     1      24.989   1.001  52.011  1.00  0.00    -0.101 NA
HETATM    5  C9  UNL     1      24.607   0.019  53.067  1.00  0.00     0.210 C 
HETATM    6  C10 UNL     1      25.882  -0.746  53.320  1.00  0.00     0.003 A 
HETATM    7  C11 UNL     1      25.984  -1.944  52.694  1.00  0.00     0.015 A 
HETATM    8  C12 UNL     1      27.363  -2.218  52.587  1.00  0.00     0.045 A 
HETATM    9  C13 UNL     1      28.324  -1.311  53.081  1.00  0.00     0.146 A 
HETATM   10  F1  UNL     1      29.662  -1.490  52.994  1.00  0.00    -0.204 F 
HETATM   11  C14 UNL     1      27.637  -0.263  53.617  1.00  0.00     0.122 A 
HETATM   12  C15 UNL     1      26.468   0.318  53.905  1.00  0.00     0.154 A 
HETATM   13  F2  UNL     1      26.172   1.416  54.553  1.00  0.00    -0.203 F 
HETATM   14  N6  UNL     1      28.561   0.778  53.771  1.00  0.00    -0.257 N 
ENDROOT
BRANCH   3  15
HETATM   15  N3  UNL     1      25.967   2.426  50.795  1.00  0.00    -0.188 N 
HETATM   16  H3  UNL     1      26.631   2.330  49.945  1.00  0.00     0.184 HD
BRANCH  15  17
HETATM   17  C3  UNL     1      24.922   3.385  50.474  1.00  0.00     0.049 A 
HETATM   18  C4  UNL     1      24.439   4.361  51.346  1.00  0.00     0.031 A 
HETATM   19  C5  UNL     1      23.465   5.266  51.091  1.00  0.00     0.027 A 
HETATM   20  C6  UNL     1      22.893   5.227  49.859  1.00  0.00     0.074 A 
HETATM   21  C7  UNL     1      23.313   4.293  48.939  1.00  0.00     0.027 A 
HETATM   22  C8  UNL     1      24.307   3.403  49.265  1.00  0.00     0.031 A 
BRANCH  20  23
HETATM   23  S1  UNL     1      21.626   6.347  49.418  1.00  0.00     0.239 S 
HETATM   24  O1  UNL     1      21.661   7.501  50.371  1.00  0.00    -0.206 OA
HETATM   25  O2  UNL     1      21.887   6.774  48.004  1.00  0.00    -0.206 OA
BRANCH  23  26
HETATM   26  N4  UNL     1      20.090   5.544  49.544  1.00  0.00    -0.225 NA
HETATM   27  H6  UNL     1      19.352   6.223  49.331  1.00  0.00     0.136 HD
HETATM   28  H7  UNL     1      20.015   4.754  48.864  1.00  0.00     0.136 HD
ENDBRANCH  23  26
ENDBRANCH  20  23
ENDBRANCH  15  17
ENDBRANCH   3  15
BRANCH   1  29
HETATM   29  N1  UNL     1      29.048   3.191  52.975  1.00  0.00    -0.271 NA
HETATM   30  H1  UNL     1      28.975   4.057  52.415  1.00  0.00     0.127 HD
HETATM   31  H2  UNL     1      28.944   4.051  52.394  1.00  0.00     0.127 HD
ENDBRANCH   1  29
BRANCH  14  32
HETATM   32  C16 UNL     1      29.725   0.906  54.428  1.00  0.00     0.363 C 
HETATM   33  O3  UNL     1      29.239   1.634  55.297  1.00  0.00    -0.283 OA
ENDBRANCH  14  32
TORSDOF 6
ENDMDL
MODEL 3
REMARK VINA RESULT:      -7.8      7.430      9.086
REMARK  6 active torsions:
REMARK  status: ('A' for Active; 'I' for Inactive)
REMARK    1  A    between atoms: N1_1  and  C1_2 
REMARK    2  A    between atoms: C2_4  and  N3_5 
REMARK    3  A    between atoms: N3_5  and  C3_6 
REMARK    4  A    between atoms: C6_9  and  S1_10 
REMARK    5  A    between atoms: S1_10  and  N4_11 
REMARK    6  A    between atoms: N6_26  and  C16_27 
ROOT
HETATM    1  C1  UNL     1      27.932   9.576  49.569  1.00  0.00     0.205 C 
HETATM    2  N2  UNL     1      29.125   9.312  49.643  1.00  0.00    -0.033 NA
HETATM    3  C2  UNL     1      30.221   9.191  48.765  1.00  0.00     0.725 C 
HETATM    4  N5  UNL     1      31.057   9.313  47.763  1.00  0.00    -0.101 NA
HETATM    5  C9  UNL     1      30.804  10.210  46.598  1.00  0.00     0.210 C 
HETATM    6  C10 UNL     1      29.372   9.916  46.227  1.00  0.00     0.003 A 
HETATM    7  C11 UNL     1      29.196   9.055  45.193  1.00  0.00     0.015 A 
HETATM    8  C12 UNL     1      27.913   8.494  45.360  1.00  0.00     0.045 A 
HETATM    9  C13 UNL     1      27.095   8.861  46.450  1.00  0.00     0.146 A 
HETATM   10  F1  UNL     1      25.867   8.352  46.691  1.00  0.00    -0.204 F 
HETATM   11  C14 UNL     1      27.797   9.778  47.176  1.00  0.00     0.122 A 
HETATM   12  C15 UNL     1      28.903  10.508  47.343  1.00  0.00     0.154 A 
HETATM   13  F2  UNL     1      29.223  11.426  48.220  1.00  0.00    -0.203 F 
HETATM   14  N6  UNL     1      27.162   9.865  48.421  1.00  0.00    -0.257 N 
ENDROOT
BRANCH   3  15
HETATM   15  N3  UNL     1      30.931   8.185  49.545  1.00  0.00    -0.188 N 
HETATM   16  H3  UNL     1      31.157   8.234  50.603  1.00  0.00     0.184 HD
BRANCH  15  17
HETATM   17  C3  UNL     1      31.455   6.939  49.008  1.00  0.00     0.049 A 
HETATM   18  C4  UNL     1      32.792   6.544  49.065  1.00  0.00     0.031 A 
HETATM   19  C5  UNL     1      33.321   5.400  48.573  1.00  0.00     0.027 A 
HETATM   20  C6  UNL     1      32.467   4.540  47.957  1.00  0.00     0.074 A 
HETATM   21  C7  UNL     1      31.132   4.854  47.857  1.00  0.00     0.027 A 
HETATM   22  C8  UNL     1      30.661   6.035  48.380  1.00  0.00     0.031 A 
BRANCH  20  23
HETATM   23  S1  UNL     1      33.040   3.032  47.283  1.00  0.00     0.239 S 
HETATM   24  O1  UNL     1      31.959   2.456  46.422  1.00  0.00    -0.206 OA
HETATM   25  O2  UNL     1      34.281   3.341  46.499  1.00  0.00    -0.206 OA
BRANCH  23  26
HETATM   26  N4  UNL     1      33.391   1.929  48.579  1.00  0.00    -0.225 NA
HETATM   27  H6  UNL     1      33.230   0.973  48.244  1.00  0.00     0.136 HD
HETATM   28  H7  UNL     1      34.388   2.004  48.886  1.00  0.00     0.136 HD
ENDBRANCH  23  26
ENDBRANCH  20  23
ENDBRANCH  15  17
ENDBRANCH   3  15
BRANCH   1  29
HETATM   29  N1  UNL     1      27.584   9.476  50.943  1.00  0.00    -0.271 NA
HETATM   30  H1  UNL     1      27.236  10.124  51.670  1.00  0.00     0.127 HD
HETATM   31  H2  UNL     1      27.234  10.157  51.651  1.00  0.00     0.127 HD
ENDBRANCH   1  29
BRANCH  14  32
HETATM   32  C16 UNL     1      25.914  10.164  48.815  1.00  0.00     0.363 C 
HETATM   33  O3  UNL     1      26.144  11.375  48.876  1.00  0.00    -0.283 OA
ENDBRANCH  14  32
TORSDOF 6
ENDMDL
MODEL 4
REMARK VINA RESULT:      -7.7      4.034      6.730
REMARK  6 active torsions:
REMARK  status: ('A' for Active; 'I' for Inactive)
REMARK    1  A    between atoms: N1_1  and  C1_2 
REMARK    2  A    between atoms: C2_4  and  N3_5 
REMARK    3  A    between atoms: N3_5  and  C3_6 
REMARK    4  A    between atoms: C6_9  and  S1_10 
REMARK    5  A    between atoms: S1_10  and  N4_11 
REMARK    6  A    between atoms: N6_26  and  C16_27 
ROOT
HETATM    1  C1  UNL     1      23.544   5.874  51.088  1.00  0.00     0.205 C 
HETATM    2  N2  UNL     1      23.805   4.694  51.277  1.00  0.00    -0.033 NA
HETATM    3  C2  UNL     1      23.496   3.452  50.687  1.00  0.00     0.725 C 
HETATM    4  N5  UNL     1      23.180   2.494  49.850  1.00  0.00    -0.101 NA
HETATM    5  C9  UNL     1      22.919   2.734  48.400  1.00  0.00     0.210 C 
HETATM    6  C10 UNL     1      22.007   3.936  48.397  1.00  0.00     0.003 A 
HETATM    7  C11 UNL     1      20.684   3.672  48.263  1.00  0.00     0.015 A 
HETATM    8  C12 UNL     1      20.003   4.770  48.825  1.00  0.00     0.045 A 
HETATM    9  C13 UNL     1      20.710   5.856  49.385  1.00  0.00     0.146 A 
HETATM   10  F1  UNL     1      20.130   6.932  49.962  1.00  0.00    -0.204 F 
HETATM   11  C14 UNL     1      22.036   5.578  49.238  1.00  0.00     0.122 A 
HETATM   12  C15 UNL     1      22.997   4.756  48.804  1.00  0.00     0.154 A 
HETATM   13  F2  UNL     1      24.301   4.868  48.781  1.00  0.00    -0.203 F 
HETATM   14  N6  UNL     1      22.719   6.448  50.096  1.00  0.00    -0.257 N 
ENDROOT
BRANCH   3  15
HETATM   15  N3  UNL     1      23.575   2.674  51.917  1.00  0.00    -0.188 N 
HETATM   16  H3  UNL     1      22.775   2.520  52.631  1.00  0.00     0.184 HD
BRANCH  15  17
HETATM   17  C3  UNL     1      24.763   1.975  52.380  1.00  0.00     0.049 A 
HETATM   18  C4  UNL     1      26.072   2.307  52.029  1.00  0.00     0.031 A 
HETATM   19  C5  UNL     1      27.203   1.680  52.429  1.00  0.00     0.027 A 
HETATM   20  C6  UNL     1      27.057   0.616  53.263  1.00  0.00     0.074 A 
HETATM   21  C7  UNL     1      25.798   0.223  53.658  1.00  0.00     0.027 A 
HETATM   22  C8  UNL     1      24.692   0.906  53.212  1.00  0.00     0.031 A 
BRANCH  20  23
HETATM   23  S1  UNL     1      28.447  -0.269  53.844  1.00  0.00     0.239 S 
HETATM   24  O1  UNL     1      28.390  -0.312  55.339  1.00  0.00    -0.206 OA
HETATM   25  O2  UNL     1      28.384  -1.640  53.236  1.00  0.00    -0.206 OA
BRANCH  23  26
HETATM   26  N4  UNL     1      29.893   0.556  53.348  1.00  0.00    -0.225 NA
HETATM   27  H6  UNL     1      30.509   0.650  54.163  1.00  0.00     0.136 HD
HETATM   28  H7  UNL     1      30.405   0.021  52.610  1.00  0.00     0.136 HD
ENDBRANCH  23  26
ENDBRANCH  20  23
ENDBRANCH  15  17
ENDBRANCH   3  15
BRANCH   1  29
HETATM   29  N1  UNL     1      24.282   6.451  52.158  1.00  0.00    -0.271 NA
HETATM   30  H1  UNL     1      24.102   7.166  52.883  1.00  0.00     0.127 HD
HETATM   31  H2  UNL     1      24.066   7.177  52.875  1.00  0.00     0.127 HD
ENDBRANCH   1  29
BRANCH  14  32
HETATM   32  C16 UNL     1      22.777   7.784  50.221  1.00  0.00     0.363 C 
HETATM   33  O3  UNL     1      23.800   7.878  49.539  1.00  0.00    -0.283 OA
ENDBRANCH  14  32
TORSDOF 6
ENDMDL
MODEL 5
REMARK VINA RESULT:      -7.7      4.220      6.585
REMARK  6 active torsions:
REMARK  status: ('A' for Active; 'I' for Inactive)
REMARK    1  A    between atoms: N1_1  and  C1_2 
REMARK    2  A    between atoms: C2_4  and  N3_5 
REMARK    3  A    between atoms: N3_5  and  C3_6 
REMARK    4  A    between atoms: C6_9  and  S1_10 
REMARK    5  A    between atoms: S1_10  and  N4_11 
REMARK    6  A    between atoms: N6_26  and  C16_27 
ROOT
HETATM    1  C1  UNL     1      22.434   2.910  48.744  1.00  0.00     0.205 C 
HETATM    2  N2  UNL     1      22.538   2.290  49.794  1.00  0.00    -0.033 NA
HETATM    3  C2  UNL     1      22.796   2.576  51.151  1.00  0.00     0.725 C 
HETATM    4  N5  UNL     1      22.889   3.148  52.326  1.00  0.00    -0.101 NA
HETATM    5  C9  UNL     1      22.408   4.535  52.596  1.00  0.00     0.210 C 
HETATM    6  C10 UNL     1      22.948   5.331  51.434  1.00  0.00     0.003 A 
HETATM    7  C11 UNL     1      24.089   6.023  51.673  1.00  0.00     0.015 A 
HETATM    8  C12 UNL     1      24.707   6.212  50.421  1.00  0.00     0.045 A 
HETATM    9  C13 UNL     1      24.122   5.710  49.238  1.00  0.00     0.146 A 
HETATM   10  F1  UNL     1      24.664   5.830  48.005  1.00  0.00    -0.204 F 
HETATM   11  C14 UNL     1      22.963   5.092  49.605  1.00  0.00     0.122 A 
HETATM   12  C15 UNL     1      22.105   4.738  50.565  1.00  0.00     0.154 A 
HETATM   13  F2  UNL     1      20.940   4.141  50.522  1.00  0.00    -0.203 F 
HETATM   14  N6  UNL     1      22.580   4.297  48.519  1.00  0.00    -0.257 N 
ENDROOT
BRANCH   3  15
HETATM   15  N3  UNL     1      23.447   1.307  51.452  1.00  0.00    -0.188 N 
HETATM   16  H3  UNL     1      23.053   0.319  51.247  1.00  0.00     0.184 HD
BRANCH  15  17
HETATM   17  C3  UNL     1      24.747   1.175  52.089  1.00  0.00     0.049 A 
HETATM   18  C4  UNL     1      25.900   1.860  51.702  1.00  0.00     0.031 A 
HETATM   19  C5  UNL     1      27.129   1.760  52.260  1.00  0.00     0.027 A 
HETATM   20  C6  UNL     1      27.263   0.907  53.310  1.00  0.00     0.074 A 
HETATM   21  C7  UNL     1      26.174   0.192  53.755  1.00  0.00     0.027 A 
HETATM   22  C8  UNL     1      24.954   0.341  53.140  1.00  0.00     0.031 A 
BRANCH  20  23
HETATM   23  S1  UNL     1      28.803   0.698  54.109  1.00  0.00     0.239 S 
HETATM   24  O1  UNL     1      28.593  -0.140  55.331  1.00  0.00    -0.206 OA
HETATM   25  O2  UNL     1      29.726   0.041  53.125  1.00  0.00    -0.206 OA
BRANCH  23  26
HETATM   26  N4  UNL     1      29.414   2.256  54.578  1.00  0.00    -0.225 NA
HETATM   27  H6  UNL     1      29.797   2.181  55.527  1.00  0.00     0.136 HD
HETATM   28  H7  UNL     1      30.179   2.575  53.941  1.00  0.00     0.136 HD
ENDBRANCH  23  26
ENDBRANCH  20  23
ENDBRANCH  15  17
ENDBRANCH   3  15
BRANCH   1  29
HETATM   29  N1  UNL     1      22.160   1.830  47.861  1.00  0.00    -0.271 NA
HETATM   30  H1  UNL     1      22.600   1.434  47.014  1.00  0.00     0.127 HD
HETATM   31  H2  UNL     1      22.629   1.457  47.008  1.00  0.00     0.127 HD
ENDBRANCH   1  29
BRANCH  14  32
HETATM   32  C16 UNL     1      22.310   4.544  47.227  1.00  0.00     0.363 C 
HETATM   33  O3  UNL     1      21.089   4.528  47.402  1.00  0.00    -0.283 OA
ENDBRANCH  14  32
TORSDOF 6
ENDMDL
MODEL 6
REMARK VINA RESULT:      -7.3      2.942      3.229
REMARK  6 active torsions:
REMARK  status: ('A' for Active; 'I' for Inactive)
REMARK    1  A    between atoms: N1_1  and  C1_2 
REMARK    2  A    between atoms: C2_4  and  N3_5 
REMARK    3  A    between atoms: N3_5  and  C3_6 
REMARK    4  A    between atoms: C6_9  and  S1_10 
REMARK    5  A    between atoms: S1_10  and  N4_11 
REMARK    6  A    between atoms: N6_26  and  C16_27 
ROOT
HETATM    1  C1  UNL     1      26.035   2.525  51.677  1.00  0.00     0.205 C 
HETATM    2  N2  UNL     1      25.165   2.960  50.934  1.00  0.00    -0.033 NA
HETATM    3  C2  UNL     1      23.761   2.891  50.822  1.00  0.00     0.725 C 
HETATM    4  N5  UNL     1      22.478   2.786  51.065  1.00  0.00    -0.101 NA
HETATM    5  C9  UNL     1      21.924   2.581  52.435  1.00  0.00     0.210 C 
HETATM    6  C10 UNL     1      22.792   1.490  53.010  1.00  0.00     0.003 A 
HETATM    7  C11 UNL     1      22.275   0.238  52.961  1.00  0.00     0.015 A 
HETATM    8  C12 UNL     1      23.373  -0.645  53.002  1.00  0.00     0.045 A 
HETATM    9  C13 UNL     1      24.696  -0.158  53.073  1.00  0.00     0.146 A 
HETATM   10  F1  UNL     1      25.800  -0.938  53.091  1.00  0.00    -0.204 F 
HETATM   11  C14 UNL     1      24.612   1.203  53.096  1.00  0.00     0.122 A 
HETATM   12  C15 UNL     1      23.861   2.308  53.090  1.00  0.00     0.154 A 
HETATM   13  F2  UNL     1      24.167   3.576  53.199  1.00  0.00    -0.203 F 
HETATM   14  N6  UNL     1      25.894   1.683  52.802  1.00  0.00    -0.257 N 
ENDROOT
BRANCH   3  15
HETATM   15  N3  UNL     1      23.718   3.017  49.370  1.00  0.00    -0.188 N 
HETATM   16  H3  UNL     1      23.824   2.212  48.653  1.00  0.00     0.184 HD
BRANCH  15  17
HETATM   17  C3  UNL     1      23.524   4.267  48.653  1.00  0.00     0.049 A 
HETATM   18  C4  UNL     1      24.293   5.418  48.831  1.00  0.00     0.031 A 
HETATM   19  C5  UNL     1      24.141   6.601  48.191  1.00  0.00     0.027 A 
HETATM   20  C6  UNL     1      23.138   6.685  47.277  1.00  0.00     0.074 A 
HETATM   21  C7  UNL     1      22.333   5.594  47.042  1.00  0.00     0.027 A 
HETATM   22  C8  UNL     1      22.543   4.422  47.728  1.00  0.00     0.031 A 
BRANCH  20  23
HETATM   23  S1  UNL     1      22.850   8.164  46.391  1.00  0.00     0.239 S 
HETATM   24  O1  UNL     1      22.478   7.809  44.985  1.00  0.00    -0.206 OA
HETATM   25  O2  UNL     1      21.748   8.895  47.100  1.00  0.00    -0.206 OA
BRANCH  23  26
HETATM   26  N4  UNL     1      24.306   9.111  46.379  1.00  0.00    -0.225 NA
HETATM   27  H6  UNL     1      24.150   9.953  46.944  1.00  0.00     0.136 HD
HETATM   28  H7  UNL     1      25.109   8.584  46.792  1.00  0.00     0.136 HD
ENDBRANCH  23  26
ENDBRANCH  20  23
ENDBRANCH  15  17
ENDBRANCH   3  15
BRANCH   1  29
HETATM   29  N1  UNL     1      27.180   3.092  51.055  1.00  0.00    -0.271 NA
HETATM   30  H1  UNL     1      27.383   3.952  50.519  1.00  0.00     0.127 HD
HETATM   31  H2  UNL     1      27.350   3.969  50.517  1.00  0.00     0.127 HD
ENDBRANCH   1  29
BRANCH  14  32
HETATM   32  C16 UNL     1      27.105   1.517  53.358  1.00  0.00     0.363 C 
HETATM   33  O3  UNL     1      26.941   2.434  54.166  1.00  0.00    -0.283 OA
ENDBRANCH  14  32
TORSDOF 6
ENDMDL
MODEL 7
REMARK VINA RESULT:      -7.3      4.874      9.449
REMARK  6 active torsions:
REMARK  status: ('A' for Active; 'I' for Inactive)
REMARK    1  A    between atoms: N1_1  and  C1_2 
REMARK    2  A    between atoms: C2_4  and  N3_5 
REMARK    3  A    between atoms: N3_5  and  C3_6 
REMARK    4  A    between atoms: C6_9  and  S1_10 
REMARK    5  A    between atoms: S1_10  and  N4_11 
REMARK    6  A    between atoms: N6_26  and  C16_27 
ROOT
HETATM    1  C1  UNL     1      30.273   9.076  47.503  1.00  0.00     0.205 C 
HETATM    2  N2  UNL     1      29.702   8.056  47.866  1.00  0.00    -0.033 NA
HETATM    3  C2  UNL     1      30.057   6.782  48.355  1.00  0.00     0.725 C 
HETATM    4  N5  UNL     1      30.665   5.773  48.928  1.00  0.00    -0.101 NA
HETATM    5  C9  UNL     1      31.971   5.908  49.638  1.00  0.00     0.210 C 
HETATM    6  C10 UNL     1      32.809   6.726  48.687  1.00  0.00     0.003 A 
HETATM    7  C11 UNL     1      33.670   6.025  47.908  1.00  0.00     0.015 A 
HETATM    8  C12 UNL     1      33.918   6.825  46.775  1.00  0.00     0.045 A 
HETATM    9  C13 UNL     1      33.305   8.088  46.628  1.00  0.00     0.146 A 
HETATM   10  F1  UNL     1      33.473   8.902  45.561  1.00  0.00    -0.204 F 
HETATM   11  C14 UNL     1      32.530   8.279  47.733  1.00  0.00     0.122 A 
HETATM   12  C15 UNL     1      32.076   7.835  48.909  1.00  0.00     0.154 A 
HETATM   13  F2  UNL     1      31.311   8.386  49.817  1.00  0.00    -0.203 F 
HETATM   14  N6  UNL     1      31.660   9.332  47.428  1.00  0.00    -0.257 N 
ENDROOT
BRANCH   3  15
HETATM   15  N3  UNL     1      28.907   6.079  47.798  1.00  0.00    -0.188 N 
HETATM   16  H3  UNL     1      28.813   5.702  46.787  1.00  0.00     0.184 HD
BRANCH  15  17
HETATM   17  C3  UNL     1      27.688   5.775  48.531  1.00  0.00     0.049 A 
HETATM   18  C4  UNL     1      26.749   6.720  48.947  1.00  0.00     0.031 A 
HETATM   19  C5  UNL     1      25.609   6.481  49.637  1.00  0.00     0.027 A 
HETATM   20  C6  UNL     1      25.343   5.188  49.961  1.00  0.00     0.074 A 
HETATM   21  C7  UNL     1      26.219   4.194  49.588  1.00  0.00     0.027 A 
HETATM   22  C8  UNL     1      27.360   4.508  48.889  1.00  0.00     0.031 A 
BRANCH  20  23
HETATM   23  S1  UNL     1      23.900   4.762  50.850  1.00  0.00     0.239 S 
HETATM   24  O1  UNL     1      22.707   5.158  50.036  1.00  0.00    -0.206 OA
HETATM   25  O2  UNL     1      23.952   3.282  51.093  1.00  0.00    -0.206 OA
BRANCH  23  26
HETATM   26  N4  UNL     1      23.883   5.631  52.354  1.00  0.00    -0.225 NA
HETATM   27  H6  UNL     1      24.045   6.624  52.157  1.00  0.00     0.136 HD
HETATM   28  H7  UNL     1      22.961   5.540  52.839  1.00  0.00     0.136 HD
ENDBRANCH  23  26
ENDBRANCH  20  23
ENDBRANCH  15  17
ENDBRANCH   3  15
BRANCH   1  29
HETATM   29  N1  UNL     1      29.142   9.871  47.172  1.00  0.00    -0.271 NA
HETATM   30  H1  UNL     1      28.496  10.493  47.687  1.00  0.00     0.127 HD
HETATM   31  H2  UNL     1      28.508  10.491  47.723  1.00  0.00     0.127 HD
ENDBRANCH   1  29
BRANCH  14  32
HETATM   32  C16 UNL     1      31.832  10.607  47.044  1.00  0.00     0.363 C 
HETATM   33  O3  UNL     1      31.587  11.056  48.166  1.00  0.00    -0.283 OA
ENDBRANCH  14  32
TORSDOF 6
ENDMDL
MODEL 8
REMARK VINA RESULT:      -7.2      4.640      6.859
REMARK  6 active torsions:
REMARK  status: ('A' for Active; 'I' for Inactive)
REMARK    1  A    between atoms: N1_1  and  C1_2 
REMARK    2  A    between atoms: C2_4  and  N3_5 
REMARK    3  A    between atoms: N3_5  and  C3_6 
REMARK    4  A    between atoms: C6_9  and  S1_10 
REMARK    5  A    between atoms: S1_10  and  N4_11 
REMARK    6  A    between atoms: N6_26  and  C16_27 
ROOT
HETATM    1  C1  UNL     1      20.326   2.480  51.180  1.00  0.00     0.205 C 
HETATM    2  N2  UNL     1      21.500   2.211  51.396  1.00  0.00    -0.033 NA
HETATM    3  C2  UNL     1      22.723   2.903  51.508  1.00  0.00     0.725 C 
HETATM    4  N5  UNL     1      23.650   3.806  51.717  1.00  0.00    -0.101 NA
HETATM    5  C9  UNL     1      23.346   5.187  52.195  1.00  0.00     0.210 C 
HETATM    6  C10 UNL     1      22.193   5.619  51.323  1.00  0.00     0.003 A 
HETATM    7  C11 UNL     1      22.517   6.401  50.263  1.00  0.00     0.015 A 
HETATM    8  C12 UNL     1      21.486   6.231  49.317  1.00  0.00     0.045 A 
HETATM    9  C13 UNL     1      20.397   5.371  49.575  1.00  0.00     0.146 A 
HETATM   10  F1  UNL     1      19.384   5.137  48.711  1.00  0.00    -0.204 F 
HETATM   11  C14 UNL     1      20.600   4.842  50.815  1.00  0.00     0.122 A 
HETATM   12  C15 UNL     1      21.347   4.756  51.919  1.00  0.00     0.154 A 
HETATM   13  F2  UNL     1      21.168   4.123  53.051  1.00  0.00    -0.203 F 
HETATM   14  N6  UNL     1      19.742   3.740  50.919  1.00  0.00    -0.257 N 
ENDROOT
BRANCH   3  15
HETATM   15  N3  UNL     1      23.560   1.814  51.020  1.00  0.00    -0.188 N 
HETATM   16  H3  UNL     1      23.426   1.266  50.095  1.00  0.00     0.184 HD
BRANCH  15  17
HETATM   17  C3  UNL     1      24.723   1.287  51.717  1.00  0.00     0.049 A 
HETATM   18  C4  UNL     1      24.678   0.351  52.751  1.00  0.00     0.031 A 
HETATM   19  C5  UNL     1      25.732  -0.159  53.430  1.00  0.00     0.027 A 
HETATM   20  C6  UNL     1      26.968   0.281  53.072  1.00  0.00     0.074 A 
HETATM   21  C7  UNL     1      27.100   1.205  52.061  1.00  0.00     0.027 A 
HETATM   22  C8  UNL     1      25.985   1.681  51.413  1.00  0.00     0.031 A 
BRANCH  20  23
HETATM   23  S1  UNL     1      28.402  -0.308  53.880  1.00  0.00     0.239 S 
HETATM   24  O1  UNL     1      29.569   0.515  53.434  1.00  0.00    -0.206 OA
HETATM   25  O2  UNL     1      28.157  -0.190  55.355  1.00  0.00    -0.206 OA
BRANCH  23  26
HETATM   26  N4  UNL     1      28.663  -1.967  53.432  1.00  0.00    -0.225 NA
HETATM   27  H6  UNL     1      29.669  -2.161  53.482  1.00  0.00     0.136 HD
HETATM   28  H7  UNL     1      28.171  -2.621  54.082  1.00  0.00     0.136 HD
ENDBRANCH  23  26
ENDBRANCH  20  23
ENDBRANCH  15  17
ENDBRANCH   3  15
BRANCH   1  29
HETATM   29  N1  UNL     1      19.770   1.174  51.247  1.00  0.00    -0.271 NA
HETATM   30  H1  UNL     1      20.007   0.245  50.859  1.00  0.00     0.127 HD
HETATM   31  H2  UNL     1      20.038   0.252  50.838  1.00  0.00     0.127 HD
ENDBRANCH   1  29
BRANCH  14  32
HETATM   32  C16 UNL     1      18.414   3.575  50.812  1.00  0.00     0.363 C 
HETATM   33  O3  UNL     1      18.237   3.616  52.032  1.00  0.00    -0.283 OA
ENDBRANCH  14  32
TORSDOF 6
ENDMDL
MODEL 9
REMARK VINA RESULT:      -7.2      5.102      9.297
REMARK  6 active torsions:
REMARK  status: ('A' for Active; 'I' for Inactive)
REMARK    1  A    between atoms: N1_1  and  C1_2 
REMARK    2  A    between atoms: C2_4  and  N3_5 
REMARK    3  A    between atoms: N3_5  and  C3_6 
REMARK    4  A    between atoms: C6_9  and  S1_10 
REMARK    5  A    between atoms: S1_10  and  N4_11 
REMARK    6  A    between atoms: N6_26  and  C16_27 
ROOT
HETATM    1  C1  UNL     1      30.901   7.813  45.409  1.00  0.00     0.205 C 
HETATM    2  N2  UNL     1      30.141   8.207  46.284  1.00  0.00    -0.033 NA
HETATM    3  C2  UNL     1      30.071   8.180  47.691  1.00  0.00     0.725 C 
HETATM    4  N5  UNL     1      30.355   8.147  48.970  1.00  0.00    -0.101 NA
HETATM    5  C9  UNL     1      31.752   8.097  49.492  1.00  0.00     0.210 C 
HETATM    6  C10 UNL     1      32.409   7.035  48.646  1.00  0.00     0.003 A 
HETATM    7  C11 UNL     1      32.495   5.803  49.208  1.00  0.00     0.015 A 
HETATM    8  C12 UNL     1      32.594   4.888  48.140  1.00  0.00     0.045 A 
HETATM    9  C13 UNL     1      32.585   5.330  46.800  1.00  0.00     0.146 A 
HETATM   10  F1  UNL     1      32.652   4.515  45.724  1.00  0.00    -0.204 F 
HETATM   11  C14 UNL     1      32.478   6.689  46.835  1.00  0.00     0.122 A 
HETATM   12  C15 UNL     1      32.382   7.816  47.548  1.00  0.00     0.154 A 
HETATM   13  F2  UNL     1      32.360   9.076  47.194  1.00  0.00    -0.203 F 
HETATM   14  N6  UNL     1      32.106   7.090  45.546  1.00  0.00    -0.257 N 
ENDROOT
BRANCH   3  15
HETATM   15  N3  UNL     1      28.615   8.167  47.771  1.00  0.00    -0.188 N 
HETATM   16  H3  UNL     1      27.947   8.948  47.430  1.00  0.00     0.184 HD
BRANCH  15  17
HETATM   17  C3  UNL     1      27.827   7.082  48.334  1.00  0.00     0.049 A 
HETATM   18  C4  UNL     1      26.607   7.240  48.992  1.00  0.00     0.031 A 
HETATM   19  C5  UNL     1      25.846   6.261  49.536  1.00  0.00     0.027 A 
HETATM   20  C6  UNL     1      26.313   4.988  49.434  1.00  0.00     0.074 A 
HETATM   21  C7  UNL     1      27.510   4.746  48.800  1.00  0.00     0.027 A 
HETATM   22  C8  UNL     1      28.232   5.789  48.270  1.00  0.00     0.031 A 
BRANCH  20  23
HETATM   23  S1  UNL     1      25.415   3.644  50.100  1.00  0.00     0.239 S 
HETATM   24  O1  UNL     1      24.341   3.265  49.129  1.00  0.00    -0.206 OA
HETATM   25  O2  UNL     1      26.393   2.529  50.326  1.00  0.00    -0.206 OA
BRANCH  23  26
HETATM   26  N4  UNL     1      24.687   4.136  51.599  1.00  0.00    -0.225 NA
HETATM   27  H6  UNL     1      25.253   4.890  52.002  1.00  0.00     0.136 HD
HETATM   28  H7  UNL     1      23.716   4.497  51.453  1.00  0.00     0.136 HD
ENDBRANCH  23  26
ENDBRANCH  20  23
ENDBRANCH  15  17
ENDBRANCH   3  15
BRANCH   1  29
HETATM   29  N1  UNL     1      30.198   8.275  44.263  1.00  0.00    -0.271 NA
HETATM   30  H1  UNL     1      30.096   9.177  43.768  1.00  0.00     0.127 HD
HETATM   31  H2  UNL     1      30.117   9.201  43.789  1.00  0.00     0.127 HD
ENDBRANCH   1  29
BRANCH  14  32
HETATM   32  C16 UNL     1      32.645   6.933  44.327  1.00  0.00     0.363 C 
HETATM   33  O3  UNL     1      33.183   8.043  44.341  1.00  0.00    -0.283 OA
ENDBRANCH  14  32
TORSDOF 6
ENDMDL
