MODEL 1
REMARK VINA RESULT:      -7.4      0.000      0.000
REMARK  8 active torsions:
REMARK  status: ('A' for Active; 'I' for Inactive)
REMARK    1  A    between atoms: C2_2  and  N1_3 
REMARK    2  A    between atoms: N1_3  and  C3_4 
REMARK    3  A    between atoms: N1_3  and  C5_6 
REMARK    4  A    between atoms: C5_6  and  C6_7 
REMARK    5  A    between atoms: C6_7  and  N2_8 
REMARK    6  A    between atoms: N2_8  and  C7_9 
REMARK    7  A    between atoms: N3_12  and  C10_13 
REMARK    8  A    between atoms: C10_13  and  C11_14 
ROOT
HETATM    1  C7  UNL     1      25.938   2.588  51.207  1.00  0.00     0.025 C 
HETATM    2  C8  UNL     1      26.825   1.603  51.566  1.00  0.00     0.021 C 
HETATM    3  C9  UNL     1      26.657   0.253  52.254  1.00  0.00     0.148 C 
HETATM    4  N3  UNL     1      26.378   0.526  53.610  1.00  0.00    -0.392 N 
HETATM    5  C12 UNL     1      25.078   0.521  54.116  1.00  0.00     0.136 A 
HETATM    6  C13 UNL     1      24.797  -0.711  54.892  1.00  0.00     0.001 A 
HETATM    7  C14 UNL     1      23.643  -1.339  54.895  1.00  0.00     0.011 A 
HETATM    8  C15 UNL     1      22.507  -0.888  54.114  1.00  0.00     0.273 A 
HETATM    9  N4  UNL     1      21.361  -0.429  54.871  1.00  0.00     0.096 N 
HETATM   10  C16 UNL     1      20.494  -0.007  53.778  1.00  0.00     0.275 C 
HETATM   11  C17 UNL     1      21.427   0.429  52.643  1.00  0.00     0.067 C 
HETATM   12  C18 UNL     1      22.750   0.339  53.280  1.00  0.00    -0.033 A 
HETATM   13  C19 UNL     1      23.954   0.924  53.285  1.00  0.00    -0.027 A 
HETATM   14  C20 UNL     1      23.717   1.943  52.246  1.00  0.00     0.012 C 
HETATM   15  C21 UNL     1      24.493   2.623  51.404  1.00  0.00     0.029 C 
HETATM   16  H26 UNL     1      20.901  -1.180  55.418  1.00  0.00     0.317 HD
ENDROOT
BRANCH   1  17
HETATM   17  N2  UNL     1      26.755   3.561  50.619  1.00  0.00    -0.389 N 
HETATM   18  H15 UNL     1      27.584   3.929  51.159  1.00  0.00     0.159 HD
BRANCH  17  19
HETATM   19  C6  UNL     1      26.607   4.141  49.341  1.00  0.00     0.139 C 
BRANCH  19  20
HETATM   20  C5  UNL     1      26.104   5.535  49.228  1.00  0.00     0.136 C 
BRANCH  20  21
HETATM   21  N1  UNL     1      24.792   5.757  49.645  1.00  0.00    -0.412 N 
BRANCH  21  22
HETATM   22  C2  UNL     1      24.425   6.356  50.833  1.00  0.00     0.112 C 
HETATM   23  C1  UNL     1      23.794   7.730  50.736  1.00  0.00     0.026 C 
ENDBRANCH  21  22
BRANCH  21  24
HETATM   24  C3  UNL     1      23.836   5.782  48.589  1.00  0.00     0.112 C 
HETATM   25  C4  UNL     1      22.976   4.558  48.582  1.00  0.00     0.026 C 
ENDBRANCH  21  24
ENDBRANCH  20  21
ENDBRANCH  19  20
ENDBRANCH  17  19
ENDBRANCH   1  17
BRANCH   4  26
HETATM   26  C10 UNL     1      27.315  -0.141  54.457  1.00  0.00     0.187 C 
BRANCH  26  27
HETATM   27  C11 UNL     1      28.596   0.635  54.471  1.00  0.00     0.250 C 
HETATM   28  O1  UNL     1      28.881   1.813  54.587  1.00  0.00    -0.305 OA
ENDBRANCH  26  27
ENDBRANCH   4  26
TORSDOF 8
ENDMDL
MODEL 2
REMARK VINA RESULT:      -7.4      2.196      4.485
REMARK  8 active torsions:
REMARK  status: ('A' for Active; 'I' for Inactive)
REMARK    1  A    between atoms: C2_2  and  N1_3 
REMARK    2  A    between atoms: N1_3  and  C3_4 
REMARK    3  A    between atoms: N1_3  and  C5_6 
REMARK    4  A    between atoms: C5_6  and  C6_7 
REMARK    5  A    between atoms: C6_7  and  N2_8 
REMARK    6  A    between atoms: N2_8  and  C7_9 
REMARK    7  A    between atoms: N3_12  and  C10_13 
REMARK    8  A    between atoms: C10_13  and  C11_14 
ROOT
HETATM    1  C7  UNL     1      24.699   3.137  50.285  1.00  0.00     0.025 C 
HETATM    2  C8  UNL     1      23.587   2.832  51.031  1.00  0.00     0.021 C 
HETATM    3  C9  UNL     1      23.399   2.219  52.414  1.00  0.00     0.148 C 
HETATM    4  N3  UNL     1      23.720   0.851  52.293  1.00  0.00    -0.392 N 
HETATM    5  C12 UNL     1      24.969   0.346  52.654  1.00  0.00     0.136 A 
HETATM    6  C13 UNL     1      24.920  -0.360  53.957  1.00  0.00     0.001 A 
HETATM    7  C14 UNL     1      25.878  -0.328  54.855  1.00  0.00     0.011 A 
HETATM    8  C15 UNL     1      27.102   0.427  54.666  1.00  0.00     0.273 A 
HETATM    9  N4  UNL     1      28.316  -0.353  54.552  1.00  0.00     0.096 N 
HETATM   10  C16 UNL     1      29.276   0.716  54.306  1.00  0.00     0.275 C 
HETATM   11  C17 UNL     1      28.498   1.825  53.587  1.00  0.00     0.067 C 
HETATM   12  C18 UNL     1      27.187   1.192  53.374  1.00  0.00    -0.033 A 
HETATM   13  C19 UNL     1      26.170   1.155  52.505  1.00  0.00    -0.027 A 
HETATM   14  C20 UNL     1      26.671   2.136  51.525  1.00  0.00     0.012 C 
HETATM   15  C21 UNL     1      26.103   2.939  50.627  1.00  0.00     0.029 C 
HETATM   16  H26 UNL     1      28.564  -0.857  55.424  1.00  0.00     0.317 HD
ENDROOT
BRANCH   1  17
HETATM   17  N2  UNL     1      24.162   3.669  49.106  1.00  0.00    -0.389 N 
HETATM   18  H15 UNL     1      24.191   3.093  48.223  1.00  0.00     0.159 HD
BRANCH  17  19
HETATM   19  C6  UNL     1      23.560   4.935  48.939  1.00  0.00     0.139 C 
BRANCH  19  20
HETATM   20  C5  UNL     1      24.379   6.071  48.442  1.00  0.00     0.136 C 
BRANCH  20  21
HETATM   21  N1  UNL     1      25.550   6.348  49.147  1.00  0.00    -0.412 N 
BRANCH  21  22
HETATM   22  C2  UNL     1      26.801   6.501  48.584  1.00  0.00     0.112 C 
HETATM   23  C1  UNL     1      27.678   5.267  48.529  1.00  0.00     0.026 C 
ENDBRANCH  21  22
BRANCH  21  24
HETATM   24  C3  UNL     1      25.340   6.947  50.421  1.00  0.00     0.112 C 
HETATM   25  C4  UNL     1      24.529   8.201  50.325  1.00  0.00     0.026 C 
ENDBRANCH  21  24
ENDBRANCH  20  21
ENDBRANCH  19  20
ENDBRANCH  17  19
ENDBRANCH   1  17
BRANCH   4  26
HETATM   26  C10 UNL     1      22.634   0.041  52.746  1.00  0.00     0.187 C 
BRANCH  26  27
HETATM   27  C11 UNL     1      21.499   0.931  53.151  1.00  0.00     0.250 C 
HETATM   28  O1  UNL     1      20.556   0.821  53.913  1.00  0.00    -0.305 OA
ENDBRANCH  26  27
ENDBRANCH   4  26
TORSDOF 8
ENDMDL
MODEL 3
REMARK VINA RESULT:      -7.3      1.462      2.207
REMARK  8 active torsions:
REMARK  status: ('A' for Active; 'I' for Inactive)
REMARK    1  A    between atoms: C2_2  and  N1_3 
REMARK    2  A    between atoms: N1_3  and  C3_4 
REMARK    3  A    between atoms: N1_3  and  C5_6 
REMARK    4  A    between atoms: C5_6  and  C6_7 
REMARK    5  A    between atoms: C6_7  and  N2_8 
REMARK    6  A    between atoms: N2_8  and  C7_9 
REMARK    7  A    between atoms: N3_12  and  C10_13 
REMARK    8  A    between atoms: C10_13  and  C11_14 
ROOT
HETATM    1  C7  UNL     1      25.584   3.236  51.024  1.00  0.00     0.025 C 
HETATM    2  C8  UNL     1      26.615   2.344  51.188  1.00  0.00     0.021 C 
HETATM    3  C9  UNL     1      26.691   0.938  51.772  1.00  0.00     0.148 C 
HETATM    4  N3  UNL     1      26.561   1.078  53.170  1.00  0.00    -0.392 N 
HETATM    5  C12 UNL     1      25.346   0.878  53.827  1.00  0.00     0.136 A 
HETATM    6  C13 UNL     1      25.307  -0.431  54.522  1.00  0.00     0.001 A 
HETATM    7  C14 UNL     1      24.241  -1.193  54.610  1.00  0.00     0.011 A 
HETATM    8  C15 UNL     1      22.970  -0.830  54.013  1.00  0.00     0.273 A 
HETATM    9  N4  UNL     1      21.887  -0.568  54.939  1.00  0.00     0.096 N 
HETATM   10  C16 UNL     1      20.845  -0.179  53.998  1.00  0.00     0.275 C 
HETATM   11  C17 UNL     1      21.568   0.448  52.801  1.00  0.00     0.067 C 
HETATM   12  C18 UNL     1      22.964   0.474  53.265  1.00  0.00    -0.033 A 
HETATM   13  C19 UNL     1      24.086   1.200  53.175  1.00  0.00    -0.027 A 
HETATM   14  C20 UNL     1      23.604   2.253  52.263  1.00  0.00     0.012 C 
HETATM   15  C21 UNL     1      24.183   3.081  51.395  1.00  0.00     0.029 C 
HETATM   16  H26 UNL     1      21.590  -1.407  55.470  1.00  0.00     0.317 HD
ENDROOT
BRANCH   1  17
HETATM   17  N2  UNL     1      26.205   4.341  50.428  1.00  0.00    -0.389 N 
HETATM   18  H15 UNL     1      26.828   4.958  51.015  1.00  0.00     0.159 HD
BRANCH  17  19
HETATM   19  C6  UNL     1      26.099   4.756  49.083  1.00  0.00     0.139 C 
BRANCH  19  20
HETATM   20  C5  UNL     1      25.735   6.166  48.783  1.00  0.00     0.136 C 
BRANCH  20  21
HETATM   21  N1  UNL     1      26.715   7.127  49.032  1.00  0.00    -0.412 N 
BRANCH  21  22
HETATM   22  C2  UNL     1      27.698   7.509  48.142  1.00  0.00     0.112 C 
HETATM   23  C1  UNL     1      28.891   6.586  48.008  1.00  0.00     0.026 C 
ENDBRANCH  21  22
BRANCH  21  24
HETATM   24  C3  UNL     1      26.381   8.054  50.060  1.00  0.00     0.112 C 
HETATM   25  C4  UNL     1      27.348   9.194  50.124  1.00  0.00     0.026 C 
ENDBRANCH  21  24
ENDBRANCH  20  21
ENDBRANCH  19  20
ENDBRANCH  17  19
ENDBRANCH   1  17
BRANCH   4  26
HETATM   26  C10 UNL     1      27.668   0.471  53.839  1.00  0.00     0.187 C 
BRANCH  26  27
HETATM   27  C11 UNL     1      28.814   1.436  53.854  1.00  0.00     0.250 C 
HETATM   28  O1  UNL     1      29.116   2.394  54.543  1.00  0.00    -0.305 OA
ENDBRANCH  26  27
ENDBRANCH   4  26
TORSDOF 8
ENDMDL
MODEL 4
REMARK VINA RESULT:      -6.9      2.789      6.027
REMARK  8 active torsions:
REMARK  status: ('A' for Active; 'I' for Inactive)
REMARK    1  A    between atoms: C2_2  and  N1_3 
REMARK    2  A    between atoms: N1_3  and  C3_4 
REMARK    3  A    between atoms: N1_3  and  C5_6 
REMARK    4  A    between atoms: C5_6  and  C6_7 
REMARK    5  A    between atoms: C6_7  and  N2_8 
REMARK    6  A    between atoms: N2_8  and  C7_9 
REMARK    7  A    between atoms: N3_12  and  C10_13 
REMARK    8  A    between atoms: C10_13  and  C11_14 
ROOT
HETATM    1  C7  UNL     1      23.293  -0.075  53.547  1.00  0.00     0.025 C 
HETATM    2  C8  UNL     1      23.729   1.133  53.062  1.00  0.00     0.021 C 
HETATM    3  C9  UNL     1      23.065   2.217  52.219  1.00  0.00     0.148 C 
HETATM    4  N3  UNL     1      22.967   1.702  50.910  1.00  0.00    -0.392 N 
HETATM    5  C12 UNL     1      21.791   1.131  50.422  1.00  0.00     0.136 A 
HETATM    6  C13 UNL     1      21.073   2.051  49.508  1.00  0.00     0.001 A 
HETATM    7  C14 UNL     1      19.765   2.162  49.445  1.00  0.00     0.011 A 
HETATM    8  C15 UNL     1      18.873   1.389  50.287  1.00  0.00     0.273 A 
HETATM    9  N4  UNL     1      18.032   0.427  49.605  1.00  0.00     0.096 N 
HETATM   10  C16 UNL     1      17.365  -0.176  50.751  1.00  0.00     0.275 C 
HETATM   11  C17 UNL     1      18.353  -0.072  51.919  1.00  0.00     0.067 C 
HETATM   12  C18 UNL     1      19.554   0.464  51.259  1.00  0.00    -0.033 A 
HETATM   13  C19 UNL     1      20.890   0.411  51.309  1.00  0.00    -0.027 A 
HETATM   14  C20 UNL     1      21.039  -0.492  52.466  1.00  0.00     0.012 C 
HETATM   15  C21 UNL     1      21.990  -0.705  53.374  1.00  0.00     0.029 C 
HETATM   16  H26 UNL     1      17.333   0.866  48.978  1.00  0.00     0.317 HD
ENDROOT
BRANCH   1  17
HETATM   17  N2  UNL     1      24.408  -0.568  54.237  1.00  0.00    -0.389 N 
HETATM   18  H15 UNL     1      24.270  -1.016  55.182  1.00  0.00     0.159 HD
BRANCH  17  19
HETATM   19  C6  UNL     1      25.754  -0.542  53.812  1.00  0.00     0.139 C 
BRANCH  19  20
HETATM   20  C5  UNL     1      26.778   0.098  54.678  1.00  0.00     0.136 C 
BRANCH  20  21
HETATM   21  N1  UNL     1      27.761   0.845  54.029  1.00  0.00    -0.412 N 
BRANCH  21  22
HETATM   22  C2  UNL     1      27.576   2.099  53.482  1.00  0.00     0.112 C 
HETATM   23  C1  UNL     1      27.130   2.152  52.035  1.00  0.00     0.026 C 
ENDBRANCH  21  22
BRANCH  21  24
HETATM   24  C3  UNL     1      29.095   0.480  54.367  1.00  0.00     0.112 C 
HETATM   25  C4  UNL     1      29.596  -0.655  53.531  1.00  0.00     0.026 C 
ENDBRANCH  21  24
ENDBRANCH  20  21
ENDBRANCH  19  20
ENDBRANCH  17  19
ENDBRANCH   1  17
BRANCH   4  26
HETATM   26  C10 UNL     1      23.593   2.584  49.977  1.00  0.00     0.187 C 
BRANCH  26  27
HETATM   27  C11 UNL     1      23.988   3.842  50.689  1.00  0.00     0.250 C 
HETATM   28  O1  UNL     1      24.959   4.576  50.652  1.00  0.00    -0.305 OA
ENDBRANCH  26  27
ENDBRANCH   4  26
TORSDOF 8
ENDMDL
MODEL 5
REMARK VINA RESULT:      -6.9      2.688      4.949
REMARK  8 active torsions:
REMARK  status: ('A' for Active; 'I' for Inactive)
REMARK    1  A    between atoms: C2_2  and  N1_3 
REMARK    2  A    between atoms: N1_3  and  C3_4 
REMARK    3  A    between atoms: N1_3  and  C5_6 
REMARK    4  A    between atoms: C5_6  and  C6_7 
REMARK    5  A    between atoms: C6_7  and  N2_8 
REMARK    6  A    between atoms: N2_8  and  C7_9 
REMARK    7  A    between atoms: N3_12  and  C10_13 
REMARK    8  A    between atoms: C10_13  and  C11_14 
ROOT
HETATM    1  C7  UNL     1      24.777   3.231  50.282  1.00  0.00     0.025 C 
HETATM    2  C8  UNL     1      23.673   2.982  51.059  1.00  0.00     0.021 C 
HETATM    3  C9  UNL     1      23.492   2.372  52.445  1.00  0.00     0.148 C 
HETATM    4  N3  UNL     1      23.736   0.989  52.310  1.00  0.00    -0.392 N 
HETATM    5  C12 UNL     1      24.968   0.417  52.632  1.00  0.00     0.136 A 
HETATM    6  C13 UNL     1      24.919  -0.293  53.933  1.00  0.00     0.001 A 
HETATM    7  C14 UNL     1      25.903  -0.316  54.802  1.00  0.00     0.011 A 
HETATM    8  C15 UNL     1      27.159   0.374  54.580  1.00  0.00     0.273 A 
HETATM    9  N4  UNL     1      28.327  -0.468  54.428  1.00  0.00     0.096 N 
HETATM   10  C16 UNL     1      29.334   0.549  54.157  1.00  0.00     0.275 C 
HETATM   11  C17 UNL     1      28.596   1.702  53.466  1.00  0.00     0.067 C 
HETATM   12  C18 UNL     1      27.247   1.141  53.289  1.00  0.00    -0.033 A 
HETATM   13  C19 UNL     1      26.205   1.162  52.450  1.00  0.00    -0.027 A 
HETATM   14  C20 UNL     1      26.727   2.121  51.460  1.00  0.00     0.012 C 
HETATM   15  C21 UNL     1      26.177   2.958  50.582  1.00  0.00     0.029 C 
HETATM   16  H26 UNL     1      28.572  -0.990  55.289  1.00  0.00     0.317 HD
ENDROOT
BRANCH   1  17
HETATM   17  N2  UNL     1      24.234   3.798  49.122  1.00  0.00    -0.389 N 
HETATM   18  H15 UNL     1      24.788   3.760  48.225  1.00  0.00     0.159 HD
BRANCH  17  19
HETATM   19  C6  UNL     1      22.986   4.442  48.992  1.00  0.00     0.139 C 
BRANCH  19  20
HETATM   20  C5  UNL     1      21.893   3.769  48.240  1.00  0.00     0.136 C 
BRANCH  20  21
HETATM   21  N1  UNL     1      20.757   3.427  48.972  1.00  0.00    -0.412 N 
BRANCH  21  22
HETATM   22  C2  UNL     1      20.406   2.144  49.344  1.00  0.00     0.112 C 
HETATM   23  C1  UNL     1      21.380   1.041  48.986  1.00  0.00     0.026 C 
ENDBRANCH  21  22
BRANCH  21  24
HETATM   24  C3  UNL     1      20.211   4.493  49.742  1.00  0.00     0.112 C 
HETATM   25  C4  UNL     1      19.902   4.072  51.144  1.00  0.00     0.026 C 
ENDBRANCH  21  24
ENDBRANCH  20  21
ENDBRANCH  19  20
ENDBRANCH  17  19
ENDBRANCH   1  17
BRANCH   4  26
HETATM   26  C10 UNL     1      22.623   0.235  52.791  1.00  0.00     0.187 C 
BRANCH  26  27
HETATM   27  C11 UNL     1      21.449   1.151  52.951  1.00  0.00     0.250 C 
HETATM   28  O1  UNL     1      20.240   1.000  52.956  1.00  0.00    -0.305 OA
ENDBRANCH  26  27
ENDBRANCH   4  26
TORSDOF 8
ENDMDL
MODEL 6
REMARK VINA RESULT:      -6.9      3.377      7.780
REMARK  8 active torsions:
REMARK  status: ('A' for Active; 'I' for Inactive)
REMARK    1  A    between atoms: C2_2  and  N1_3 
REMARK    2  A    between atoms: N1_3  and  C3_4 
REMARK    3  A    between atoms: N1_3  and  C5_6 
REMARK    4  A    between atoms: C5_6  and  C6_7 
REMARK    5  A    between atoms: C6_7  and  N2_8 
REMARK    6  A    between atoms: N2_8  and  C7_9 
REMARK    7  A    between atoms: N3_12  and  C10_13 
REMARK    8  A    between atoms: C10_13  and  C11_14 
ROOT
HETATM    1  C7  UNL     1      21.247  -0.531  53.283  1.00  0.00     0.025 C 
HETATM    2  C8  UNL     1      21.013   0.267  52.191  1.00  0.00     0.021 C 
HETATM    3  C9  UNL     1      21.933   0.931  51.171  1.00  0.00     0.148 C 
HETATM    4  N3  UNL     1      22.569   1.997  51.841  1.00  0.00    -0.392 N 
HETATM    5  C12 UNL     1      23.857   1.881  52.366  1.00  0.00     0.136 A 
HETATM    6  C13 UNL     1      24.860   2.563  51.512  1.00  0.00     0.001 A 
HETATM    7  C14 UNL     1      26.077   2.116  51.297  1.00  0.00     0.011 A 
HETATM    8  C15 UNL     1      26.569   0.880  51.874  1.00  0.00     0.273 A 
HETATM    9  N4  UNL     1      27.641   1.015  52.839  1.00  0.00     0.096 N 
HETATM   10  C16 UNL     1      27.800  -0.380  53.228  1.00  0.00     0.275 C 
HETATM   11  C17 UNL     1      26.420  -1.027  53.060  1.00  0.00     0.067 C 
HETATM   12  C18 UNL     1      25.578   0.131  52.721  1.00  0.00    -0.033 A 
HETATM   13  C19 UNL     1      24.338   0.610  52.883  1.00  0.00    -0.027 A 
HETATM   14  C20 UNL     1      23.756  -0.515  53.638  1.00  0.00     0.012 C 
HETATM   15  C21 UNL     1      22.524  -0.990  53.814  1.00  0.00     0.029 C 
HETATM   16  H26 UNL     1      28.523   1.370  52.426  1.00  0.00     0.317 HD
ENDROOT
BRANCH   1  17
HETATM   17  N2  UNL     1      19.961  -0.786  53.778  1.00  0.00    -0.389 N 
HETATM   18  H15 UNL     1      19.832  -0.943  54.813  1.00  0.00     0.159 HD
BRANCH  17  19
HETATM   19  C6  UNL     1      18.763  -0.864  53.038  1.00  0.00     0.139 C 
BRANCH  19  20
HETATM   20  C5  UNL     1      17.668  -1.750  53.516  1.00  0.00     0.136 C 
BRANCH  20  21
HETATM   21  N1  UNL     1      16.435  -1.611  52.879  1.00  0.00    -0.412 N 
BRANCH  21  22
HETATM   22  C2  UNL     1      15.979  -0.460  52.268  1.00  0.00     0.112 C 
HETATM   23  C1  UNL     1      14.807   0.240  52.924  1.00  0.00     0.026 C 
ENDBRANCH  21  22
BRANCH  21  24
HETATM   24  C3  UNL     1      15.852  -2.839  52.455  1.00  0.00     0.112 C 
HETATM   25  C4  UNL     1      16.316  -3.997  53.282  1.00  0.00     0.026 C 
ENDBRANCH  21  24
ENDBRANCH  20  21
ENDBRANCH  19  20
ENDBRANCH  17  19
ENDBRANCH   1  17
BRANCH   4  26
HETATM   26  C10 UNL     1      22.354   3.225  51.144  1.00  0.00     0.187 C 
BRANCH  26  27
HETATM   27  C11 UNL     1      21.095   3.858  51.653  1.00  0.00     0.250 C 
HETATM   28  O1  UNL     1      20.378   3.677  52.620  1.00  0.00    -0.305 OA
ENDBRANCH  26  27
ENDBRANCH   4  26
TORSDOF 8
ENDMDL
MODEL 7
REMARK VINA RESULT:      -6.8      2.528      3.499
REMARK  8 active torsions:
REMARK  status: ('A' for Active; 'I' for Inactive)
REMARK    1  A    between atoms: C2_2  and  N1_3 
REMARK    2  A    between atoms: N1_3  and  C3_4 
REMARK    3  A    between atoms: N1_3  and  C5_6 
REMARK    4  A    between atoms: C5_6  and  C6_7 
REMARK    5  A    between atoms: C6_7  and  N2_8 
REMARK    6  A    between atoms: N2_8  and  C7_9 
REMARK    7  A    between atoms: N3_12  and  C10_13 
REMARK    8  A    between atoms: C10_13  and  C11_14 
ROOT
HETATM    1  C7  UNL     1      25.997   3.551  50.218  1.00  0.00     0.025 C 
HETATM    2  C8  UNL     1      26.688   2.660  51.001  1.00  0.00     0.021 C 
HETATM    3  C9  UNL     1      26.297   1.351  51.680  1.00  0.00     0.148 C 
HETATM    4  N3  UNL     1      25.466   1.697  52.767  1.00  0.00    -0.392 N 
HETATM    5  C12 UNL     1      24.075   1.633  52.688  1.00  0.00     0.136 A 
HETATM    6  C13 UNL     1      23.539   0.441  53.387  1.00  0.00     0.001 A 
HETATM    7  C14 UNL     1      22.513  -0.266  52.970  1.00  0.00     0.011 A 
HETATM    8  C15 UNL     1      21.793   0.048  51.751  1.00  0.00     0.273 A 
HETATM    9  N4  UNL     1      20.419   0.475  51.920  1.00  0.00     0.096 N 
HETATM   10  C16 UNL     1      20.075   0.757  50.532  1.00  0.00     0.275 C 
HETATM   11  C17 UNL     1      21.381   1.180  49.850  1.00  0.00     0.067 C 
HETATM   12  C18 UNL     1      22.318   1.229  50.984  1.00  0.00    -0.033 A 
HETATM   13  C19 UNL     1      23.388   1.897  51.432  1.00  0.00    -0.027 A 
HETATM   14  C20 UNL     1      23.571   2.823  50.299  1.00  0.00     0.012 C 
HETATM   15  C21 UNL     1      24.603   3.497  49.795  1.00  0.00     0.029 C 
HETATM   16  H26 UNL     1      19.801  -0.268  52.294  1.00  0.00     0.317 HD
ENDROOT
BRANCH   1  17
HETATM   17  N2  UNL     1      26.950   4.538  49.934  1.00  0.00    -0.389 N 
HETATM   18  H15 UNL     1      27.328   5.128  50.723  1.00  0.00     0.159 HD
BRANCH  17  19
HETATM   19  C6  UNL     1      27.494   4.860  48.673  1.00  0.00     0.139 C 
BRANCH  19  20
HETATM   20  C5  UNL     1      27.873   6.268  48.381  1.00  0.00     0.136 C 
BRANCH  20  21
HETATM   21  N1  UNL     1      29.132   6.467  47.815  1.00  0.00    -0.412 N 
BRANCH  21  22
HETATM   22  C2  UNL     1      29.473   7.514  46.982  1.00  0.00     0.112 C 
HETATM   23  C1  UNL     1      28.386   8.036  46.065  1.00  0.00     0.026 C 
ENDBRANCH  21  22
BRANCH  21  24
HETATM   24  C3  UNL     1      30.196   5.822  48.507  1.00  0.00     0.112 C 
HETATM   25  C4  UNL     1      31.170   5.183  47.568  1.00  0.00     0.026 C 
ENDBRANCH  21  24
ENDBRANCH  20  21
ENDBRANCH  19  20
ENDBRANCH  17  19
ENDBRANCH   1  17
BRANCH   4  26
HETATM   26  C10 UNL     1      25.986   1.158  53.984  1.00  0.00     0.187 C 
BRANCH  26  27
HETATM   27  C11 UNL     1      27.091   0.201  53.658  1.00  0.00     0.250 C 
HETATM   28  O1  UNL     1      27.632  -0.714  54.253  1.00  0.00    -0.305 OA
ENDBRANCH  26  27
ENDBRANCH   4  26
TORSDOF 8
ENDMDL
MODEL 8
REMARK VINA RESULT:      -6.7      2.845      8.213
REMARK  8 active torsions:
REMARK  status: ('A' for Active; 'I' for Inactive)
REMARK    1  A    between atoms: C2_2  and  N1_3 
REMARK    2  A    between atoms: N1_3  and  C3_4 
REMARK    3  A    between atoms: N1_3  and  C5_6 
REMARK    4  A    between atoms: C5_6  and  C6_7 
REMARK    5  A    between atoms: C6_7  and  N2_8 
REMARK    6  A    between atoms: N2_8  and  C7_9 
REMARK    7  A    between atoms: N3_12  and  C10_13 
REMARK    8  A    between atoms: C10_13  and  C11_14 
ROOT
HETATM    1  C7  UNL     1      24.596   2.963  50.169  1.00  0.00     0.025 C 
HETATM    2  C8  UNL     1      23.606   3.684  49.550  1.00  0.00     0.021 C 
HETATM    3  C9  UNL     1      23.627   4.864  48.584  1.00  0.00     0.148 C 
HETATM    4  N3  UNL     1      24.008   5.993  49.339  1.00  0.00    -0.392 N 
HETATM    5  C12 UNL     1      25.320   6.468  49.355  1.00  0.00     0.136 A 
HETATM    6  C13 UNL     1      25.475   7.680  48.516  1.00  0.00     0.001 A 
HETATM    7  C14 UNL     1      26.535   7.947  47.787  1.00  0.00     0.011 A 
HETATM    8  C15 UNL     1      27.680   7.060  47.718  1.00  0.00     0.273 A 
HETATM    9  N4  UNL     1      28.913   7.573  48.277  1.00  0.00     0.096 N 
HETATM   10  C16 UNL     1      29.771   6.410  48.094  1.00  0.00     0.275 C 
HETATM   11  C17 UNL     1      28.848   5.188  48.162  1.00  0.00     0.067 C 
HETATM   12  C18 UNL     1      27.559   5.797  48.525  1.00  0.00    -0.033 A 
HETATM   13  C19 UNL     1      26.444   5.553  49.225  1.00  0.00    -0.027 A 
HETATM   14  C20 UNL     1      26.761   4.191  49.693  1.00  0.00     0.012 C 
HETATM   15  C21 UNL     1      26.040   3.139  50.077  1.00  0.00     0.029 C 
HETATM   16  H26 UNL     1      29.296   8.381  47.754  1.00  0.00     0.317 HD
ENDROOT
BRANCH   1  17
HETATM   17  N2  UNL     1      23.885   2.023  50.927  1.00  0.00    -0.389 N 
HETATM   18  H15 UNL     1      23.343   1.268  50.430  1.00  0.00     0.159 HD
BRANCH  17  19
HETATM   19  C6  UNL     1      23.797   1.954  52.334  1.00  0.00     0.139 C 
BRANCH  19  20
HETATM   20  C5  UNL     1      24.417   0.806  53.047  1.00  0.00     0.136 C 
BRANCH  20  21
HETATM   21  N1  UNL     1      25.778   0.913  53.330  1.00  0.00    -0.412 N 
BRANCH  21  22
HETATM   22  C2  UNL     1      26.421   2.070  53.723  1.00  0.00     0.112 C 
HETATM   23  C1  UNL     1      27.852   2.244  53.258  1.00  0.00     0.026 C 
ENDBRANCH  21  22
BRANCH  21  24
HETATM   24  C3  UNL     1      26.406  -0.319  53.669  1.00  0.00     0.112 C 
HETATM   25  C4  UNL     1      26.629  -1.185  52.469  1.00  0.00     0.026 C 
ENDBRANCH  21  24
ENDBRANCH  20  21
ENDBRANCH  19  20
ENDBRANCH  17  19
ENDBRANCH   1  17
BRANCH   4  26
HETATM   26  C10 UNL     1      23.036   7.032  49.212  1.00  0.00     0.187 C 
BRANCH  26  27
HETATM   27  C11 UNL     1      22.454   7.322  50.561  1.00  0.00     0.250 C 
HETATM   28  O1  UNL     1      21.326   7.481  50.990  1.00  0.00    -0.305 OA
ENDBRANCH  26  27
ENDBRANCH   4  26
TORSDOF 8
ENDMDL
MODEL 9
REMARK VINA RESULT:      -6.4      2.962      4.890
REMARK  8 active torsions:
REMARK  status: ('A' for Active; 'I' for Inactive)
REMARK    1  A    between atoms: C2_2  and  N1_3 
REMARK    2  A    between atoms: N1_3  and  C3_4 
REMARK    3  A    between atoms: N1_3  and  C5_6 
REMARK    4  A    between atoms: C5_6  and  C6_7 
REMARK    5  A    between atoms: C6_7  and  N2_8 
REMARK    6  A    between atoms: N2_8  and  C7_9 
REMARK    7  A    between atoms: N3_12  and  C10_13 
REMARK    8  A    between atoms: C10_13  and  C11_14 
ROOT
HETATM    1  C7  UNL     1      22.341   4.814  52.128  1.00  0.00     0.025 C 
HETATM    2  C8  UNL     1      21.157   4.126  52.222  1.00  0.00     0.021 C 
HETATM    3  C9  UNL     1      20.804   2.726  52.715  1.00  0.00     0.148 C 
HETATM    4  N3  UNL     1      21.275   1.826  51.736  1.00  0.00    -0.392 N 
HETATM    5  C12 UNL     1      22.491   1.156  51.867  1.00  0.00     0.136 A 
HETATM    6  C13 UNL     1      22.297  -0.260  52.264  1.00  0.00     0.001 A 
HETATM    7  C14 UNL     1      23.085  -0.914  53.087  1.00  0.00     0.011 A 
HETATM    8  C15 UNL     1      24.242  -0.303  53.712  1.00  0.00     0.273 A 
HETATM    9  N4  UNL     1      25.530  -0.834  53.317  1.00  0.00     0.096 N 
HETATM   10  C16 UNL     1      26.406   0.052  54.072  1.00  0.00     0.275 C 
HETATM   11  C17 UNL     1      25.652   1.381  54.205  1.00  0.00     0.067 C 
HETATM   12  C18 UNL     1      24.464   1.144  53.370  1.00  0.00    -0.033 A 
HETATM   13  C19 UNL     1      23.614   1.777  52.553  1.00  0.00    -0.027 A 
HETATM   14  C20 UNL     1      24.170   3.139  52.655  1.00  0.00     0.012 C 
HETATM   15  C21 UNL     1      23.682   4.367  52.489  1.00  0.00     0.029 C 
HETATM   16  H26 UNL     1      25.678  -1.816  53.613  1.00  0.00     0.317 HD
ENDROOT
BRANCH   1  17
HETATM   17  N2  UNL     1      21.957   6.046  51.585  1.00  0.00    -0.389 N 
HETATM   18  H15 UNL     1      21.861   6.881  52.223  1.00  0.00     0.159 HD
BRANCH  17  19
HETATM   19  C6  UNL     1      21.667   6.329  50.233  1.00  0.00     0.139 C 
BRANCH  19  20
HETATM   20  C5  UNL     1      22.310   5.517  49.165  1.00  0.00     0.136 C 
BRANCH  20  21
HETATM   21  N1  UNL     1      23.677   5.714  48.974  1.00  0.00    -0.412 N 
BRANCH  21  22
HETATM   22  C2  UNL     1      24.343   6.909  49.161  1.00  0.00     0.112 C 
HETATM   23  C1  UNL     1      25.289   6.983  50.342  1.00  0.00     0.026 C 
ENDBRANCH  21  22
BRANCH  21  24
HETATM   24  C3  UNL     1      24.456   4.525  49.041  1.00  0.00     0.112 C 
HETATM   25  C4  UNL     1      23.610   3.293  48.957  1.00  0.00     0.026 C 
ENDBRANCH  21  24
ENDBRANCH  20  21
ENDBRANCH  19  20
ENDBRANCH  17  19
ENDBRANCH   1  17
BRANCH   4  26
HETATM   26  C10 UNL     1      20.214   0.985  51.279  1.00  0.00     0.187 C 
BRANCH  26  27
HETATM   27  C11 UNL     1      19.850   1.378  49.881  1.00  0.00     0.250 C 
HETATM   28  O1  UNL     1      18.977   2.070  49.387  1.00  0.00    -0.305 OA
ENDBRANCH  26  27
ENDBRANCH   4  26
TORSDOF 8
ENDMDL
