MODEL 1
REMARK VINA RESULT:      -8.4      0.000      0.000
REMARK  6 active torsions:
REMARK  status: ('A' for Active; 'I' for Inactive)
REMARK    1  A    between atoms: N1_1  and  C1_2 
REMARK    2  A    between atoms: N2_5  and  C4_6 
REMARK    3  A    between atoms: C4_6  and  C5_7 
REMARK    4  A    between atoms: C5_7  and  C6_8 
REMARK    5  A    between atoms: C9_15  and  N6_16 
REMARK    6  A    between atoms: N6_16  and  C10_17 
ROOT
HETATM    1  C5  UNL     1      21.908   0.513  52.025  1.00  0.00    -0.017 C 
HETATM    2  C7  UNL     1      22.340  -0.110  53.110  1.00  0.00     0.101 A 
HETATM    3  N3  UNL     1      21.466  -0.871  53.924  1.00  0.00    -0.273 N 
HETATM    4  N4  UNL     1      21.965  -1.525  55.035  1.00  0.00    -0.167 NA
HETATM    5  C8  UNL     1      23.188  -1.508  55.411  1.00  0.00     0.257 A 
HETATM    6  N5  UNL     1      24.104  -0.765  54.640  1.00  0.00    -0.220 NA
HETATM    7  C9  UNL     1      23.752  -0.100  53.566  1.00  0.00     0.158 A 
HETATM    8  H12 UNL     1      20.464  -1.048  53.842  1.00  0.00     0.189 HD
ENDROOT
BRANCH   1   9
HETATM    9  C4  UNL     1      22.385   1.366  50.918  1.00  0.00     0.154 C 
BRANCH   9  10
HETATM   10  N2  UNL     1      22.952   2.606  51.322  1.00  0.00    -0.408 N 
HETATM   11  C3  UNL     1      23.935   3.217  50.537  1.00  0.00     0.119 C 
HETATM   12  C2  UNL     1      23.995   4.700  50.494  1.00  0.00     0.055 C 
HETATM   13  C1  UNL     1      23.169   5.439  51.484  1.00  0.00     0.221 C 
HETATM   14  C17 UNL     1      21.806   4.735  51.545  1.00  0.00     0.055 C 
HETATM   15  C16 UNL     1      22.158   3.387  52.193  1.00  0.00     0.119 C 
BRANCH  13  16
HETATM   16  N1  UNL     1      23.731   5.303  52.805  1.00  0.00     0.083 N 
HETATM   17  H1  UNL     1      23.513   6.113  53.424  1.00  0.00     0.313 HD
HETATM   18  H2  UNL     1      23.450   4.371  53.222  1.00  0.00     0.313 HD
ENDBRANCH  13  16
ENDBRANCH   9  10
ENDBRANCH   1   9
BRANCH   1  19
HETATM   19  C6  UNL     1      20.467   0.431  51.695  1.00  0.00     0.152 C 
HETATM   20 CL1  UNL     1      20.215   0.950  49.989  1.00  0.00    -0.126 Cl
ENDBRANCH   1  19
BRANCH   7  21
HETATM   21  N6  UNL     1      24.746   0.663  52.877  1.00  0.00    -0.339 N 
HETATM   22  H14 UNL     1      24.225   1.439  52.389  1.00  0.00     0.167 HD
BRANCH  21  23
HETATM   23  C10 UNL     1      26.098   0.194  53.033  1.00  0.00     0.035 A 
HETATM   24  C11 UNL     1      26.469  -1.084  52.662  1.00  0.00     0.032 A 
HETATM   25  C12 UNL     1      27.781  -1.464  52.886  1.00  0.00     0.046 A 
HETATM   26  C13 UNL     1      28.631  -0.527  53.472  1.00  0.00     0.138 A 
HETATM   27  F1  UNL     1      29.925  -0.922  53.693  1.00  0.00    -0.204 F 
HETATM   28  C14 UNL     1      28.251   0.749  53.838  1.00  0.00     0.074 A 
HETATM   29 CL2  UNL     1      29.450   1.804  54.569  1.00  0.00    -0.081 Cl
HETATM   30  C15 UNL     1      26.947   1.134  53.617  1.00  0.00     0.056 A 
ENDBRANCH  21  23
ENDBRANCH   7  21
TORSDOF 6
ENDMDL
MODEL 2
REMARK VINA RESULT:      -8.0      3.369      6.058
REMARK  6 active torsions:
REMARK  status: ('A' for Active; 'I' for Inactive)
REMARK    1  A    between atoms: N1_1  and  C1_2 
REMARK    2  A    between atoms: N2_5  and  C4_6 
REMARK    3  A    between atoms: C4_6  and  C5_7 
REMARK    4  A    between atoms: C5_7  and  C6_8 
REMARK    5  A    between atoms: C9_15  and  N6_16 
REMARK    6  A    between atoms: N6_16  and  C10_17 
ROOT
HETATM    1  C5  UNL     1      22.937   1.013  51.900  1.00  0.00    -0.017 C 
HETATM    2  C7  UNL     1      22.659   1.536  50.716  1.00  0.00     0.101 A 
HETATM    3  N3  UNL     1      21.697   0.951  49.857  1.00  0.00    -0.273 N 
HETATM    4  N4  UNL     1      21.421   1.545  48.639  1.00  0.00    -0.167 NA
HETATM    5  C8  UNL     1      21.971   2.612  48.199  1.00  0.00     0.257 A 
HETATM    6  N5  UNL     1      22.939   3.237  49.011  1.00  0.00    -0.220 NA
HETATM    7  C9  UNL     1      23.289   2.770  50.185  1.00  0.00     0.158 A 
HETATM    8  H12 UNL     1      21.121   0.116  49.971  1.00  0.00     0.189 HD
ENDROOT
BRANCH   1   9
HETATM    9  C4  UNL     1      23.792   1.230  53.085  1.00  0.00     0.154 C 
BRANCH   9  10
HETATM   10  N2  UNL     1      25.019   0.512  53.075  1.00  0.00    -0.408 N 
HETATM   11  C3  UNL     1      26.073   0.934  52.259  1.00  0.00     0.119 C 
HETATM   12  C2  UNL     1      27.467   0.726  52.727  1.00  0.00     0.055 C 
HETATM   13  C1  UNL     1      27.658  -0.144  53.917  1.00  0.00     0.221 C 
HETATM   14  C17 UNL     1      26.564   0.232  54.927  1.00  0.00     0.055 C 
HETATM   15  C16 UNL     1      25.285  -0.258  54.231  1.00  0.00     0.119 C 
BRANCH  13  16
HETATM   16  N1  UNL     1      27.405  -1.522  53.574  1.00  0.00     0.083 N 
HETATM   17  H1  UNL     1      28.245  -2.129  53.690  1.00  0.00     0.313 HD
HETATM   18  H2  UNL     1      26.558  -1.876  54.101  1.00  0.00     0.313 HD
ENDBRANCH  13  16
ENDBRANCH   9  10
ENDBRANCH   1   9
BRANCH   1  19
HETATM   19  C6  UNL     1      22.244  -0.233  52.298  1.00  0.00     0.152 C 
HETATM   20 CL1  UNL     1      21.627  -0.061  53.981  1.00  0.00    -0.126 Cl
ENDBRANCH   1  19
BRANCH   7  21
HETATM   21  N6  UNL     1      24.314   3.450  50.914  1.00  0.00    -0.339 N 
HETATM   22  H14 UNL     1      24.113   3.264  51.933  1.00  0.00     0.167 HD
BRANCH  21  23
HETATM   23  C10 UNL     1      25.279   4.151  50.108  1.00  0.00     0.035 A 
HETATM   24  C11 UNL     1      26.395   3.516  49.598  1.00  0.00     0.032 A 
HETATM   25  C12 UNL     1      27.291   4.278  48.868  1.00  0.00     0.046 A 
HETATM   26  C13 UNL     1      26.999   5.631  48.702  1.00  0.00     0.138 A 
HETATM   27  F1  UNL     1      27.900   6.372  47.983  1.00  0.00    -0.204 F 
HETATM   28  C14 UNL     1      25.880   6.256  49.215  1.00  0.00     0.074 A 
HETATM   29 CL2  UNL     1      25.667   7.974  48.915  1.00  0.00    -0.081 Cl
HETATM   30  C15 UNL     1      24.983   5.504  49.942  1.00  0.00     0.056 A 
ENDBRANCH  21  23
ENDBRANCH   7  21
TORSDOF 6
ENDMDL
MODEL 3
REMARK VINA RESULT:      -8.0      1.802      2.417
REMARK  6 active torsions:
REMARK  status: ('A' for Active; 'I' for Inactive)
REMARK    1  A    between atoms: N1_1  and  C1_2 
REMARK    2  A    between atoms: N2_5  and  C4_6 
REMARK    3  A    between atoms: C4_6  and  C5_7 
REMARK    4  A    between atoms: C5_7  and  C6_8 
REMARK    5  A    between atoms: C9_15  and  N6_16 
REMARK    6  A    between atoms: N6_16  and  C10_17 
ROOT
HETATM    1  C5  UNL     1      23.210   2.125  50.437  1.00  0.00    -0.017 C 
HETATM    2  C7  UNL     1      23.167   1.330  51.494  1.00  0.00     0.101 A 
HETATM    3  N3  UNL     1      21.996   0.608  51.830  1.00  0.00    -0.273 N 
HETATM    4  N4  UNL     1      22.004  -0.230  52.930  1.00  0.00    -0.167 NA
HETATM    5  C8  UNL     1      23.006  -0.423  53.701  1.00  0.00     0.257 A 
HETATM    6  N5  UNL     1      24.199   0.272  53.416  1.00  0.00    -0.220 NA
HETATM    7  C9  UNL     1      24.317   1.096  52.403  1.00  0.00     0.158 A 
HETATM    8  H12 UNL     1      21.079   0.580  51.383  1.00  0.00     0.189 HD
ENDROOT
BRANCH   1   9
HETATM    9  C4  UNL     1      24.125   3.026  49.707  1.00  0.00     0.154 C 
BRANCH   9  10
HETATM   10  N2  UNL     1      24.424   4.244  50.378  1.00  0.00    -0.408 N 
HETATM   11  C3  UNL     1      25.530   5.007  49.989  1.00  0.00     0.119 C 
HETATM   12  C2  UNL     1      25.455   6.485  50.104  1.00  0.00     0.055 C 
HETATM   13  C1  UNL     1      24.305   7.047  50.861  1.00  0.00     0.221 C 
HETATM   14  C17 UNL     1      23.061   6.252  50.439  1.00  0.00     0.055 C 
HETATM   15  C16 UNL     1      23.336   4.863  51.035  1.00  0.00     0.119 C 
BRANCH  13  16
HETATM   16  N1  UNL     1      24.463   6.792  52.272  1.00  0.00     0.083 N 
HETATM   17  H1  UNL     1      24.820   5.833  52.473  1.00  0.00     0.313 HD
HETATM   18  H2  UNL     1      25.049   7.556  52.712  1.00  0.00     0.313 HD
ENDBRANCH  13  16
ENDBRANCH   9  10
ENDBRANCH   1   9
BRANCH   1  19
HETATM   19  C6  UNL     1      21.983   2.279  49.623  1.00  0.00     0.152 C 
HETATM   20 CL1  UNL     1      22.365   1.941  47.897  1.00  0.00    -0.126 Cl
ENDBRANCH   1  19
BRANCH   7  21
HETATM   21  N6  UNL     1      25.554   1.789  52.225  1.00  0.00    -0.339 N 
HETATM   22  H14 UNL     1      25.320   2.656  51.671  1.00  0.00     0.167 HD
BRANCH  21  23
HETATM   23  C10 UNL     1      26.703   1.156  52.816  1.00  0.00     0.035 A 
HETATM   24  C11 UNL     1      27.631   1.874  53.545  1.00  0.00     0.032 A 
HETATM   25  C12 UNL     1      28.727   1.191  54.043  1.00  0.00     0.046 A 
HETATM   26  C13 UNL     1      28.813  -0.173  53.769  1.00  0.00     0.138 A 
HETATM   27  F1  UNL     1      29.908  -0.833  54.263  1.00  0.00    -0.204 F 
HETATM   28  C14 UNL     1      27.879  -0.883  53.041  1.00  0.00     0.074 A 
HETATM   29 CL2  UNL     1      28.143  -2.601  52.785  1.00  0.00    -0.081 Cl
HETATM   30  C15 UNL     1      26.785  -0.209  52.543  1.00  0.00     0.056 A 
ENDBRANCH  21  23
ENDBRANCH   7  21
TORSDOF 6
ENDMDL
MODEL 4
REMARK VINA RESULT:      -7.6      2.175      2.932
REMARK  6 active torsions:
REMARK  status: ('A' for Active; 'I' for Inactive)
REMARK    1  A    between atoms: N1_1  and  C1_2 
REMARK    2  A    between atoms: N2_5  and  C4_6 
REMARK    3  A    between atoms: C4_6  and  C5_7 
REMARK    4  A    between atoms: C5_7  and  C6_8 
REMARK    5  A    between atoms: C9_15  and  N6_16 
REMARK    6  A    between atoms: N6_16  and  C10_17 
ROOT
HETATM    1  C5  UNL     1      22.539   2.342  52.174  1.00  0.00    -0.017 C 
HETATM    2  C7  UNL     1      22.588   1.261  52.936  1.00  0.00     0.101 A 
HETATM    3  N3  UNL     1      21.560   0.963  53.864  1.00  0.00    -0.273 N 
HETATM    4  N4  UNL     1      21.641  -0.191  54.622  1.00  0.00    -0.167 NA
HETATM    5  C8  UNL     1      22.590  -1.047  54.562  1.00  0.00     0.257 A 
HETATM    6  N5  UNL     1      23.641  -0.801  53.656  1.00  0.00    -0.220 NA
HETATM    7  C9  UNL     1      23.681   0.259  52.884  1.00  0.00     0.158 A 
HETATM    8  H12 UNL     1      20.705   1.469  54.098  1.00  0.00     0.189 HD
ENDROOT
BRANCH   1   9
HETATM    9  C4  UNL     1      23.299   3.049  51.123  1.00  0.00     0.154 C 
BRANCH   9  10
HETATM   10  N2  UNL     1      22.836   2.823  49.798  1.00  0.00    -0.408 N 
HETATM   11  C3  UNL     1      22.201   1.621  49.471  1.00  0.00     0.119 C 
HETATM   12  C2  UNL     1      21.129   1.635  48.443  1.00  0.00     0.055 C 
HETATM   13  C1  UNL     1      20.972   2.880  47.647  1.00  0.00     0.221 C 
HETATM   14  C17 UNL     1      21.105   4.057  48.624  1.00  0.00     0.055 C 
HETATM   15  C16 UNL     1      22.584   3.985  49.032  1.00  0.00     0.119 C 
BRANCH  13  16
HETATM   16  N1  UNL     1      22.071   3.024  46.723  1.00  0.00     0.083 N 
HETATM   17  H1  UNL     1      21.829   3.607  45.893  1.00  0.00     0.313 HD
HETATM   18  H2  UNL     1      22.932   3.364  47.236  1.00  0.00     0.313 HD
ENDBRANCH  13  16
ENDBRANCH   9  10
ENDBRANCH   1   9
BRANCH   1  19
HETATM   19  C6  UNL     1      21.395   3.268  52.340  1.00  0.00     0.152 C 
HETATM   20 CL1  UNL     1      22.003   4.960  52.421  1.00  0.00    -0.126 Cl
ENDBRANCH   1  19
BRANCH   7  21
HETATM   21  N6  UNL     1      24.814   0.443  52.032  1.00  0.00    -0.339 N 
HETATM   22  H14 UNL     1      24.454   0.326  51.047  1.00  0.00     0.167 HD
BRANCH  21  23
HETATM   23  C10 UNL     1      26.052   0.724  52.709  1.00  0.00     0.035 A 
HETATM   24  C11 UNL     1      26.305   1.958  53.277  1.00  0.00     0.032 A 
HETATM   25  C12 UNL     1      27.539   2.152  53.872  1.00  0.00     0.046 A 
HETATM   26  C13 UNL     1      28.437   1.087  53.854  1.00  0.00     0.138 A 
HETATM   27  F1  UNL     1      29.657   1.298  54.442  1.00  0.00    -0.204 F 
HETATM   28  C14 UNL     1      28.175  -0.145  53.286  1.00  0.00     0.074 A 
HETATM   29 CL2  UNL     1      29.422  -1.380  53.349  1.00  0.00    -0.081 Cl
HETATM   30  C15 UNL     1      26.948  -0.345  52.693  1.00  0.00     0.056 A 
ENDBRANCH  21  23
ENDBRANCH   7  21
TORSDOF 6
ENDMDL
MODEL 5
REMARK VINA RESULT:      -7.6      1.619      2.098
REMARK  6 active torsions:
REMARK  status: ('A' for Active; 'I' for Inactive)
REMARK    1  A    between atoms: N1_1  and  C1_2 
REMARK    2  A    between atoms: N2_5  and  C4_6 
REMARK    3  A    between atoms: C4_6  and  C5_7 
REMARK    4  A    between atoms: C5_7  and  C6_8 
REMARK    5  A    between atoms: C9_15  and  N6_16 
REMARK    6  A    between atoms: N6_16  and  C10_17 
ROOT
HETATM    1  C5  UNL     1      22.870   2.168  50.317  1.00  0.00    -0.017 C 
HETATM    2  C7  UNL     1      22.645   1.387  51.362  1.00  0.00     0.101 A 
HETATM    3  N3  UNL     1      21.479   0.588  51.450  1.00  0.00    -0.273 N 
HETATM    4  N4  UNL     1      21.297  -0.231  52.549  1.00  0.00    -0.167 NA
HETATM    5  C8  UNL     1      22.111  -0.341  53.529  1.00  0.00     0.257 A 
HETATM    6  N5  UNL     1      23.289   0.433  53.496  1.00  0.00    -0.220 NA
HETATM    7  C9  UNL     1      23.574   1.250  52.510  1.00  0.00     0.158 A 
HETATM    8  H12 UNL     1      20.689   0.487  50.811  1.00  0.00     0.189 HD
ENDROOT
BRANCH   1   9
HETATM    9  C4  UNL     1      23.863   3.122  49.782  1.00  0.00     0.154 C 
BRANCH   9  10
HETATM   10  N2  UNL     1      23.561   4.491  50.016  1.00  0.00    -0.408 N 
HETATM   11  C3  UNL     1      23.048   5.284  48.985  1.00  0.00     0.119 C 
HETATM   12  C2  UNL     1      22.094   6.370  49.326  1.00  0.00     0.055 C 
HETATM   13  C1  UNL     1      21.941   6.709  50.765  1.00  0.00     0.221 C 
HETATM   14  C17 UNL     1      21.888   5.381  51.534  1.00  0.00     0.055 C 
HETATM   15  C16 UNL     1      23.316   4.841  51.364  1.00  0.00     0.119 C 
BRANCH  13  16
HETATM   16  N1  UNL     1      23.120   7.385  51.247  1.00  0.00     0.083 N 
HETATM   17  H1  UNL     1      23.250   7.290  52.277  1.00  0.00     0.313 HD
HETATM   18  H2  UNL     1      23.966   7.076  50.690  1.00  0.00     0.313 HD
ENDBRANCH  13  16
ENDBRANCH   9  10
ENDBRANCH   1   9
BRANCH   1  19
HETATM   19  C6  UNL     1      21.849   2.221  49.246  1.00  0.00     0.152 C 
HETATM   20 CL1  UNL     1      22.635   1.921  47.655  1.00  0.00    -0.126 Cl
ENDBRANCH   1  19
BRANCH   7  21
HETATM   21  N6  UNL     1      24.771   2.027  52.590  1.00  0.00    -0.339 N 
HETATM   22  H14 UNL     1      24.467   3.033  52.497  1.00  0.00     0.167 HD
BRANCH  21  23
HETATM   23  C10 UNL     1      25.983   1.272  52.770  1.00  0.00     0.035 A 
HETATM   24  C11 UNL     1      26.101  -0.028  52.318  1.00  0.00     0.032 A 
HETATM   25  C12 UNL     1      27.289  -0.692  52.570  1.00  0.00     0.046 A 
HETATM   26  C13 UNL     1      28.279   0.002  53.263  1.00  0.00     0.138 A 
HETATM   27  F1  UNL     1      29.447  -0.672  53.511  1.00  0.00    -0.204 F 
HETATM   28  C14 UNL     1      28.153   1.303  53.710  1.00  0.00     0.074 A 
HETATM   29 CL2  UNL     1      29.500   2.028  54.572  1.00  0.00    -0.081 Cl
HETATM   30  C15 UNL     1      26.974   1.970  53.461  1.00  0.00     0.056 A 
ENDBRANCH  21  23
ENDBRANCH   7  21
TORSDOF 6
ENDMDL
MODEL 6
REMARK VINA RESULT:      -7.5      3.334      6.197
REMARK  6 active torsions:
REMARK  status: ('A' for Active; 'I' for Inactive)
REMARK    1  A    between atoms: N1_1  and  C1_2 
REMARK    2  A    between atoms: N2_5  and  C4_6 
REMARK    3  A    between atoms: C4_6  and  C5_7 
REMARK    4  A    between atoms: C5_7  and  C6_8 
REMARK    5  A    between atoms: C9_15  and  N6_16 
REMARK    6  A    between atoms: N6_16  and  C10_17 
ROOT
HETATM    1  C5  UNL     1      24.349   2.940  50.783  1.00  0.00    -0.017 C 
HETATM    2  C7  UNL     1      23.273   2.658  50.066  1.00  0.00     0.101 A 
HETATM    3  N3  UNL     1      23.322   2.596  48.652  1.00  0.00    -0.273 N 
HETATM    4  N4  UNL     1      22.178   2.274  47.944  1.00  0.00    -0.167 NA
HETATM    5  C8  UNL     1      21.039   2.016  48.464  1.00  0.00     0.257 A 
HETATM    6  N5  UNL     1      20.931   2.064  49.869  1.00  0.00    -0.220 NA
HETATM    7  C9  UNL     1      21.942   2.360  50.650  1.00  0.00     0.158 A 
HETATM    8  H12 UNL     1      24.095   2.751  48.003  1.00  0.00     0.189 HD
ENDROOT
BRANCH   1   9
HETATM    9  C4  UNL     1      24.792   3.108  52.182  1.00  0.00     0.154 C 
BRANCH   9  10
HETATM   10  N2  UNL     1      25.364   1.946  52.770  1.00  0.00    -0.408 N 
HETATM   11  C3  UNL     1      25.457   0.760  52.035  1.00  0.00     0.119 C 
HETATM   12  C2  UNL     1      26.608  -0.145  52.283  1.00  0.00     0.055 C 
HETATM   13  C1  UNL     1      27.450   0.143  53.474  1.00  0.00     0.221 C 
HETATM   14  C17 UNL     1      27.655   1.663  53.520  1.00  0.00     0.055 C 
HETATM   15  C16 UNL     1      26.246   2.179  53.850  1.00  0.00     0.119 C 
BRANCH  13  16
HETATM   16  N1  UNL     1      26.735  -0.185  54.683  1.00  0.00     0.083 N 
HETATM   17  H1  UNL     1      27.217   0.151  55.543  1.00  0.00     0.313 HD
HETATM   18  H2  UNL     1      25.732   0.146  54.610  1.00  0.00     0.313 HD
ENDBRANCH  13  16
ENDBRANCH   9  10
ENDBRANCH   1   9
BRANCH   1  19
HETATM   19  C6  UNL     1      25.613   3.233  50.069  1.00  0.00     0.152 C 
HETATM   20 CL1  UNL     1      25.724   5.002  49.753  1.00  0.00    -0.126 Cl
ENDBRANCH   1  19
BRANCH   7  21
HETATM   21  N6  UNL     1      21.720   2.429  52.060  1.00  0.00    -0.339 N 
HETATM   22  H14 UNL     1      21.941   3.424  52.337  1.00  0.00     0.167 HD
BRANCH  21  23
HETATM   23  C10 UNL     1      21.282   1.204  52.674  1.00  0.00     0.035 A 
HETATM   24  C11 UNL     1      20.015   0.697  52.458  1.00  0.00     0.032 A 
HETATM   25  C12 UNL     1      19.665  -0.466  53.121  1.00  0.00     0.046 A 
HETATM   26  C13 UNL     1      20.619  -1.040  53.961  1.00  0.00     0.138 A 
HETATM   27  F1  UNL     1      20.253  -2.187  54.616  1.00  0.00    -0.204 F 
HETATM   28  C14 UNL     1      21.884  -0.527  54.170  1.00  0.00     0.074 A 
HETATM   29 CL2  UNL     1      22.963  -1.375  55.266  1.00  0.00    -0.081 Cl
HETATM   30  C15 UNL     1      22.239   0.630  53.511  1.00  0.00     0.056 A 
ENDBRANCH  21  23
ENDBRANCH   7  21
TORSDOF 6
ENDMDL
MODEL 7
REMARK VINA RESULT:      -7.3      3.344      5.503
REMARK  6 active torsions:
REMARK  status: ('A' for Active; 'I' for Inactive)
REMARK    1  A    between atoms: N1_1  and  C1_2 
REMARK    2  A    between atoms: N2_5  and  C4_6 
REMARK    3  A    between atoms: C4_6  and  C5_7 
REMARK    4  A    between atoms: C5_7  and  C6_8 
REMARK    5  A    between atoms: C9_15  and  N6_16 
REMARK    6  A    between atoms: N6_16  and  C10_17 
ROOT
HETATM    1  C5  UNL     1      23.259   0.474  53.163  1.00  0.00    -0.017 C 
HETATM    2  C7  UNL     1      24.572   0.594  53.044  1.00  0.00     0.101 A 
HETATM    3  N3  UNL     1      25.414  -0.542  52.960  1.00  0.00    -0.273 N 
HETATM    4  N4  UNL     1      26.778  -0.370  52.810  1.00  0.00    -0.167 NA
HETATM    5  C8  UNL     1      27.374   0.759  52.737  1.00  0.00     0.257 A 
HETATM    6  N5  UNL     1      26.586   1.925  52.817  1.00  0.00    -0.220 NA
HETATM    7  C9  UNL     1      25.283   1.894  52.961  1.00  0.00     0.158 A 
HETATM    8  H12 UNL     1      25.194  -1.539  52.986  1.00  0.00     0.189 HD
ENDROOT
BRANCH   1   9
HETATM    9  C4  UNL     1      22.032   1.288  53.276  1.00  0.00     0.154 C 
BRANCH   9  10
HETATM   10  N2  UNL     1      21.130   1.162  52.184  1.00  0.00    -0.408 N 
HETATM   11  C3  UNL     1      19.765   0.971  52.419  1.00  0.00     0.119 C 
HETATM   12  C2  UNL     1      18.788   1.547  51.461  1.00  0.00     0.055 C 
HETATM   13  C1  UNL     1      19.326   2.073  50.179  1.00  0.00     0.221 C 
HETATM   14  C17 UNL     1      20.608   2.847  50.516  1.00  0.00     0.055 C 
HETATM   15  C16 UNL     1      21.564   1.731  50.964  1.00  0.00     0.119 C 
BRANCH  13  16
HETATM   16  N1  UNL     1      19.747   0.984  49.332  1.00  0.00     0.083 N 
HETATM   17  H1  UNL     1      20.502   0.406  49.759  1.00  0.00     0.313 HD
HETATM   18  H2  UNL     1      18.907   0.417  49.029  1.00  0.00     0.313 HD
ENDBRANCH  13  16
ENDBRANCH   9  10
ENDBRANCH   1   9
BRANCH   1  19
HETATM   19  C6  UNL     1      22.683  -0.887  53.250  1.00  0.00     0.152 C 
HETATM   20 CL1  UNL     1      22.298  -1.264  54.967  1.00  0.00    -0.126 Cl
ENDBRANCH   1  19
BRANCH   7  21
HETATM   21  N6  UNL     1      24.577   3.131  53.079  1.00  0.00    -0.339 N 
HETATM   22  H14 UNL     1      24.447   3.290  54.114  1.00  0.00     0.167 HD
BRANCH  21  23
HETATM   23  C10 UNL     1      24.263   3.781  51.834  1.00  0.00     0.035 A 
HETATM   24  C11 UNL     1      24.799   3.349  50.636  1.00  0.00     0.032 A 
HETATM   25  C12 UNL     1      24.475   4.058  49.492  1.00  0.00     0.046 A 
HETATM   26  C13 UNL     1      23.630   5.158  49.635  1.00  0.00     0.138 A 
HETATM   27  F1  UNL     1      23.325   5.853  48.495  1.00  0.00    -0.204 F 
HETATM   28  C14 UNL     1      23.098   5.581  50.837  1.00  0.00     0.074 A 
HETATM   29 CL2  UNL     1      22.052   6.992  50.841  1.00  0.00    -0.081 Cl
HETATM   30  C15 UNL     1      23.416   4.879  51.979  1.00  0.00     0.056 A 
ENDBRANCH  21  23
ENDBRANCH   7  21
TORSDOF 6
ENDMDL
MODEL 8
REMARK VINA RESULT:      -7.3      3.378      6.326
REMARK  6 active torsions:
REMARK  status: ('A' for Active; 'I' for Inactive)
REMARK    1  A    between atoms: N1_1  and  C1_2 
REMARK    2  A    between atoms: N2_5  and  C4_6 
REMARK    3  A    between atoms: C4_6  and  C5_7 
REMARK    4  A    between atoms: C5_7  and  C6_8 
REMARK    5  A    between atoms: C9_15  and  N6_16 
REMARK    6  A    between atoms: N6_16  and  C10_17 
ROOT
HETATM    1  C5  UNL     1      24.173   0.677  52.638  1.00  0.00    -0.017 C 
HETATM    2  C7  UNL     1      23.196   0.001  53.223  1.00  0.00     0.101 A 
HETATM    3  N3  UNL     1      23.390  -0.653  54.464  1.00  0.00    -0.273 N 
HETATM    4  N4  UNL     1      22.335  -1.327  55.051  1.00  0.00    -0.167 NA
HETATM    5  C8  UNL     1      21.156  -1.418  54.562  1.00  0.00     0.257 A 
HETATM    6  N5  UNL     1      20.905  -0.786  53.327  1.00  0.00    -0.220 NA
HETATM    7  C9  UNL     1      21.824  -0.119  52.671  1.00  0.00     0.158 A 
HETATM    8  H12 UNL     1      24.218  -0.728  55.057  1.00  0.00     0.189 HD
ENDROOT
BRANCH   1   9
HETATM    9  C4  UNL     1      24.458   1.482  51.433  1.00  0.00     0.154 C 
BRANCH   9  10
HETATM   10  N2  UNL     1      24.500   2.886  51.650  1.00  0.00    -0.408 N 
HETATM   11  C3  UNL     1      25.295   3.699  50.835  1.00  0.00     0.119 C 
HETATM   12  C2  UNL     1      24.835   5.079  50.537  1.00  0.00     0.055 C 
HETATM   13  C1  UNL     1      23.687   5.595  51.328  1.00  0.00     0.221 C 
HETATM   14  C17 UNL     1      22.662   4.456  51.425  1.00  0.00     0.055 C 
HETATM   15  C16 UNL     1      23.382   3.435  52.319  1.00  0.00     0.119 C 
BRANCH  13  16
HETATM   16  N1  UNL     1      24.095   5.860  52.686  1.00  0.00     0.083 N 
HETATM   17  H1  UNL     1      23.375   6.379  53.232  1.00  0.00     0.313 HD
HETATM   18  H2  UNL     1      24.404   4.961  53.152  1.00  0.00     0.313 HD
ENDBRANCH  13  16
ENDBRANCH   9  10
ENDBRANCH   1   9
BRANCH   1  19
HETATM   19  C6  UNL     1      25.500   0.702  53.293  1.00  0.00     0.152 C 
HETATM   20 CL1  UNL     1      26.724  -0.023  52.190  1.00  0.00    -0.126 Cl
ENDBRANCH   1  19
BRANCH   7  21
HETATM   21  N6  UNL     1      21.485   0.447  51.403  1.00  0.00    -0.339 N 
HETATM   22  H14 UNL     1      22.327   0.293  50.786  1.00  0.00     0.167 HD
BRANCH  21  23
HETATM   23  C10 UNL     1      20.171   1.028  51.322  1.00  0.00     0.035 A 
HETATM   24  C11 UNL     1      19.887   2.259  51.882  1.00  0.00     0.032 A 
HETATM   25  C12 UNL     1      18.586   2.723  51.791  1.00  0.00     0.046 A 
HETATM   26  C13 UNL     1      17.658   1.912  51.141  1.00  0.00     0.138 A 
HETATM   27  F1  UNL     1      16.373   2.383  51.066  1.00  0.00    -0.204 F 
HETATM   28  C14 UNL     1      17.952   0.684  50.582  1.00  0.00     0.074 A 
HETATM   29 CL2  UNL     1      16.659  -0.213  49.800  1.00  0.00    -0.081 Cl
HETATM   30  C15 UNL     1      19.245   0.216  50.667  1.00  0.00     0.056 A 
ENDBRANCH  21  23
ENDBRANCH   7  21
TORSDOF 6
ENDMDL
MODEL 9
REMARK VINA RESULT:      -7.3      2.810      4.445
REMARK  6 active torsions:
REMARK  status: ('A' for Active; 'I' for Inactive)
REMARK    1  A    between atoms: N1_1  and  C1_2 
REMARK    2  A    between atoms: N2_5  and  C4_6 
REMARK    3  A    between atoms: C4_6  and  C5_7 
REMARK    4  A    between atoms: C5_7  and  C6_8 
REMARK    5  A    between atoms: C9_15  and  N6_16 
REMARK    6  A    between atoms: N6_16  and  C10_17 
ROOT
HETATM    1  C5  UNL     1      23.303   3.433  49.490  1.00  0.00    -0.017 C 
HETATM    2  C7  UNL     1      22.253   3.584  50.282  1.00  0.00     0.101 A 
HETATM    3  N3  UNL     1      20.943   3.702  49.758  1.00  0.00    -0.273 N 
HETATM    4  N4  UNL     1      19.872   3.835  50.623  1.00  0.00    -0.167 NA
HETATM    5  C8  UNL     1      19.956   3.861  51.899  1.00  0.00     0.257 A 
HETATM    6  N5  UNL     1      21.237   3.750  52.477  1.00  0.00    -0.220 NA
HETATM    7  C9  UNL     1      22.330   3.622  51.763  1.00  0.00     0.158 A 
HETATM    8  H12 UNL     1      20.607   3.704  48.794  1.00  0.00     0.189 HD
ENDROOT
BRANCH   1   9
HETATM    9  C4  UNL     1      24.770   3.270  49.538  1.00  0.00     0.154 C 
BRANCH   9  10
HETATM   10  N2  UNL     1      25.503   4.486  49.617  1.00  0.00    -0.408 N 
HETATM   11  C3  UNL     1      26.815   4.548  49.134  1.00  0.00     0.119 C 
HETATM   12  C2  UNL     1      27.298   5.820  48.541  1.00  0.00     0.055 C 
HETATM   13  C1  UNL     1      26.442   7.021  48.726  1.00  0.00     0.221 C 
HETATM   14  C17 UNL     1      24.991   6.577  48.494  1.00  0.00     0.055 C 
HETATM   15  C16 UNL     1      24.725   5.664  49.701  1.00  0.00     0.119 C 
BRANCH  13  16
HETATM   16  N1  UNL     1      26.493   7.464  50.098  1.00  0.00     0.083 N 
HETATM   17  H1  UNL     1      26.738   8.473  50.189  1.00  0.00     0.313 HD
HETATM   18  H2  UNL     1      25.594   7.205  50.594  1.00  0.00     0.313 HD
ENDBRANCH  13  16
ENDBRANCH   9  10
ENDBRANCH   1   9
BRANCH   1  19
HETATM   19  C6  UNL     1      23.084   3.428  48.026  1.00  0.00     0.152 C 
HETATM   20 CL1  UNL     1      22.602   1.775  47.500  1.00  0.00    -0.126 Cl
ENDBRANCH   1  19
BRANCH   7  21
HETATM   21  N6  UNL     1      23.587   3.564  52.441  1.00  0.00    -0.339 N 
HETATM   22  H14 UNL     1      23.935   4.559  52.486  1.00  0.00     0.167 HD
BRANCH  21  23
HETATM   23  C10 UNL     1      24.003   2.249  52.852  1.00  0.00     0.035 A 
HETATM   24  C11 UNL     1      23.140   1.171  52.815  1.00  0.00     0.032 A 
HETATM   25  C12 UNL     1      23.613  -0.048  53.268  1.00  0.00     0.046 A 
HETATM   26  C13 UNL     1      24.927  -0.098  53.728  1.00  0.00     0.138 A 
HETATM   27  F1  UNL     1      25.378  -1.311  54.179  1.00  0.00    -0.204 F 
HETATM   28  C14 UNL     1      25.784   0.985  53.759  1.00  0.00     0.074 A 
HETATM   29 CL2  UNL     1      27.412   0.750  54.375  1.00  0.00    -0.081 Cl
HETATM   30  C15 UNL     1      25.320   2.202  53.309  1.00  0.00     0.056 A 
ENDBRANCH  21  23
ENDBRANCH   7  21
TORSDOF 6
ENDMDL
