MODEL 1
REMARK VINA RESULT:      -6.5      0.000      0.000
REMARK  8 active torsions:
REMARK  status: ('A' for Active; 'I' for Inactive)
REMARK    1  A    between atoms: C2_2  and  C3_3 
REMARK       I    between atoms: C3_3  and  N1_5 
REMARK    2  A    between atoms: N1_5  and  C4_6 
REMARK    3  A    between atoms: C4_6  and  C5_7 
REMARK    4  A    between atoms: C4_6  and  C14_18 
REMARK    5  A    between atoms: C6_8  and  C7_9 
REMARK    6  A    between atoms: C7_9  and  N2_10 
REMARK    7  A    between atoms: N2_10  and  C8_11 
REMARK    8  A    between atoms: C14_18  and  C15_19 
ROOT
HETATM    1  C5  UNL     1      26.184   1.902  51.197  1.00  0.00     0.027 C 
HETATM    2  C6  UNL     1      25.246   2.741  51.520  1.00  0.00    -0.005 C 
ENDROOT
BRANCH   1   3
HETATM    3  C4  UNL     1      26.251   0.822  52.170  1.00  0.00     0.031 C 
BRANCH   3   4
HETATM    4  N1  UNL     1      27.397   0.087  52.676  1.00  0.00    -0.327 N 
HETATM    5  C3  UNL     1      28.127   0.824  53.659  1.00  0.00     0.221 C 
HETATM    6  O1  UNL     1      28.345   1.824  54.376  1.00  0.00    -0.273 OA
HETATM    7  H6  UNL     1      27.784  -0.851  52.458  1.00  0.00     0.169 HD
BRANCH   5   8
HETATM    8  C2  UNL     1      29.334   0.180  54.267  1.00  0.00     0.098 C 
HETATM    9  C1  UNL     1      29.759  -1.059  53.553  1.00  0.00     0.014 C 
ENDBRANCH   5   8
ENDBRANCH   3   4
BRANCH   3  10
HETATM   10  C14 UNL     1      25.367   0.136  52.928  1.00  0.00     0.013 C 
BRANCH  10  11
HETATM   11  C15 UNL     1      24.421  -0.534  53.761  1.00  0.00     0.114 C 
HETATM   12 BR2  UNL     1      22.630   0.127  53.288  1.00  0.00    -0.092 Br
ENDBRANCH  10  11
ENDBRANCH   3  10
ENDBRANCH   1   3
BRANCH   2  13
HETATM   13  C7  UNL     1      24.953   3.939  50.703  1.00  0.00     0.147 C 
BRANCH  13  14
HETATM   14  N2  UNL     1      25.559   3.841  49.413  1.00  0.00    -0.386 N 
HETATM   15  H11 UNL     1      25.467   3.007  48.796  1.00  0.00     0.160 HD
BRANCH  14  16
HETATM   16  C8  UNL     1      26.327   4.966  48.975  1.00  0.00     0.029 A 
HETATM   17  C9  UNL     1      25.698   6.170  48.769  1.00  0.00     0.029 A 
HETATM   18  C10 UNL     1      26.466   7.248  48.304  1.00  0.00     0.004 A 
HETATM   19  C11 UNL     1      27.829   7.137  48.049  1.00  0.00     0.019 A 
HETATM   20  C12 UNL     1      28.357   5.895  48.288  1.00  0.00     0.013 A 
HETATM   21 BR1  UNL     1      30.226   5.652  47.963  1.00  0.00    -0.051 Br
HETATM   22  C13 UNL     1      27.681   4.776  48.744  1.00  0.00     0.048 A 
ENDBRANCH  14  16
ENDBRANCH  13  14
ENDBRANCH   2  13
TORSDOF 8
ENDMDL
MODEL 2
REMARK VINA RESULT:      -6.5      1.807      2.291
REMARK  8 active torsions:
REMARK  status: ('A' for Active; 'I' for Inactive)
REMARK    1  A    between atoms: C2_2  and  C3_3 
REMARK       I    between atoms: C3_3  and  N1_5 
REMARK    2  A    between atoms: N1_5  and  C4_6 
REMARK    3  A    between atoms: C4_6  and  C5_7 
REMARK    4  A    between atoms: C4_6  and  C14_18 
REMARK    5  A    between atoms: C6_8  and  C7_9 
REMARK    6  A    between atoms: C7_9  and  N2_10 
REMARK    7  A    between atoms: N2_10  and  C8_11 
REMARK    8  A    between atoms: C14_18  and  C15_19 
ROOT
HETATM    1  C5  UNL     1      24.657   1.093  52.067  1.00  0.00     0.027 C 
HETATM    2  C6  UNL     1      24.184   2.214  52.521  1.00  0.00    -0.005 C 
ENDROOT
BRANCH   1   3
HETATM    3  C4  UNL     1      24.860   0.153  53.159  1.00  0.00     0.031 C 
BRANCH   3   4
HETATM    4  N1  UNL     1      26.084  -0.438  53.671  1.00  0.00    -0.327 N 
HETATM    5  C3  UNL     1      26.979   0.538  54.207  1.00  0.00     0.221 C 
HETATM    6  O1  UNL     1      27.320   1.705  54.499  1.00  0.00    -0.273 OA
HETATM    7  H6  UNL     1      26.429  -1.416  53.714  1.00  0.00     0.169 HD
BRANCH   5   8
HETATM    8  C2  UNL     1      28.280   0.063  54.772  1.00  0.00     0.098 C 
HETATM    9  C1  UNL     1      29.336  -0.124  53.735  1.00  0.00     0.014 C 
ENDBRANCH   5   8
ENDBRANCH   3   4
BRANCH   3  10
HETATM   10  C14 UNL     1      24.074  -0.486  54.055  1.00  0.00     0.013 C 
BRANCH  10  11
HETATM   11  C15 UNL     1      23.288  -1.143  55.048  1.00  0.00     0.114 C 
HETATM   12 BR2  UNL     1      21.496  -1.441  54.295  1.00  0.00    -0.092 Br
ENDBRANCH  10  11
ENDBRANCH   3  10
ENDBRANCH   1   3
BRANCH   2  13
HETATM   13  C7  UNL     1      23.879   3.353  51.628  1.00  0.00     0.147 C 
BRANCH  13  14
HETATM   14  N2  UNL     1      24.264   3.068  50.282  1.00  0.00    -0.386 N 
HETATM   15  H11 UNL     1      23.910   2.249  49.744  1.00  0.00     0.160 HD
BRANCH  14  16
HETATM   16  C8  UNL     1      25.186   3.974  49.669  1.00  0.00     0.029 A 
HETATM   17  C9  UNL     1      26.496   3.591  49.505  1.00  0.00     0.029 A 
HETATM   18  C10 UNL     1      27.388   4.513  48.935  1.00  0.00     0.004 A 
HETATM   19  C11 UNL     1      26.992   5.785  48.536  1.00  0.00     0.019 A 
HETATM   20  C12 UNL     1      25.667   6.064  48.743  1.00  0.00     0.013 A 
HETATM   21 BR1  UNL     1      25.035   7.793  48.224  1.00  0.00    -0.051 Br
HETATM   22  C13 UNL     1      24.715   5.224  49.297  1.00  0.00     0.048 A 
ENDBRANCH  14  16
ENDBRANCH  13  14
ENDBRANCH   2  13
TORSDOF 8
ENDMDL
MODEL 3
REMARK VINA RESULT:      -6.3      1.486      1.793
REMARK  8 active torsions:
REMARK  status: ('A' for Active; 'I' for Inactive)
REMARK    1  A    between atoms: C2_2  and  C3_3 
REMARK       I    between atoms: C3_3  and  N1_5 
REMARK    2  A    between atoms: N1_5  and  C4_6 
REMARK    3  A    between atoms: C4_6  and  C5_7 
REMARK    4  A    between atoms: C4_6  and  C14_18 
REMARK    5  A    between atoms: C6_8  and  C7_9 
REMARK    6  A    between atoms: C7_9  and  N2_10 
REMARK    7  A    between atoms: N2_10  and  C8_11 
REMARK    8  A    between atoms: C14_18  and  C15_19 
ROOT
HETATM    1  C5  UNL     1      25.801   1.984  51.456  1.00  0.00     0.027 C 
HETATM    2  C6  UNL     1      24.557   2.258  51.201  1.00  0.00    -0.005 C 
ENDROOT
BRANCH   1   3
HETATM    3  C4  UNL     1      25.891   0.904  52.427  1.00  0.00     0.031 C 
BRANCH   3   4
HETATM    4  N1  UNL     1      27.054   0.205  52.945  1.00  0.00    -0.327 N 
HETATM    5  C3  UNL     1      27.932   1.068  53.670  1.00  0.00     0.221 C 
HETATM    6  O1  UNL     1      28.283   2.172  54.139  1.00  0.00    -0.273 OA
HETATM    7  H6  UNL     1      27.366  -0.783  52.884  1.00  0.00     0.169 HD
BRANCH   5   8
HETATM    8  C2  UNL     1      29.172   0.473  54.261  1.00  0.00     0.098 C 
HETATM    9  C1  UNL     1      29.511  -0.862  53.690  1.00  0.00     0.014 C 
ENDBRANCH   5   8
ENDBRANCH   3   4
BRANCH   3  10
HETATM   10  C14 UNL     1      25.020   0.189  53.174  1.00  0.00     0.013 C 
BRANCH  10  11
HETATM   11  C15 UNL     1      24.071  -0.586  53.907  1.00  0.00     0.114 C 
HETATM   12 BR2  UNL     1      22.277   0.084  53.462  1.00  0.00    -0.092 Br
ENDBRANCH  10  11
ENDBRANCH   3  10
ENDBRANCH   1   3
BRANCH   2  13
HETATM   13  C7  UNL     1      24.169   3.316  50.244  1.00  0.00     0.147 C 
BRANCH  13  14
HETATM   14  N2  UNL     1      24.500   4.611  50.747  1.00  0.00    -0.386 N 
HETATM   15  H11 UNL     1      24.075   5.019  51.607  1.00  0.00     0.160 HD
BRANCH  14  16
HETATM   16  C8  UNL     1      25.469   5.361  50.009  1.00  0.00     0.029 A 
HETATM   17  C9  UNL     1      26.352   4.698  49.191  1.00  0.00     0.029 A 
HETATM   18  C10 UNL     1      27.316   5.454  48.507  1.00  0.00     0.004 A 
HETATM   19  C11 UNL     1      27.405   6.836  48.630  1.00  0.00     0.019 A 
HETATM   20  C12 UNL     1      26.478   7.397  49.469  1.00  0.00     0.013 A 
HETATM   21 BR1  UNL     1      26.528   9.296  49.698  1.00  0.00    -0.051 Br
HETATM   22  C13 UNL     1      25.494   6.736  50.184  1.00  0.00     0.048 A 
ENDBRANCH  14  16
ENDBRANCH  13  14
ENDBRANCH   2  13
TORSDOF 8
ENDMDL
MODEL 4
REMARK VINA RESULT:      -6.2      2.787      7.624
REMARK  8 active torsions:
REMARK  status: ('A' for Active; 'I' for Inactive)
REMARK    1  A    between atoms: C2_2  and  C3_3 
REMARK       I    between atoms: C3_3  and  N1_5 
REMARK    2  A    between atoms: N1_5  and  C4_6 
REMARK    3  A    between atoms: C4_6  and  C5_7 
REMARK    4  A    between atoms: C4_6  and  C14_18 
REMARK    5  A    between atoms: C6_8  and  C7_9 
REMARK    6  A    between atoms: C7_9  and  N2_10 
REMARK    7  A    between atoms: N2_10  and  C8_11 
REMARK    8  A    between atoms: C14_18  and  C15_19 
ROOT
HETATM    1  C5  UNL     1      27.163   4.547  48.959  1.00  0.00     0.027 C 
HETATM    2  C6  UNL     1      26.066   4.591  49.653  1.00  0.00    -0.005 C 
ENDROOT
BRANCH   1   3
HETATM    3  C4  UNL     1      27.564   5.890  48.565  1.00  0.00     0.031 C 
BRANCH   3   4
HETATM    4  N1  UNL     1      28.826   6.583  48.751  1.00  0.00    -0.327 N 
HETATM    5  C3  UNL     1      29.944   5.809  48.312  1.00  0.00     0.221 C 
HETATM    6  O1  UNL     1      30.479   4.790  47.823  1.00  0.00    -0.273 OA
HETATM    7  H6  UNL     1      29.067   7.514  49.142  1.00  0.00     0.169 HD
BRANCH   5   8
HETATM    8  C2  UNL     1      31.309   6.408  48.445  1.00  0.00     0.098 C 
HETATM    9  C1  UNL     1      31.332   7.628  49.302  1.00  0.00     0.014 C 
ENDBRANCH   5   8
ENDBRANCH   3   4
BRANCH   3  10
HETATM   10  C14 UNL     1      26.987   6.931  47.925  1.00  0.00     0.013 C 
BRANCH  10  11
HETATM   11  C15 UNL     1      26.433   8.066  47.259  1.00  0.00     0.114 C 
HETATM   12 BR2  UNL     1      24.487   7.804  47.146  1.00  0.00    -0.092 Br
ENDBRANCH  10  11
ENDBRANCH   3  10
ENDBRANCH   1   3
BRANCH   2  13
HETATM   13  C7  UNL     1      25.430   3.367  50.188  1.00  0.00     0.147 C 
BRANCH  13  14
HETATM   14  N2  UNL     1      25.729   3.196  51.574  1.00  0.00    -0.386 N 
HETATM   15  H11 UNL     1      25.950   3.986  52.216  1.00  0.00     0.160 HD
BRANCH  14  16
HETATM   16  C8  UNL     1      25.715   1.856  52.076  1.00  0.00     0.029 A 
HETATM   17  C9  UNL     1      26.843   1.082  51.955  1.00  0.00     0.029 A 
HETATM   18  C10 UNL     1      26.791  -0.241  52.421  1.00  0.00     0.004 A 
HETATM   19  C11 UNL     1      25.648  -0.785  52.997  1.00  0.00     0.019 A 
HETATM   20  C12 UNL     1      24.581   0.073  53.070  1.00  0.00     0.013 A 
HETATM   21 BR1  UNL     1      22.964  -0.592  53.847  1.00  0.00    -0.051 Br
HETATM   22  C13 UNL     1      24.537   1.387  52.637  1.00  0.00     0.048 A 
ENDBRANCH  14  16
ENDBRANCH  13  14
ENDBRANCH   2  13
TORSDOF 8
ENDMDL
MODEL 5
REMARK VINA RESULT:      -6.2      3.818      6.165
REMARK  8 active torsions:
REMARK  status: ('A' for Active; 'I' for Inactive)
REMARK    1  A    between atoms: C2_2  and  C3_3 
REMARK       I    between atoms: C3_3  and  N1_5 
REMARK    2  A    between atoms: N1_5  and  C4_6 
REMARK    3  A    between atoms: C4_6  and  C5_7 
REMARK    4  A    between atoms: C4_6  and  C14_18 
REMARK    5  A    between atoms: C6_8  and  C7_9 
REMARK    6  A    between atoms: C7_9  and  N2_10 
REMARK    7  A    between atoms: N2_10  and  C8_11 
REMARK    8  A    between atoms: C14_18  and  C15_19 
ROOT
HETATM    1  C5  UNL     1      24.780  -0.158  53.339  1.00  0.00     0.027 C 
HETATM    2  C6  UNL     1      23.787   0.668  53.198  1.00  0.00    -0.005 C 
ENDROOT
BRANCH   1   3
HETATM    3  C4  UNL     1      26.002   0.428  52.809  1.00  0.00     0.031 C 
BRANCH   3   4
HETATM    4  N1  UNL     1      27.390   0.158  53.140  1.00  0.00    -0.327 N 
HETATM    5  C3  UNL     1      27.707  -1.233  53.075  1.00  0.00     0.221 C 
HETATM    6  O1  UNL     1      27.432  -2.437  52.880  1.00  0.00    -0.273 OA
HETATM    7  H6  UNL     1      28.180   0.772  53.417  1.00  0.00     0.169 HD
BRANCH   5   8
HETATM    8  C2  UNL     1      29.109  -1.650  53.392  1.00  0.00     0.098 C 
HETATM    9  C1  UNL     1      30.059  -0.503  53.465  1.00  0.00     0.014 C 
ENDBRANCH   5   8
ENDBRANCH   3   4
BRANCH   3  10
HETATM   10  C14 UNL     1      26.314   1.362  51.883  1.00  0.00     0.013 C 
BRANCH  10  11
HETATM   11  C15 UNL     1      26.621   2.394  50.946  1.00  0.00     0.114 C 
HETATM   12 BR2  UNL     1      24.927   3.224  50.390  1.00  0.00    -0.092 Br
ENDBRANCH  10  11
ENDBRANCH   3  10
ENDBRANCH   1   3
BRANCH   2  13
HETATM   13  C7  UNL     1      22.421   0.332  53.653  1.00  0.00     0.147 C 
BRANCH  13  14
HETATM   14  N2  UNL     1      21.762  -0.520  52.715  1.00  0.00    -0.386 N 
HETATM   15  H11 UNL     1      21.848  -1.558  52.722  1.00  0.00     0.160 HD
BRANCH  14  16
HETATM   16  C8  UNL     1      20.946   0.118  51.728  1.00  0.00     0.029 A 
HETATM   17  C9  UNL     1      19.583   0.150  51.900  1.00  0.00     0.029 A 
HETATM   18  C10 UNL     1      18.804   0.749  50.899  1.00  0.00     0.004 A 
HETATM   19  C11 UNL     1      19.361   1.304  49.752  1.00  0.00     0.019 A 
HETATM   20  C12 UNL     1      20.726   1.219  49.680  1.00  0.00     0.013 A 
HETATM   21 BR1  UNL     1      21.578   1.958  48.134  1.00  0.00    -0.051 Br
HETATM   22  C13 UNL     1      21.576   0.649  50.613  1.00  0.00     0.048 A 
ENDBRANCH  14  16
ENDBRANCH  13  14
ENDBRANCH   2  13
TORSDOF 8
ENDMDL
MODEL 6
REMARK VINA RESULT:      -6.1      4.101      7.521
REMARK  8 active torsions:
REMARK  status: ('A' for Active; 'I' for Inactive)
REMARK    1  A    between atoms: C2_2  and  C3_3 
REMARK       I    between atoms: C3_3  and  N1_5 
REMARK    2  A    between atoms: N1_5  and  C4_6 
REMARK    3  A    between atoms: C4_6  and  C5_7 
REMARK    4  A    between atoms: C4_6  and  C14_18 
REMARK    5  A    between atoms: C6_8  and  C7_9 
REMARK    6  A    between atoms: C7_9  and  N2_10 
REMARK    7  A    between atoms: N2_10  and  C8_11 
REMARK    8  A    between atoms: C14_18  and  C15_19 
ROOT
HETATM    1  C5  UNL     1      24.021  -0.762  53.769  1.00  0.00     0.027 C 
HETATM    2  C6  UNL     1      22.763  -0.518  53.555  1.00  0.00    -0.005 C 
ENDROOT
BRANCH   1   3
HETATM    3  C4  UNL     1      24.848   0.223  53.089  1.00  0.00     0.031 C 
BRANCH   3   4
HETATM    4  N1  UNL     1      26.246   0.165  52.701  1.00  0.00    -0.327 N 
HETATM    5  C3  UNL     1      27.127   0.466  53.785  1.00  0.00     0.221 C 
HETATM    6  O1  UNL     1      27.381   0.776  54.969  1.00  0.00    -0.273 OA
HETATM    7  H6  UNL     1      26.719  -0.042  51.800  1.00  0.00     0.169 HD
BRANCH   5   8
HETATM    8  C2  UNL     1      28.600   0.439  53.522  1.00  0.00     0.098 C 
HETATM    9  C1  UNL     1      29.207  -0.908  53.728  1.00  0.00     0.014 C 
ENDBRANCH   5   8
ENDBRANCH   3   4
BRANCH   3  10
HETATM   10  C14 UNL     1      24.671   1.465  52.584  1.00  0.00     0.013 C 
BRANCH  10  11
HETATM   11  C15 UNL     1      24.451   2.792  52.107  1.00  0.00     0.114 C 
HETATM   12 BR2  UNL     1      23.354   2.671  50.480  1.00  0.00    -0.092 Br
ENDBRANCH  10  11
ENDBRANCH   3  10
ENDBRANCH   1   3
BRANCH   2  13
HETATM   13  C7  UNL     1      21.694  -1.364  54.130  1.00  0.00     0.147 C 
BRANCH  13  14
HETATM   14  N2  UNL     1      20.526  -0.592  54.415  1.00  0.00    -0.386 N 
HETATM   15  H11 UNL     1      20.363  -0.109  55.323  1.00  0.00     0.160 HD
BRANCH  14  16
HETATM   16  C8  UNL     1      19.547  -0.499  53.375  1.00  0.00     0.029 A 
HETATM   17  C9  UNL     1      18.413  -1.270  53.449  1.00  0.00     0.029 A 
HETATM   18  C10 UNL     1      17.486  -1.187  52.399  1.00  0.00     0.004 A 
HETATM   19  C11 UNL     1      17.678  -0.357  51.299  1.00  0.00     0.019 A 
HETATM   20  C12 UNL     1      18.840   0.369  51.325  1.00  0.00     0.013 A 
HETATM   21 BR1  UNL     1      19.185   1.538  49.851  1.00  0.00    -0.051 Br
HETATM   22  C13 UNL     1      19.810   0.353  52.313  1.00  0.00     0.048 A 
ENDBRANCH  14  16
ENDBRANCH  13  14
ENDBRANCH   2  13
TORSDOF 8
ENDMDL
MODEL 7
REMARK VINA RESULT:      -6.0      3.105      7.609
REMARK  8 active torsions:
REMARK  status: ('A' for Active; 'I' for Inactive)
REMARK    1  A    between atoms: C2_2  and  C3_3 
REMARK       I    between atoms: C3_3  and  N1_5 
REMARK    2  A    between atoms: N1_5  and  C4_6 
REMARK    3  A    between atoms: C4_6  and  C5_7 
REMARK    4  A    between atoms: C4_6  and  C14_18 
REMARK    5  A    between atoms: C6_8  and  C7_9 
REMARK    6  A    between atoms: C7_9  and  N2_10 
REMARK    7  A    between atoms: N2_10  and  C8_11 
REMARK    8  A    between atoms: C14_18  and  C15_19 
ROOT
HETATM    1  C5  UNL     1      27.954   5.084  48.548  1.00  0.00     0.027 C 
HETATM    2  C6  UNL     1      26.798   5.243  49.120  1.00  0.00    -0.005 C 
ENDROOT
BRANCH   1   3
HETATM    3  C4  UNL     1      28.506   6.373  48.160  1.00  0.00     0.031 C 
BRANCH   3   4
HETATM    4  N1  UNL     1      29.645   7.102  48.691  1.00  0.00    -0.327 N 
HETATM    5  C3  UNL     1      30.804   6.279  48.829  1.00  0.00     0.221 C 
HETATM    6  O1  UNL     1      31.428   5.200  48.743  1.00  0.00    -0.273 OA
HETATM    7  H6  UNL     1      29.772   8.088  48.991  1.00  0.00     0.169 HD
BRANCH   5   8
HETATM    8  C2  UNL     1      32.052   6.908  49.364  1.00  0.00     0.098 C 
HETATM    9  C1  UNL     1      33.086   7.142  48.315  1.00  0.00     0.014 C 
ENDBRANCH   5   8
ENDBRANCH   3   4
BRANCH   3  10
HETATM   10  C14 UNL     1      28.219   7.320  47.239  1.00  0.00     0.013 C 
BRANCH  10  11
HETATM   11  C15 UNL     1      27.949   8.284  46.221  1.00  0.00     0.114 C 
HETATM   12 BR2  UNL     1      26.004   8.570  46.167  1.00  0.00    -0.092 Br
ENDBRANCH  10  11
ENDBRANCH   3  10
ENDBRANCH   1   3
BRANCH   2  13
HETATM   13  C7  UNL     1      26.009   4.096  49.619  1.00  0.00     0.147 C 
BRANCH  13  14
HETATM   14  N2  UNL     1      26.618   3.515  50.773  1.00  0.00    -0.386 N 
HETATM   15  H11 UNL     1      27.542   3.817  51.148  1.00  0.00     0.160 HD
BRANCH  14  16
HETATM   16  C8  UNL     1      25.896   2.466  51.424  1.00  0.00     0.029 A 
HETATM   17  C9  UNL     1      24.592   2.680  51.798  1.00  0.00     0.029 A 
HETATM   18  C10 UNL     1      23.918   1.648  52.469  1.00  0.00     0.004 A 
HETATM   19  C11 UNL     1      24.521   0.430  52.762  1.00  0.00     0.019 A 
HETATM   20  C12 UNL     1      25.822   0.320  52.344  1.00  0.00     0.013 A 
HETATM   21 BR1  UNL     1      26.732  -1.323  52.706  1.00  0.00    -0.051 Br
HETATM   22  C13 UNL     1      26.567   1.280  51.680  1.00  0.00     0.048 A 
ENDBRANCH  14  16
ENDBRANCH  13  14
ENDBRANCH   2  13
TORSDOF 8
ENDMDL
MODEL 8
REMARK VINA RESULT:      -6.0      2.976      8.101
REMARK  8 active torsions:
REMARK  status: ('A' for Active; 'I' for Inactive)
REMARK    1  A    between atoms: C2_2  and  C3_3 
REMARK       I    between atoms: C3_3  and  N1_5 
REMARK    2  A    between atoms: N1_5  and  C4_6 
REMARK    3  A    between atoms: C4_6  and  C5_7 
REMARK    4  A    between atoms: C4_6  and  C14_18 
REMARK    5  A    between atoms: C6_8  and  C7_9 
REMARK    6  A    between atoms: C7_9  and  N2_10 
REMARK    7  A    between atoms: N2_10  and  C8_11 
REMARK    8  A    between atoms: C14_18  and  C15_19 
ROOT
HETATM    1  C5  UNL     1      27.017   5.608  48.780  1.00  0.00     0.027 C 
HETATM    2  C6  UNL     1      27.170   4.341  49.026  1.00  0.00    -0.005 C 
ENDROOT
BRANCH   1   3
HETATM    3  C4  UNL     1      28.216   6.147  48.155  1.00  0.00     0.031 C 
BRANCH   3   4
HETATM    4  N1  UNL     1      28.418   7.395  47.439  1.00  0.00    -0.327 N 
HETATM    5  C3  UNL     1      28.823   8.460  48.301  1.00  0.00     0.221 C 
HETATM    6  O1  UNL     1      29.119   8.951  49.412  1.00  0.00    -0.273 OA
HETATM    7  H6  UNL     1      28.318   7.657  46.440  1.00  0.00     0.169 HD
BRANCH   5   8
HETATM    8  C2  UNL     1      29.068   9.804  47.691  1.00  0.00     0.098 C 
HETATM    9  C1  UNL     1      29.373  10.859  48.700  1.00  0.00     0.014 C 
ENDBRANCH   5   8
ENDBRANCH   3   4
BRANCH   3  10
HETATM   10  C14 UNL     1      29.500   5.753  48.006  1.00  0.00     0.013 C 
BRANCH  10  11
HETATM   11  C15 UNL     1      30.875   5.399  47.857  1.00  0.00     0.114 C 
HETATM   12 BR2  UNL     1      31.855   6.139  49.392  1.00  0.00    -0.092 Br
ENDBRANCH  10  11
ENDBRANCH   3  10
ENDBRANCH   1   3
BRANCH   2  13
HETATM   13  C7  UNL     1      26.104   3.535  49.659  1.00  0.00     0.147 C 
BRANCH  13  14
HETATM   14  N2  UNL     1      26.311   3.423  51.068  1.00  0.00    -0.386 N 
HETATM   15  H11 UNL     1      26.869   4.107  51.622  1.00  0.00     0.160 HD
BRANCH  14  16
HETATM   16  C8  UNL     1      25.708   2.303  51.722  1.00  0.00     0.029 A 
HETATM   17  C9  UNL     1      24.435   2.424  52.225  1.00  0.00     0.029 A 
HETATM   18  C10 UNL     1      23.880   1.323  52.894  1.00  0.00     0.004 A 
HETATM   19  C11 UNL     1      24.570   0.127  53.062  1.00  0.00     0.019 A 
HETATM   20  C12 UNL     1      25.830   0.112  52.522  1.00  0.00     0.013 A 
HETATM   21 BR1  UNL     1      26.853  -1.494  52.707  1.00  0.00    -0.051 Br
HETATM   22  C13 UNL     1      26.460   1.145  51.848  1.00  0.00     0.048 A 
ENDBRANCH  14  16
ENDBRANCH  13  14
ENDBRANCH   2  13
TORSDOF 8
ENDMDL
MODEL 9
REMARK VINA RESULT:      -5.9      3.201      7.659
REMARK  8 active torsions:
REMARK  status: ('A' for Active; 'I' for Inactive)
REMARK    1  A    between atoms: C2_2  and  C3_3 
REMARK       I    between atoms: C3_3  and  N1_5 
REMARK    2  A    between atoms: N1_5  and  C4_6 
REMARK    3  A    between atoms: C4_6  and  C5_7 
REMARK    4  A    between atoms: C4_6  and  C14_18 
REMARK    5  A    between atoms: C6_8  and  C7_9 
REMARK    6  A    between atoms: C7_9  and  N2_10 
REMARK    7  A    between atoms: N2_10  and  C8_11 
REMARK    8  A    between atoms: C14_18  and  C15_19 
ROOT
HETATM    1  C5  UNL     1      27.186   4.833  48.907  1.00  0.00     0.027 C 
HETATM    2  C6  UNL     1      26.313   4.353  49.742  1.00  0.00    -0.005 C 
ENDROOT
BRANCH   1   3
HETATM    3  C4  UNL     1      26.794   6.168  48.483  1.00  0.00     0.031 C 
BRANCH   3   4
HETATM    4  N1  UNL     1      27.597   7.364  48.294  1.00  0.00    -0.327 N 
HETATM    5  C3  UNL     1      27.455   8.293  49.371  1.00  0.00     0.221 C 
HETATM    6  O1  UNL     1      26.987   8.677  50.465  1.00  0.00    -0.273 OA
HETATM    7  H6  UNL     1      28.236   7.671  47.536  1.00  0.00     0.169 HD
BRANCH   5   8
HETATM    8  C2  UNL     1      28.231   9.570  49.304  1.00  0.00     0.098 C 
HETATM    9  C1  UNL     1      29.706   9.357  49.239  1.00  0.00     0.014 C 
ENDBRANCH   5   8
ENDBRANCH   3   4
BRANCH   3  10
HETATM   10  C14 UNL     1      25.644   6.779  48.121  1.00  0.00     0.013 C 
BRANCH  10  11
HETATM   11  C15 UNL     1      24.402   7.365  47.730  1.00  0.00     0.114 C 
HETATM   12 BR2  UNL     1      23.539   8.078  49.347  1.00  0.00    -0.092 Br
ENDBRANCH  10  11
ENDBRANCH   3  10
ENDBRANCH   1   3
BRANCH   2  13
HETATM   13  C7  UNL     1      26.461   3.007  50.339  1.00  0.00     0.147 C 
BRANCH  13  14
HETATM   14  N2  UNL     1      26.583   3.085  51.760  1.00  0.00    -0.386 N 
HETATM   15  H11 UNL     1      26.217   3.881  52.325  1.00  0.00     0.160 HD
BRANCH  14  16
HETATM   16  C8  UNL     1      27.247   1.998  52.411  1.00  0.00     0.029 A 
HETATM   17  C9  UNL     1      28.317   2.259  53.232  1.00  0.00     0.029 A 
HETATM   18  C10 UNL     1      28.974   1.172  53.829  1.00  0.00     0.004 A 
HETATM   19  C11 UNL     1      28.579  -0.145  53.618  1.00  0.00     0.019 A 
HETATM   20  C12 UNL     1      27.502  -0.293  52.784  1.00  0.00     0.013 A 
HETATM   21 BR1  UNL     1      26.890  -2.073  52.438  1.00  0.00    -0.051 Br
HETATM   22  C13 UNL     1      26.793   0.714  52.152  1.00  0.00     0.048 A 
ENDBRANCH  14  16
ENDBRANCH  13  14
ENDBRANCH   2  13
TORSDOF 8
ENDMDL
