MODEL 1
REMARK VINA RESULT:      -9.0      0.000      0.000
REMARK  1 active torsions:
REMARK  status: ('A' for Active; 'I' for Inactive)
REMARK    1  A    between atoms: O1_2  and  C2_3 
ROOT
HETATM    1  C2  UNL     1      20.230   3.129  52.314  1.00  0.00     0.321 C 
HETATM    2  C3  UNL     1      21.655   3.778  52.316  1.00  0.00     0.053 C 
HETATM    3  C4  UNL     1      22.565   3.016  51.820  1.00  0.00     0.092 C 
HETATM    4  N1  UNL     1      23.944   3.300  51.701  1.00  0.00    -0.356 N 
HETATM    5  C5  UNL     1      24.056   3.411  53.187  1.00  0.00     0.155 C 
HETATM    6  C6  UNL     1      25.165   2.603  53.597  1.00  0.00    -0.006 C 
HETATM    7  C7  UNL     1      26.279   1.897  54.037  1.00  0.00     0.025 C 
HETATM    8  C8  UNL     1      26.082   0.421  53.465  1.00  0.00     0.267 C 
HETATM    9  N2  UNL     1      25.748   0.849  52.062  1.00  0.00    -0.266 NA
HETATM   10  C9  UNL     1      26.186   2.028  51.696  1.00  0.00     0.122 C 
HETATM   11  C10 UNL     1      26.189   2.919  50.606  1.00  0.00    -0.018 C 
HETATM   12  C11 UNL     1      25.005   3.451  50.761  1.00  0.00     0.019 C 
HETATM   13  C12 UNL     1      24.545   4.342  49.663  1.00  0.00     0.058 C 
HETATM   14  C13 UNL     1      25.868   4.669  48.992  1.00  0.00     0.011 C 
HETATM   15  C14 UNL     1      26.773   3.567  49.452  1.00  0.00     0.042 C 
HETATM   16  O2  UNL     1      24.865   0.062  53.971  1.00  0.00    -0.362 OA
HETATM   17  C15 UNL     1      24.649  -0.945  54.794  1.00  0.00     0.170 C 
HETATM   18  C16 UNL     1      23.220  -1.197  55.260  1.00  0.00     0.026 C 
HETATM   19  C17 UNL     1      22.214  -1.638  54.284  1.00  0.00     0.004 C 
HETATM   20  C18 UNL     1      21.817  -0.897  53.121  1.00  0.00     0.029 C 
HETATM   21  C19 UNL     1      21.063   0.455  53.286  1.00  0.00     0.210 C 
HETATM   22  O3  UNL     1      20.675   0.917  52.097  1.00  0.00    -0.238 OA
HETATM   23  O4  UNL     1      20.330   1.977  51.623  1.00  0.00    -0.204 OA
ENDROOT
BRANCH   1  24
HETATM   24  O1  UNL     1      19.335   4.014  51.801  1.00  0.00    -0.360 OA
HETATM   25  C1  UNL     1      18.152   3.256  51.497  1.00  0.00     0.205 C 
ENDBRANCH   1  24
TORSDOF 1
ENDMDL
MODEL 2
REMARK VINA RESULT:      -8.3      1.511      1.764
REMARK  1 active torsions:
REMARK  status: ('A' for Active; 'I' for Inactive)
REMARK    1  A    between atoms: O1_2  and  C2_3 
ROOT
HETATM    1  C2  UNL     1      19.997   4.562  50.728  1.00  0.00     0.321 C 
HETATM    2  C3  UNL     1      21.463   4.987  51.072  1.00  0.00     0.053 C 
HETATM    3  C4  UNL     1      22.343   4.112  50.733  1.00  0.00     0.092 C 
HETATM    4  N1  UNL     1      23.740   4.187  50.928  1.00  0.00    -0.356 N 
HETATM    5  C5  UNL     1      23.538   4.234  52.408  1.00  0.00     0.155 C 
HETATM    6  C6  UNL     1      24.405   3.255  52.992  1.00  0.00    -0.006 C 
HETATM    7  C7  UNL     1      25.285   2.375  53.612  1.00  0.00     0.025 C 
HETATM    8  C8  UNL     1      25.012   0.964  52.919  1.00  0.00     0.267 C 
HETATM    9  N2  UNL     1      25.057   1.482  51.507  1.00  0.00    -0.266 NA
HETATM   10  C9  UNL     1      25.726   2.592  51.318  1.00  0.00     0.122 C 
HETATM   11  C10 UNL     1      26.094   3.506  50.313  1.00  0.00    -0.018 C 
HETATM   12  C11 UNL     1      24.992   4.206  50.246  1.00  0.00     0.019 C 
HETATM   13  C12 UNL     1      24.914   5.191  49.135  1.00  0.00     0.058 C 
HETATM   14  C13 UNL     1      26.384   5.334  48.781  1.00  0.00     0.011 C 
HETATM   15  C14 UNL     1      27.002   4.094  49.351  1.00  0.00     0.042 C 
HETATM   16  O2  UNL     1      23.675   0.778  53.131  1.00  0.00    -0.362 OA
HETATM   17  C15 UNL     1      23.144  -0.210  53.825  1.00  0.00     0.170 C 
HETATM   18  C16 UNL     1      21.627  -0.257  53.960  1.00  0.00     0.026 C 
HETATM   19  C17 UNL     1      20.808  -0.510  52.766  1.00  0.00     0.004 C 
HETATM   20  C18 UNL     1      20.784   0.319  51.595  1.00  0.00     0.029 C 
HETATM   21  C19 UNL     1      20.211   1.764  51.682  1.00  0.00     0.210 C 
HETATM   22  O3  UNL     1      20.161   2.317  50.470  1.00  0.00    -0.238 OA
HETATM   23  O4  UNL     1      20.082   3.430  50.001  1.00  0.00    -0.204 OA
ENDROOT
BRANCH   1  24
HETATM   24  O1  UNL     1      19.369   5.588  50.093  1.00  0.00    -0.360 OA
HETATM   25  C1  UNL     1      19.285   5.212  48.708  1.00  0.00     0.205 C 
ENDBRANCH   1  24
TORSDOF 1
ENDMDL
MODEL 3
REMARK VINA RESULT:      -8.2      2.384      6.669
REMARK  1 active torsions:
REMARK  status: ('A' for Active; 'I' for Inactive)
REMARK    1  A    between atoms: O1_2  and  C2_3 
ROOT
HETATM    1  C2  UNL     1      26.772   1.582  53.745  1.00  0.00     0.321 C 
HETATM    2  C3  UNL     1      25.251   1.870  53.977  1.00  0.00     0.053 C 
HETATM    3  C4  UNL     1      24.527   1.668  52.933  1.00  0.00     0.092 C 
HETATM    4  N1  UNL     1      23.132   1.858  52.812  1.00  0.00    -0.356 N 
HETATM    5  C5  UNL     1      23.299   3.314  53.104  1.00  0.00     0.155 C 
HETATM    6  C6  UNL     1      22.588   4.039  52.093  1.00  0.00    -0.006 C 
HETATM    7  C7  UNL     1      21.848   4.786  51.183  1.00  0.00     0.025 C 
HETATM    8  C8  UNL     1      22.353   4.303  49.749  1.00  0.00     0.267 C 
HETATM    9  N2  UNL     1      22.251   2.832  50.043  1.00  0.00    -0.266 NA
HETATM   10  C9  UNL     1      21.418   2.487  50.993  1.00  0.00     0.122 C 
HETATM   11  C10 UNL     1      20.928   1.362  51.682  1.00  0.00    -0.018 C 
HETATM   12  C11 UNL     1      21.906   1.187  52.532  1.00  0.00     0.019 C 
HETATM   13  C12 UNL     1      21.845  -0.056  53.345  1.00  0.00     0.058 C 
HETATM   14  C13 UNL     1      20.377  -0.417  53.200  1.00  0.00     0.011 C 
HETATM   15  C14 UNL     1      19.954   0.331  51.973  1.00  0.00     0.042 C 
HETATM   16  O2  UNL     1      23.699   4.532  49.811  1.00  0.00    -0.362 OA
HETATM   17  C15 UNL     1      24.368   5.359  49.031  1.00  0.00     0.170 C 
HETATM   18  C16 UNL     1      25.871   5.490  49.247  1.00  0.00     0.026 C 
HETATM   19  C17 UNL     1      26.740   4.341  48.957  1.00  0.00     0.004 C 
HETATM   20  C18 UNL     1      26.653   3.062  49.601  1.00  0.00     0.029 C 
HETATM   21  C19 UNL     1      26.988   2.935  51.116  1.00  0.00     0.210 C 
HETATM   22  O3  UNL     1      26.970   1.655  51.489  1.00  0.00    -0.238 OA
HETATM   23  O4  UNL     1      26.880   1.028  52.522  1.00  0.00    -0.204 OA
ENDROOT
BRANCH   1  24
HETATM   24  O1  UNL     1      27.240   0.802  54.756  1.00  0.00    -0.360 OA
HETATM   25  C1  UNL     1      28.619   0.537  54.452  1.00  0.00     0.205 C 
ENDBRANCH   1  24
TORSDOF 1
ENDMDL
MODEL 4
REMARK VINA RESULT:      -7.8      1.970      5.143
REMARK  1 active torsions:
REMARK  status: ('A' for Active; 'I' for Inactive)
REMARK    1  A    between atoms: O1_2  and  C2_3 
ROOT
HETATM    1  C2  UNL     1      25.798   0.539  52.349  1.00  0.00     0.321 C 
HETATM    2  C3  UNL     1      25.001   1.458  51.364  1.00  0.00     0.053 C 
HETATM    3  C4  UNL     1      24.054   2.118  51.933  1.00  0.00     0.092 C 
HETATM    4  N1  UNL     1      23.146   3.008  51.318  1.00  0.00    -0.356 N 
HETATM    5  C5  UNL     1      22.622   1.897  50.467  1.00  0.00     0.155 C 
HETATM    6  C6  UNL     1      21.193   1.915  50.569  1.00  0.00    -0.006 C 
HETATM    7  C7  UNL     1      19.803   1.940  50.570  1.00  0.00     0.025 C 
HETATM    8  C8  UNL     1      19.393   1.887  52.112  1.00  0.00     0.267 C 
HETATM    9  N2  UNL     1      20.342   2.966  52.554  1.00  0.00    -0.266 NA
HETATM   10  C9  UNL     1      20.720   3.819  51.635  1.00  0.00     0.122 C 
HETATM   11  C10 UNL     1      21.535   4.951  51.441  1.00  0.00    -0.018 C 
HETATM   12  C11 UNL     1      22.694   4.360  51.313  1.00  0.00     0.019 C 
HETATM   13  C12 UNL     1      23.879   5.258  51.271  1.00  0.00     0.058 C 
HETATM   14  C13 UNL     1      23.220   6.578  50.909  1.00  0.00     0.011 C 
HETATM   15  C14 UNL     1      21.787   6.368  51.290  1.00  0.00     0.042 C 
HETATM   16  O2  UNL     1      20.006   0.746  52.547  1.00  0.00    -0.362 OA
HETATM   17  C15 UNL     1      19.390  -0.313  53.033  1.00  0.00     0.170 C 
HETATM   18  C16 UNL     1      20.239  -1.501  53.468  1.00  0.00     0.026 C 
HETATM   19  C17 UNL     1      21.133  -1.357  54.625  1.00  0.00     0.004 C 
HETATM   20  C18 UNL     1      22.213  -0.416  54.718  1.00  0.00     0.029 C 
HETATM   21  C19 UNL     1      23.448  -0.562  53.780  1.00  0.00     0.210 C 
HETATM   22  O3  UNL     1      24.386   0.326  54.109  1.00  0.00    -0.238 OA
HETATM   23  O4  UNL     1      25.359   0.827  53.590  1.00  0.00    -0.204 OA
ENDROOT
BRANCH   1  24
HETATM   24  O1  UNL     1      27.131   0.737  52.168  1.00  0.00    -0.360 OA
HETATM   25  C1  UNL     1      27.797  -0.151  53.082  1.00  0.00     0.205 C 
ENDBRANCH   1  24
TORSDOF 1
ENDMDL
MODEL 5
REMARK VINA RESULT:      -7.7      2.464      5.496
REMARK  1 active torsions:
REMARK  status: ('A' for Active; 'I' for Inactive)
REMARK    1  A    between atoms: O1_2  and  C2_3 
ROOT
HETATM    1  C2  UNL     1      26.657   2.131  52.007  1.00  0.00     0.321 C 
HETATM    2  C3  UNL     1      26.288   3.109  50.841  1.00  0.00     0.053 C 
HETATM    3  C4  UNL     1      25.211   3.778  51.056  1.00  0.00     0.092 C 
HETATM    4  N1  UNL     1      24.604   4.718  50.193  1.00  0.00    -0.356 N 
HETATM    5  C5  UNL     1      24.406   3.653  49.162  1.00  0.00     0.155 C 
HETATM    6  C6  UNL     1      23.038   3.713  48.740  1.00  0.00    -0.006 C 
HETATM    7  C7  UNL     1      21.744   3.783  48.238  1.00  0.00     0.025 C 
HETATM    8  C8  UNL     1      20.800   3.690  49.522  1.00  0.00     0.267 C 
HETATM    9  N2  UNL     1      21.542   4.723  50.325  1.00  0.00    -0.266 NA
HETATM   10  C9  UNL     1      22.244   5.594  49.643  1.00  0.00     0.122 C 
HETATM   11  C10 UNL     1      23.092   6.705  49.807  1.00  0.00    -0.018 C 
HETATM   12  C11 UNL     1      24.208   6.083  50.083  1.00  0.00     0.019 C 
HETATM   13  C12 UNL     1      25.342   6.943  50.512  1.00  0.00     0.058 C 
HETATM   14  C13 UNL     1      24.884   8.295  49.994  1.00  0.00     0.011 C 
HETATM   15  C14 UNL     1      23.406   8.118  49.820  1.00  0.00     0.042 C 
HETATM   16  O2  UNL     1      21.194   2.516  50.100  1.00  0.00    -0.362 OA
HETATM   17  C15 UNL     1      20.424   1.461  50.283  1.00  0.00     0.170 C 
HETATM   18  C16 UNL     1      21.036   0.233  50.945  1.00  0.00     0.026 C 
HETATM   19  C17 UNL     1      21.451   0.308  52.352  1.00  0.00     0.004 C 
HETATM   20  C18 UNL     1      22.440   1.210  52.870  1.00  0.00     0.029 C 
HETATM   21  C19 UNL     1      23.928   1.057  52.439  1.00  0.00     0.210 C 
HETATM   22  O3  UNL     1      24.698   1.903  53.124  1.00  0.00    -0.238 OA
HETATM   23  O4  UNL     1      25.802   2.391  53.015  1.00  0.00    -0.204 OA
ENDROOT
BRANCH   1  24
HETATM   24  O1  UNL     1      27.968   2.292  52.330  1.00  0.00    -0.360 OA
HETATM   25  C1  UNL     1      28.190   1.502  53.510  1.00  0.00     0.205 C 
ENDBRANCH   1  24
TORSDOF 1
ENDMDL
MODEL 6
REMARK VINA RESULT:      -7.7      8.293     12.321
REMARK  1 active torsions:
REMARK  status: ('A' for Active; 'I' for Inactive)
REMARK    1  A    between atoms: O1_2  and  C2_3 
ROOT
HETATM    1  C2  UNL     1      33.336   4.817  46.834  1.00  0.00     0.321 C 
HETATM    2  C3  UNL     1      32.294   5.179  47.945  1.00  0.00     0.053 C 
HETATM    3  C4  UNL     1      31.331   5.919  47.522  1.00  0.00     0.092 C 
HETATM    4  N1  UNL     1      30.252   6.431  48.277  1.00  0.00    -0.356 N 
HETATM    5  C5  UNL     1      31.209   7.193  49.137  1.00  0.00     0.155 C 
HETATM    6  C6  UNL     1      30.740   8.545  49.208  1.00  0.00    -0.006 C 
HETATM    7  C7  UNL     1      30.284   9.848  49.374  1.00  0.00     0.025 C 
HETATM    8  C8  UNL     1      30.087  10.406  47.891  1.00  0.00     0.267 C 
HETATM    9  N2  UNL     1      29.325   9.212  47.384  1.00  0.00    -0.266 NA
HETATM   10  C9  UNL     1      28.706   8.493  48.287  1.00  0.00     0.122 C 
HETATM   11  C10 UNL     1      27.902   7.346  48.430  1.00  0.00    -0.018 C 
HETATM   12  C11 UNL     1      28.832   6.427  48.393  1.00  0.00     0.019 C 
HETATM   13  C12 UNL     1      28.352   5.021  48.331  1.00  0.00     0.058 C 
HETATM   14  C13 UNL     1      26.926   5.187  48.825  1.00  0.00     0.011 C 
HETATM   15  C14 UNL     1      26.650   6.644  48.609  1.00  0.00     0.042 C 
HETATM   16  O2  UNL     1      31.324  10.233  47.338  1.00  0.00    -0.362 OA
HETATM   17  C15 UNL     1      32.098  11.200  46.885  1.00  0.00     0.170 C 
HETATM   18  C16 UNL     1      33.453  10.820  46.302  1.00  0.00     0.026 C 
HETATM   19  C17 UNL     1      33.506  10.046  45.054  1.00  0.00     0.004 C 
HETATM   20  C18 UNL     1      32.943   8.739  44.873  1.00  0.00     0.029 C 
HETATM   21  C19 UNL     1      33.537   7.527  45.649  1.00  0.00     0.210 C 
HETATM   22  O3  UNL     1      32.962   6.393  45.248  1.00  0.00    -0.238 OA
HETATM   23  O4  UNL     1      32.830   5.264  45.668  1.00  0.00    -0.204 OA
ENDROOT
BRANCH   1  24
HETATM   24  O1  UNL     1      33.577   3.480  46.863  1.00  0.00    -0.360 OA
HETATM   25  C1  UNL     1      34.680   3.290  47.765  1.00  0.00     0.205 C 
ENDBRANCH   1  24
TORSDOF 1
ENDMDL
MODEL 7
REMARK VINA RESULT:      -7.2      2.295      5.635
REMARK  1 active torsions:
REMARK  status: ('A' for Active; 'I' for Inactive)
REMARK    1  A    between atoms: O1_2  and  C2_3 
ROOT
HETATM    1  C2  UNL     1      20.722   0.385  52.439  1.00  0.00     0.321 C 
HETATM    2  C3  UNL     1      21.792   0.576  51.313  1.00  0.00     0.053 C 
HETATM    3  C4  UNL     1      22.084   1.809  51.088  1.00  0.00     0.092 C 
HETATM    4  N1  UNL     1      22.989   2.309  50.125  1.00  0.00    -0.356 N 
HETATM    5  C5  UNL     1      22.159   1.722  49.030  1.00  0.00     0.155 C 
HETATM    6  C6  UNL     1      21.939   2.751  48.058  1.00  0.00    -0.006 C 
HETATM    7  C7  UNL     1      21.765   3.690  47.048  1.00  0.00     0.025 C 
HETATM    8  C8  UNL     1      21.146   4.968  47.778  1.00  0.00     0.267 C 
HETATM    9  N2  UNL     1      22.142   4.990  48.905  1.00  0.00    -0.266 NA
HETATM   10  C9  UNL     1      23.296   4.415  48.672  1.00  0.00     0.122 C 
HETATM   11  C10 UNL     1      24.531   4.123  49.279  1.00  0.00    -0.018 C 
HETATM   12  C11 UNL     1      24.188   3.064  49.965  1.00  0.00     0.019 C 
HETATM   13  C12 UNL     1      25.208   2.546  50.914  1.00  0.00     0.058 C 
HETATM   14  C13 UNL     1      26.465   3.192  50.359  1.00  0.00     0.011 C 
HETATM   15  C14 UNL     1      25.939   4.332  49.542  1.00  0.00     0.042 C 
HETATM   16  O2  UNL     1      20.026   4.461  48.373  1.00  0.00    -0.362 OA
HETATM   17  C15 UNL     1      18.789   4.838  48.115  1.00  0.00     0.170 C 
HETATM   18  C16 UNL     1      17.658   4.159  48.876  1.00  0.00     0.026 C 
HETATM   19  C17 UNL     1      17.536   4.375  50.324  1.00  0.00     0.004 C 
HETATM   20  C18 UNL     1      18.536   4.031  51.293  1.00  0.00     0.029 C 
HETATM   21  C19 UNL     1      18.886   2.535  51.546  1.00  0.00     0.210 C 
HETATM   22  O3  UNL     1      19.740   2.424  52.564  1.00  0.00    -0.238 OA
HETATM   23  O4  UNL     1      20.517   1.598  52.989  1.00  0.00    -0.204 OA
ENDROOT
BRANCH   1  24
HETATM   24  O1  UNL     1      21.156  -0.560  53.315  1.00  0.00    -0.360 OA
HETATM   25  C1  UNL     1      21.144   0.059  54.612  1.00  0.00     0.205 C 
ENDBRANCH   1  24
TORSDOF 1
ENDMDL
MODEL 8
REMARK VINA RESULT:      -7.2      4.183      7.403
REMARK  1 active torsions:
REMARK  status: ('A' for Active; 'I' for Inactive)
REMARK    1  A    between atoms: O1_2  and  C2_3 
ROOT
HETATM    1  C2  UNL     1      15.244  -1.228  52.328  1.00  0.00     0.321 C 
HETATM    2  C3  UNL     1      16.770  -1.354  52.003  1.00  0.00     0.053 C 
HETATM    3  C4  UNL     1      17.492  -0.460  52.581  1.00  0.00     0.092 C 
HETATM    4  N1  UNL     1      18.890  -0.291  52.473  1.00  0.00    -0.356 N 
HETATM    5  C5  UNL     1      18.752  -0.037  51.006  1.00  0.00     0.155 C 
HETATM    6  C6  UNL     1      19.479   1.161  50.708  1.00  0.00    -0.006 C 
HETATM    7  C7  UNL     1      20.236   2.272  50.353  1.00  0.00     0.025 C 
HETATM    8  C8  UNL     1      19.724   3.441  51.311  1.00  0.00     0.267 C 
HETATM    9  N2  UNL     1      19.796   2.634  52.579  1.00  0.00    -0.266 NA
HETATM   10  C9  UNL     1      20.621   1.616  52.572  1.00  0.00     0.122 C 
HETATM   11  C10 UNL     1      21.087   0.563  53.382  1.00  0.00    -0.018 C 
HETATM   12  C11 UNL     1      20.104  -0.283  53.220  1.00  0.00     0.019 C 
HETATM   13  C12 UNL     1      20.138  -1.491  54.087  1.00  0.00     0.058 C 
HETATM   14  C13 UNL     1      21.598  -1.499  54.503  1.00  0.00     0.011 C 
HETATM   15  C14 UNL     1      22.039  -0.089  54.255  1.00  0.00     0.042 C 
HETATM   16  O2  UNL     1      18.384   3.478  51.051  1.00  0.00    -0.362 OA
HETATM   17  C15 UNL     1      17.733   4.509  50.550  1.00  0.00     0.170 C 
HETATM   18  C16 UNL     1      16.233   4.369  50.323  1.00  0.00     0.026 C 
HETATM   19  C17 UNL     1      15.341   4.233  51.483  1.00  0.00     0.004 C 
HETATM   20  C18 UNL     1      15.401   3.170  52.445  1.00  0.00     0.029 C 
HETATM   21  C19 UNL     1      15.061   1.714  52.012  1.00  0.00     0.210 C 
HETATM   22  O3  UNL     1      15.052   0.904  53.071  1.00  0.00    -0.238 OA
HETATM   23  O4  UNL     1      15.128  -0.286  53.284  1.00  0.00    -0.204 OA
ENDROOT
BRANCH   1  24
HETATM   24  O1  UNL     1      14.758  -2.447  52.683  1.00  0.00    -0.360 OA
HETATM   25  C1  UNL     1      14.668  -3.212  51.468  1.00  0.00     0.205 C 
ENDBRANCH   1  24
TORSDOF 1
ENDMDL
MODEL 9
REMARK VINA RESULT:      -7.1      2.391      5.512
REMARK  1 active torsions:
REMARK  status: ('A' for Active; 'I' for Inactive)
REMARK    1  A    between atoms: O1_2  and  C2_3 
ROOT
HETATM    1  C2  UNL     1      18.584   2.814  49.336  1.00  0.00     0.321 C 
HETATM    2  C3  UNL     1      19.558   1.673  49.783  1.00  0.00     0.053 C 
HETATM    3  C4  UNL     1      20.177   1.929  50.882  1.00  0.00     0.092 C 
HETATM    4  N1  UNL     1      21.133   1.117  51.532  1.00  0.00    -0.356 N 
HETATM    5  C5  UNL     1      22.035   1.218  50.345  1.00  0.00     0.155 C 
HETATM    6  C6  UNL     1      23.334   1.589  50.823  1.00  0.00    -0.006 C 
HETATM    7  C7  UNL     1      24.629   1.869  51.243  1.00  0.00     0.025 C 
HETATM    8  C8  UNL     1      24.497   3.189  52.129  1.00  0.00     0.267 C 
HETATM    9  N2  UNL     1      23.339   2.698  52.954  1.00  0.00    -0.266 NA
HETATM   10  C9  UNL     1      23.200   1.399  53.044  1.00  0.00     0.122 C 
HETATM   11  C10 UNL     1      22.377   0.409  53.613  1.00  0.00    -0.018 C 
HETATM   12  C11 UNL     1      21.404   0.412  52.741  1.00  0.00     0.019 C 
HETATM   13  C12 UNL     1      20.210  -0.399  53.098  1.00  0.00     0.058 C 
HETATM   14  C13 UNL     1      20.799  -1.320  54.152  1.00  0.00     0.011 C 
HETATM   15  C14 UNL     1      22.033  -0.596  54.596  1.00  0.00     0.042 C 
HETATM   16  O2  UNL     1      23.905   4.071  51.269  1.00  0.00    -0.362 OA
HETATM   17  C15 UNL     1      24.437   5.204  50.854  1.00  0.00     0.170 C 
HETATM   18  C16 UNL     1      23.630   6.063  49.889  1.00  0.00     0.026 C 
HETATM   19  C17 UNL     1      22.387   6.692  50.356  1.00  0.00     0.004 C 
HETATM   20  C18 UNL     1      21.241   5.982  50.847  1.00  0.00     0.029 C 
HETATM   21  C19 UNL     1      20.421   5.076  49.883  1.00  0.00     0.210 C 
HETATM   22  O3  UNL     1      19.332   4.611  50.497  1.00  0.00    -0.238 OA
HETATM   23  O4  UNL     1      18.542   3.705  50.346  1.00  0.00    -0.204 OA
ENDROOT
BRANCH   1  24
HETATM   24  O1  UNL     1      17.378   2.274  49.016  1.00  0.00    -0.360 OA
HETATM   25  C1  UNL     1      16.517   2.524  50.140  1.00  0.00     0.205 C 
ENDBRANCH   1  24
TORSDOF 1
ENDMDL
