MODEL 1
REMARK VINA RESULT:      -6.6      0.000      0.000
REMARK  10 active torsions:
REMARK  status: ('A' for Active; 'I' for Inactive)
REMARK    1  A    between atoms: C6_7  and  O1_8 
REMARK    2  A    between atoms: O1_8  and  C7_9 
REMARK    3  A    between atoms: C7_9  and  C8_10 
REMARK    4  A    between atoms: C8_10  and  C9_11 
REMARK    5  A    between atoms: C9_11  and  C10_12 
REMARK    6  A    between atoms: C10_12  and  C11_13 
REMARK    7  A    between atoms: C11_13  and  C12_14 
REMARK    8  A    between atoms: C12_14  and  C13_15 
REMARK    9  A    between atoms: C13_15  and  N1_16 
REMARK   10  A    between atoms: C13_15  and  O2_17 
ROOT
HETATM    1  C1  UNL     1      22.023  -1.370  54.517  1.00  0.00     0.011 C 
HETATM    2  C2  UNL     1      22.176  -0.056  53.808  1.00  0.00     0.001 A 
HETATM    3  C3  UNL     1      20.973  -0.044  53.206  1.00  0.00    -0.003 A 
HETATM    4  C4  UNL     1      21.807   1.080  52.943  1.00  0.00     0.137 A 
HETATM    5  C5  UNL     1      22.548   2.174  52.650  1.00  0.00     0.134 C 
HETATM    6  F1  UNL     1      23.709   1.906  53.383  1.00  0.00    -0.241 F 
HETATM    7  C6  UNL     1      22.606   3.490  52.075  1.00  0.00     0.078 C 
HETATM    8  C15 UNL     1      21.545   4.043  51.590  1.00  0.00     0.019 C 
HETATM    9  C16 UNL     1      20.331   3.292  51.660  1.00  0.00     0.061 C 
HETATM   10  C17 UNL     1      19.132   2.893  51.604  1.00  0.00     0.065 C 
HETATM   11  N2  UNL     1      19.389   1.487  52.114  1.00  0.00    -0.401 N 
HETATM   12  C18 UNL     1      19.712   0.166  52.513  1.00  0.00     0.130 C 
HETATM   13  H27 UNL     1      18.608   1.672  52.832  1.00  0.00     0.158 HD
ENDROOT
BRANCH   7  14
HETATM   14  O1  UNL     1      23.838   4.044  52.105  1.00  0.00    -0.353 OA
BRANCH  14  15
HETATM   15  C7  UNL     1      24.571   4.337  50.941  1.00  0.00     0.175 C 
BRANCH  15  16
HETATM   16  C8  UNL     1      25.046   3.014  50.337  1.00  0.00     0.027 C 
BRANCH  16  17
HETATM   17  C9  UNL     1      26.478   2.757  50.728  1.00  0.00     0.002 C 
BRANCH  17  18
HETATM   18  C10 UNL     1      26.676   1.918  51.925  1.00  0.00     0.000 C 
BRANCH  18  19
HETATM   19  C11 UNL     1      26.721   0.440  51.731  1.00  0.00     0.004 C 
BRANCH  19  20
HETATM   20  C12 UNL     1      25.831  -0.251  52.767  1.00  0.00     0.063 C 
BRANCH  20  21
HETATM   21  C13 UNL     1      26.402  -0.097  54.170  1.00  0.00     0.353 C 
BRANCH  21  22
HETATM   22  N1  UNL     1      25.607  -0.751  55.184  1.00  0.00     0.107 N 
HETATM   23  H19 UNL     1      24.593  -0.709  54.951  1.00  0.00     0.316 HD
HETATM   24  H20 UNL     1      25.916  -1.718  55.398  1.00  0.00     0.316 HD
ENDBRANCH  21  22
BRANCH  21  25
HETATM   25  O2  UNL     1      27.660  -0.707  54.145  1.00  0.00    -0.362 OA
HETATM   26  C14 UNL     1      28.506   0.104  54.871  1.00  0.00     0.204 C 
ENDBRANCH  21  25
ENDBRANCH  20  21
ENDBRANCH  19  20
ENDBRANCH  18  19
ENDBRANCH  17  18
ENDBRANCH  16  17
ENDBRANCH  15  16
ENDBRANCH  14  15
ENDBRANCH   7  14
TORSDOF 10
ENDMDL
MODEL 2
REMARK VINA RESULT:      -6.5      3.624      6.231
REMARK  10 active torsions:
REMARK  status: ('A' for Active; 'I' for Inactive)
REMARK    1  A    between atoms: C6_7  and  O1_8 
REMARK    2  A    between atoms: O1_8  and  C7_9 
REMARK    3  A    between atoms: C7_9  and  C8_10 
REMARK    4  A    between atoms: C8_10  and  C9_11 
REMARK    5  A    between atoms: C9_11  and  C10_12 
REMARK    6  A    between atoms: C10_12  and  C11_13 
REMARK    7  A    between atoms: C11_13  and  C12_14 
REMARK    8  A    between atoms: C12_14  and  C13_15 
REMARK    9  A    between atoms: C13_15  and  N1_16 
REMARK   10  A    between atoms: C13_15  and  O2_17 
ROOT
HETATM    1  C1  UNL     1      29.978   5.583  48.043  1.00  0.00     0.011 C 
HETATM    2  C2  UNL     1      28.555   5.287  48.418  1.00  0.00     0.001 A 
HETATM    3  C3  UNL     1      28.050   6.506  48.150  1.00  0.00    -0.003 A 
HETATM    4  C4  UNL     1      27.118   5.543  48.632  1.00  0.00     0.137 A 
HETATM    5  C5  UNL     1      26.181   4.678  49.088  1.00  0.00     0.134 C 
HETATM    6  F1  UNL     1      26.958   3.530  49.279  1.00  0.00    -0.241 F 
HETATM    7  C6  UNL     1      24.790   4.388  49.301  1.00  0.00     0.078 C 
HETATM    8  C15 UNL     1      23.879   5.221  48.922  1.00  0.00     0.019 C 
HETATM    9  C16 UNL     1      24.320   6.420  48.283  1.00  0.00     0.061 C 
HETATM   10  C17 UNL     1      24.401   7.530  47.681  1.00  0.00     0.065 C 
HETATM   11  N2  UNL     1      25.913   7.646  47.726  1.00  0.00    -0.401 N 
HETATM   12  C18 UNL     1      27.320   7.733  47.879  1.00  0.00     0.130 C 
HETATM   13  H27 UNL     1      25.870   7.813  46.662  1.00  0.00     0.158 HD
ENDROOT
BRANCH   7  14
HETATM   14  O1  UNL     1      24.567   3.204  49.913  1.00  0.00    -0.353 OA
BRANCH  14  15
HETATM   15  C7  UNL     1      23.287   2.781  50.313  1.00  0.00     0.175 C 
BRANCH  15  16
HETATM   16  C8  UNL     1      23.443   1.946  51.586  1.00  0.00     0.027 C 
BRANCH  16  17
HETATM   17  C9  UNL     1      24.286   2.691  52.587  1.00  0.00     0.002 C 
BRANCH  17  18
HETATM   18  C10 UNL     1      25.481   1.978  53.078  1.00  0.00     0.000 C 
BRANCH  18  19
HETATM   19  C11 UNL     1      26.125   0.998  52.156  1.00  0.00     0.004 C 
BRANCH  19  20
HETATM   20  C12 UNL     1      26.258  -0.360  52.847  1.00  0.00     0.063 C 
BRANCH  20  21
HETATM   21  C13 UNL     1      26.552  -0.195  54.332  1.00  0.00     0.353 C 
BRANCH  21  22
HETATM   22  N1  UNL     1      25.653  -0.945  55.179  1.00  0.00     0.107 N 
HETATM   23  H19 UNL     1      25.056  -0.310  55.748  1.00  0.00     0.316 HD
HETATM   24  H20 UNL     1      25.091  -1.652  54.669  1.00  0.00     0.316 HD
ENDBRANCH  21  22
BRANCH  21  25
HETATM   25  O2  UNL     1      27.846  -0.689  54.528  1.00  0.00    -0.362 OA
HETATM   26  C14 UNL     1      28.655   0.404  54.753  1.00  0.00     0.204 C 
ENDBRANCH  21  25
ENDBRANCH  20  21
ENDBRANCH  19  20
ENDBRANCH  18  19
ENDBRANCH  17  18
ENDBRANCH  16  17
ENDBRANCH  15  16
ENDBRANCH  14  15
ENDBRANCH   7  14
TORSDOF 10
ENDMDL
MODEL 3
REMARK VINA RESULT:      -6.4      2.165      3.401
REMARK  10 active torsions:
REMARK  status: ('A' for Active; 'I' for Inactive)
REMARK    1  A    between atoms: C6_7  and  O1_8 
REMARK    2  A    between atoms: O1_8  and  C7_9 
REMARK    3  A    between atoms: C7_9  and  C8_10 
REMARK    4  A    between atoms: C8_10  and  C9_11 
REMARK    5  A    between atoms: C9_11  and  C10_12 
REMARK    6  A    between atoms: C10_12  and  C11_13 
REMARK    7  A    between atoms: C11_13  and  C12_14 
REMARK    8  A    between atoms: C12_14  and  C13_15 
REMARK    9  A    between atoms: C13_15  and  N1_16 
REMARK   10  A    between atoms: C13_15  and  O2_17 
ROOT
HETATM    1  C1  UNL     1      17.046   0.045  50.304  1.00  0.00     0.011 C 
HETATM    2  C2  UNL     1      18.463   0.208  50.770  1.00  0.00     0.001 A 
HETATM    3  C3  UNL     1      18.310  -0.354  51.984  1.00  0.00    -0.003 A 
HETATM    4  C4  UNL     1      19.620   0.116  51.680  1.00  0.00     0.137 A 
HETATM    5  C5  UNL     1      20.886   0.542  51.457  1.00  0.00     0.134 C 
HETATM    6  F1  UNL     1      20.761   1.066  50.166  1.00  0.00    -0.241 F 
HETATM    7  C6  UNL     1      22.260   0.553  51.876  1.00  0.00     0.078 C 
HETATM    8  C15 UNL     1      22.638  -0.122  52.910  1.00  0.00     0.019 C 
HETATM    9  C16 UNL     1      21.635  -0.871  53.599  1.00  0.00     0.061 C 
HETATM   10  C17 UNL     1      20.995  -1.634  54.379  1.00  0.00     0.065 C 
HETATM   11  N2  UNL     1      19.615  -1.343  53.818  1.00  0.00    -0.401 N 
HETATM   12  C18 UNL     1      18.351  -0.961  53.304  1.00  0.00     0.130 C 
HETATM   13  H27 UNL     1      19.495  -2.410  53.729  1.00  0.00     0.158 HD
ENDROOT
BRANCH   7  14
HETATM   14  O1  UNL     1      23.061   1.313  51.098  1.00  0.00    -0.353 OA
BRANCH  14  15
HETATM   15  C7  UNL     1      23.342   2.661  51.379  1.00  0.00     0.175 C 
BRANCH  15  16
HETATM   16  C8  UNL     1      24.603   2.709  52.247  1.00  0.00     0.027 C 
BRANCH  16  17
HETATM   17  C9  UNL     1      25.812   2.379  51.413  1.00  0.00     0.002 C 
BRANCH  17  18
HETATM   18  C10 UNL     1      26.544   1.157  51.798  1.00  0.00     0.000 C 
BRANCH  18  19
HETATM   19  C11 UNL     1      26.116   0.463  53.048  1.00  0.00     0.004 C 
BRANCH  19  20
HETATM   20  C12 UNL     1      27.002   0.900  54.217  1.00  0.00     0.063 C 
BRANCH  20  21
HETATM   21  C13 UNL     1      28.477   0.711  53.890  1.00  0.00     0.353 C 
BRANCH  21  22
HETATM   22  N1  UNL     1      29.328   1.710  54.494  1.00  0.00     0.107 N 
HETATM   23  H19 UNL     1      29.345   1.612  55.530  1.00  0.00     0.316 HD
HETATM   24  H20 UNL     1      30.283   1.744  54.091  1.00  0.00     0.316 HD
ENDBRANCH  21  22
BRANCH  21  25
HETATM   25  O2  UNL     1      28.832  -0.536  54.414  1.00  0.00    -0.362 OA
HETATM   26  C14 UNL     1      29.917  -0.975  53.685  1.00  0.00     0.204 C 
ENDBRANCH  21  25
ENDBRANCH  20  21
ENDBRANCH  19  20
ENDBRANCH  18  19
ENDBRANCH  17  18
ENDBRANCH  16  17
ENDBRANCH  15  16
ENDBRANCH  14  15
ENDBRANCH   7  14
TORSDOF 10
ENDMDL
MODEL 4
REMARK VINA RESULT:      -6.4      3.269      5.809
REMARK  10 active torsions:
REMARK  status: ('A' for Active; 'I' for Inactive)
REMARK    1  A    between atoms: C6_7  and  O1_8 
REMARK    2  A    between atoms: O1_8  and  C7_9 
REMARK    3  A    between atoms: C7_9  and  C8_10 
REMARK    4  A    between atoms: C8_10  and  C9_11 
REMARK    5  A    between atoms: C9_11  and  C10_12 
REMARK    6  A    between atoms: C10_12  and  C11_13 
REMARK    7  A    between atoms: C11_13  and  C12_14 
REMARK    8  A    between atoms: C12_14  and  C13_15 
REMARK    9  A    between atoms: C13_15  and  N1_16 
REMARK   10  A    between atoms: C13_15  and  O2_17 
ROOT
HETATM    1  C1  UNL     1      29.251   5.468  48.214  1.00  0.00     0.011 C 
HETATM    2  C2  UNL     1      27.892   5.011  48.660  1.00  0.00     0.001 A 
HETATM    3  C3  UNL     1      27.227   6.145  48.370  1.00  0.00    -0.003 A 
HETATM    4  C4  UNL     1      26.444   5.093  48.925  1.00  0.00     0.137 A 
HETATM    5  C5  UNL     1      25.642   4.136  49.450  1.00  0.00     0.134 C 
HETATM    6  F1  UNL     1      26.564   3.104  49.649  1.00  0.00    -0.241 F 
HETATM    7  C6  UNL     1      24.308   3.684  49.732  1.00  0.00     0.078 C 
HETATM    8  C15 UNL     1      23.285   4.379  49.362  1.00  0.00     0.019 C 
HETATM    9  C16 UNL     1      23.546   5.598  48.664  1.00  0.00     0.061 C 
HETATM   10  C17 UNL     1      23.463   6.684  48.019  1.00  0.00     0.065 C 
HETATM   11  N2  UNL     1      24.949   6.991  47.996  1.00  0.00    -0.401 N 
HETATM   12  C18 UNL     1      26.337   7.260  48.087  1.00  0.00     0.130 C 
HETATM   13  H27 UNL     1      24.844   7.108  46.930  1.00  0.00     0.158 HD
ENDROOT
BRANCH   7  14
HETATM   14  O1  UNL     1      24.260   2.507  50.394  1.00  0.00    -0.353 OA
BRANCH  14  15
HETATM   15  C7  UNL     1      23.055   1.839  50.676  1.00  0.00     0.175 C 
BRANCH  15  16
HETATM   16  C8  UNL     1      22.935   1.705  52.197  1.00  0.00     0.027 C 
BRANCH  16  17
HETATM   17  C9  UNL     1      24.245   1.241  52.775  1.00  0.00     0.002 C 
BRANCH  17  18
HETATM   18  C10 UNL     1      24.290  -0.166  53.218  1.00  0.00     0.000 C 
BRANCH  18  19
HETATM   19  C11 UNL     1      25.586  -0.681  53.746  1.00  0.00     0.004 C 
BRANCH  19  20
HETATM   20  C12 UNL     1      26.711  -0.381  52.752  1.00  0.00     0.063 C 
BRANCH  20  21
HETATM   21  C13 UNL     1      27.935   0.182  53.462  1.00  0.00     0.353 C 
BRANCH  21  22
HETATM   22  N1  UNL     1      27.621   1.265  54.366  1.00  0.00     0.107 N 
HETATM   23  H19 UNL     1      27.614   2.180  53.869  1.00  0.00     0.316 HD
HETATM   24  H20 UNL     1      26.753   1.114  54.914  1.00  0.00     0.316 HD
ENDBRANCH  21  22
BRANCH  21  25
HETATM   25  O2  UNL     1      28.465  -0.871  54.214  1.00  0.00    -0.362 OA
HETATM   26  C14 UNL     1      29.556  -1.343  53.515  1.00  0.00     0.204 C 
ENDBRANCH  21  25
ENDBRANCH  20  21
ENDBRANCH  19  20
ENDBRANCH  18  19
ENDBRANCH  17  18
ENDBRANCH  16  17
ENDBRANCH  15  16
ENDBRANCH  14  15
ENDBRANCH   7  14
TORSDOF 10
ENDMDL
MODEL 5
REMARK VINA RESULT:      -6.3      1.666      2.105
REMARK  10 active torsions:
REMARK  status: ('A' for Active; 'I' for Inactive)
REMARK    1  A    between atoms: C6_7  and  O1_8 
REMARK    2  A    between atoms: O1_8  and  C7_9 
REMARK    3  A    between atoms: C7_9  and  C8_10 
REMARK    4  A    between atoms: C8_10  and  C9_11 
REMARK    5  A    between atoms: C9_11  and  C10_12 
REMARK    6  A    between atoms: C10_12  and  C11_13 
REMARK    7  A    between atoms: C11_13  and  C12_14 
REMARK    8  A    between atoms: C12_14  and  C13_15 
REMARK    9  A    between atoms: C13_15  and  N1_16 
REMARK   10  A    between atoms: C13_15  and  O2_17 
ROOT
HETATM    1  C1  UNL     1      23.667  -1.374  55.575  1.00  0.00     0.011 C 
HETATM    2  C2  UNL     1      23.186  -0.743  54.301  1.00  0.00     0.001 A 
HETATM    3  C3  UNL     1      21.927  -1.216  54.339  1.00  0.00    -0.003 A 
HETATM    4  C4  UNL     1      22.246  -0.399  53.218  1.00  0.00     0.137 A 
HETATM    5  C5  UNL     1      22.483   0.368  52.127  1.00  0.00     0.134 C 
HETATM    6  F1  UNL     1      23.822   0.713  52.337  1.00  0.00    -0.241 F 
HETATM    7  C6  UNL     1      21.952   1.071  50.992  1.00  0.00     0.078 C 
HETATM    8  C15 UNL     1      20.678   1.111  50.780  1.00  0.00     0.019 C 
HETATM    9  C16 UNL     1      19.842   0.435  51.720  1.00  0.00     0.061 C 
HETATM   10  C17 UNL     1      18.870  -0.037  52.379  1.00  0.00     0.065 C 
HETATM   11  N2  UNL     1      19.698  -0.819  53.381  1.00  0.00    -0.401 N 
HETATM   12  C18 UNL     1      20.527  -1.594  54.230  1.00  0.00     0.130 C 
HETATM   13  H27 UNL     1      19.128  -0.319  54.147  1.00  0.00     0.158 HD
ENDROOT
BRANCH   7  14
HETATM   14  O1  UNL     1      22.895   1.653  50.221  1.00  0.00    -0.353 OA
BRANCH  14  15
HETATM   15  C7  UNL     1      23.174   3.031  50.265  1.00  0.00     0.175 C 
BRANCH  15  16
HETATM   16  C8  UNL     1      24.335   3.308  49.306  1.00  0.00     0.027 C 
BRANCH  16  17
HETATM   17  C9  UNL     1      25.568   3.675  50.089  1.00  0.00     0.002 C 
BRANCH  17  18
HETATM   18  C10 UNL     1      26.403   2.545  50.539  1.00  0.00     0.000 C 
BRANCH  18  19
HETATM   19  C11 UNL     1      26.620   2.391  52.007  1.00  0.00     0.004 C 
BRANCH  19  20
HETATM   20  C12 UNL     1      27.095   0.970  52.319  1.00  0.00     0.063 C 
BRANCH  20  21
HETATM   21  C13 UNL     1      26.880   0.629  53.787  1.00  0.00     0.353 C 
BRANCH  21  22
HETATM   22  N1  UNL     1      26.905  -0.791  54.053  1.00  0.00     0.107 N 
HETATM   23  H19 UNL     1      26.658  -0.992  55.044  1.00  0.00     0.316 HD
HETATM   24  H20 UNL     1      26.337  -1.350  53.389  1.00  0.00     0.316 HD
ENDBRANCH  21  22
BRANCH  21  25
HETATM   25  O2  UNL     1      27.941   1.220  54.481  1.00  0.00    -0.362 OA
HETATM   26  C14 UNL     1      28.782   0.195  54.861  1.00  0.00     0.204 C 
ENDBRANCH  21  25
ENDBRANCH  20  21
ENDBRANCH  19  20
ENDBRANCH  18  19
ENDBRANCH  17  18
ENDBRANCH  16  17
ENDBRANCH  15  16
ENDBRANCH  14  15
ENDBRANCH   7  14
TORSDOF 10
ENDMDL
MODEL 6
REMARK VINA RESULT:      -6.3      4.437      6.421
REMARK  10 active torsions:
REMARK  status: ('A' for Active; 'I' for Inactive)
REMARK    1  A    between atoms: C6_7  and  O1_8 
REMARK    2  A    between atoms: O1_8  and  C7_9 
REMARK    3  A    between atoms: C7_9  and  C8_10 
REMARK    4  A    between atoms: C8_10  and  C9_11 
REMARK    5  A    between atoms: C9_11  and  C10_12 
REMARK    6  A    between atoms: C10_12  and  C11_13 
REMARK    7  A    between atoms: C11_13  and  C12_14 
REMARK    8  A    between atoms: C12_14  and  C13_15 
REMARK    9  A    between atoms: C13_15  and  N1_16 
REMARK   10  A    between atoms: C13_15  and  O2_17 
ROOT
HETATM    1  C1  UNL     1      21.936  -1.145  53.598  1.00  0.00     0.011 C 
HETATM    2  C2  UNL     1      23.051  -0.246  53.148  1.00  0.00     0.001 A 
HETATM    3  C3  UNL     1      23.948  -0.602  54.086  1.00  0.00    -0.003 A 
HETATM    4  C4  UNL     1      24.385   0.382  53.155  1.00  0.00     0.137 A 
HETATM    5  C5  UNL     1      24.864   1.320  52.304  1.00  0.00     0.134 C 
HETATM    6  F1  UNL     1      23.760   1.497  51.464  1.00  0.00    -0.241 F 
HETATM    7  C6  UNL     1      25.995   2.060  51.815  1.00  0.00     0.078 C 
HETATM    8  C15 UNL     1      27.179   1.831  52.276  1.00  0.00     0.019 C 
HETATM    9  C16 UNL     1      27.303   0.818  53.276  1.00  0.00     0.061 C 
HETATM   10  C17 UNL     1      27.721  -0.018  54.128  1.00  0.00     0.065 C 
HETATM   11  N2  UNL     1      26.358  -0.523  54.564  1.00  0.00    -0.401 N 
HETATM   12  C18 UNL     1      25.055  -0.887  54.985  1.00  0.00     0.130 C 
HETATM   13  H27 UNL     1      26.734  -1.515  54.372  1.00  0.00     0.158 HD
ENDROOT
BRANCH   7  14
HETATM   14  O1  UNL     1      25.682   2.970  50.867  1.00  0.00    -0.353 OA
BRANCH  14  15
HETATM   15  C7  UNL     1      26.451   3.155  49.704  1.00  0.00     0.175 C 
BRANCH  15  16
HETATM   16  C8  UNL     1      26.309   4.616  49.272  1.00  0.00     0.027 C 
BRANCH  16  17
HETATM   17  C9  UNL     1      27.583   5.083  48.619  1.00  0.00     0.002 C 
BRANCH  17  18
HETATM   18  C10 UNL     1      27.596   6.487  48.165  1.00  0.00     0.000 C 
BRANCH  18  19
HETATM   19  C11 UNL     1      28.802   6.961  47.426  1.00  0.00     0.004 C 
BRANCH  19  20
HETATM   20  C12 UNL     1      30.052   6.767  48.288  1.00  0.00     0.063 C 
BRANCH  20  21
HETATM   21  C13 UNL     1      31.007   5.765  47.653  1.00  0.00     0.353 C 
BRANCH  21  22
HETATM   22  N1  UNL     1      32.113   6.389  46.964  1.00  0.00     0.107 N 
HETATM   23  H19 UNL     1      31.911   7.389  46.758  1.00  0.00     0.316 HD
HETATM   24  H20 UNL     1      33.025   6.268  47.442  1.00  0.00     0.316 HD
ENDBRANCH  21  22
BRANCH  21  25
HETATM   25  O2  UNL     1      31.525   5.004  48.707  1.00  0.00    -0.362 OA
HETATM   26  C14 UNL     1      32.123   5.891  49.577  1.00  0.00     0.204 C 
ENDBRANCH  21  25
ENDBRANCH  20  21
ENDBRANCH  19  20
ENDBRANCH  18  19
ENDBRANCH  17  18
ENDBRANCH  16  17
ENDBRANCH  15  16
ENDBRANCH  14  15
ENDBRANCH   7  14
TORSDOF 10
ENDMDL
MODEL 7
REMARK VINA RESULT:      -6.2      4.387      6.309
REMARK  10 active torsions:
REMARK  status: ('A' for Active; 'I' for Inactive)
REMARK    1  A    between atoms: C6_7  and  O1_8 
REMARK    2  A    between atoms: O1_8  and  C7_9 
REMARK    3  A    between atoms: C7_9  and  C8_10 
REMARK    4  A    between atoms: C8_10  and  C9_11 
REMARK    5  A    between atoms: C9_11  and  C10_12 
REMARK    6  A    between atoms: C10_12  and  C11_13 
REMARK    7  A    between atoms: C11_13  and  C12_14 
REMARK    8  A    between atoms: C12_14  and  C13_15 
REMARK    9  A    between atoms: C13_15  and  N1_16 
REMARK   10  A    between atoms: C13_15  and  O2_17 
ROOT
HETATM    1  C1  UNL     1      29.239  -0.218  53.675  1.00  0.00     0.011 C 
HETATM    2  C2  UNL     1      28.121   0.563  53.049  1.00  0.00     0.001 A 
HETATM    3  C3  UNL     1      27.147  -0.346  53.243  1.00  0.00    -0.003 A 
HETATM    4  C4  UNL     1      26.751   0.854  52.588  1.00  0.00     0.137 A 
HETATM    5  C5  UNL     1      26.307   1.969  51.960  1.00  0.00     0.134 C 
HETATM    6  F1  UNL     1      27.488   2.716  51.890  1.00  0.00    -0.241 F 
HETATM    7  C6  UNL     1      25.190   2.746  51.498  1.00  0.00     0.078 C 
HETATM    8  C15 UNL     1      23.980   2.356  51.724  1.00  0.00     0.019 C 
HETATM    9  C16 UNL     1      23.815   1.136  52.450  1.00  0.00     0.061 C 
HETATM   10  C17 UNL     1      23.363   0.133  53.075  1.00  0.00     0.065 C 
HETATM   11  N2  UNL     1      24.698  -0.551  53.300  1.00  0.00    -0.401 N 
HETATM   12  C18 UNL     1      25.965  -1.178  53.400  1.00  0.00     0.130 C 
HETATM   13  H27 UNL     1      24.426  -0.600  54.342  1.00  0.00     0.158 HD
ENDROOT
BRANCH   7  14
HETATM   14  O1  UNL     1      25.543   3.870  50.838  1.00  0.00    -0.353 OA
BRANCH  14  15
HETATM   15  C7  UNL     1      25.677   3.923  49.439  1.00  0.00     0.175 C 
BRANCH  15  16
HETATM   16  C8  UNL     1      26.068   5.353  49.057  1.00  0.00     0.027 C 
BRANCH  16  17
HETATM   17  C9  UNL     1      27.483   5.376  48.540  1.00  0.00     0.002 C 
BRANCH  17  18
HETATM   18  C10 UNL     1      27.992   6.696  48.122  1.00  0.00     0.000 C 
BRANCH  18  19
HETATM   19  C11 UNL     1      29.373   6.755  47.560  1.00  0.00     0.004 C 
BRANCH  19  20
HETATM   20  C12 UNL     1      30.249   5.683  48.213  1.00  0.00     0.063 C 
BRANCH  20  21
HETATM   21  C13 UNL     1      31.439   6.308  48.929  1.00  0.00     0.353 C 
BRANCH  21  22
HETATM   22  N1  UNL     1      31.660   5.765  50.250  1.00  0.00     0.107 N 
HETATM   23  H19 UNL     1      32.226   4.892  50.207  1.00  0.00     0.316 HD
HETATM   24  H20 UNL     1      32.051   6.450  50.923  1.00  0.00     0.316 HD
ENDBRANCH  21  22
BRANCH  21  25
HETATM   25  O2  UNL     1      32.560   6.013  48.145  1.00  0.00    -0.362 OA
HETATM   26  C14 UNL     1      32.691   4.640  48.147  1.00  0.00     0.204 C 
ENDBRANCH  21  25
ENDBRANCH  20  21
ENDBRANCH  19  20
ENDBRANCH  18  19
ENDBRANCH  17  18
ENDBRANCH  16  17
ENDBRANCH  15  16
ENDBRANCH  14  15
ENDBRANCH   7  14
TORSDOF 10
ENDMDL
MODEL 8
REMARK VINA RESULT:      -6.1      2.302      4.764
REMARK  10 active torsions:
REMARK  status: ('A' for Active; 'I' for Inactive)
REMARK    1  A    between atoms: C6_7  and  O1_8 
REMARK    2  A    between atoms: O1_8  and  C7_9 
REMARK    3  A    between atoms: C7_9  and  C8_10 
REMARK    4  A    between atoms: C8_10  and  C9_11 
REMARK    5  A    between atoms: C9_11  and  C10_12 
REMARK    6  A    between atoms: C10_12  and  C11_13 
REMARK    7  A    between atoms: C11_13  and  C12_14 
REMARK    8  A    between atoms: C12_14  and  C13_15 
REMARK    9  A    between atoms: C13_15  and  N1_16 
REMARK   10  A    between atoms: C13_15  and  O2_17 
ROOT
HETATM    1  C1  UNL     1      27.175   4.349  48.963  1.00  0.00     0.011 C 
HETATM    2  C2  UNL     1      25.991   4.103  49.854  1.00  0.00     0.001 A 
HETATM    3  C3  UNL     1      25.530   5.367  49.880  1.00  0.00    -0.003 A 
HETATM    4  C4  UNL     1      24.781   4.420  50.634  1.00  0.00     0.137 A 
HETATM    5  C5  UNL     1      24.025   3.573  51.371  1.00  0.00     0.134 C 
HETATM    6  F1  UNL     1      24.711   2.371  51.172  1.00  0.00    -0.241 F 
HETATM    7  C6  UNL     1      22.808   3.345  52.101  1.00  0.00     0.078 C 
HETATM    8  C15 UNL     1      21.897   4.258  52.163  1.00  0.00     0.019 C 
HETATM    9  C16 UNL     1      22.157   5.482  51.473  1.00  0.00     0.061 C 
HETATM   10  C17 UNL     1      22.092   6.634  50.954  1.00  0.00     0.065 C 
HETATM   11  N2  UNL     1      23.506   6.660  50.403  1.00  0.00    -0.401 N 
HETATM   12  C18 UNL     1      24.862   6.654  49.992  1.00  0.00     0.130 C 
HETATM   13  H27 UNL     1      23.065   6.923  49.455  1.00  0.00     0.158 HD
ENDROOT
BRANCH   7  14
HETATM   14  O1  UNL     1      22.739   2.127  52.680  1.00  0.00    -0.353 OA
BRANCH  14  15
HETATM   15  C7  UNL     1      21.636   1.269  52.525  1.00  0.00     0.175 C 
BRANCH  15  16
HETATM   16  C8  UNL     1      21.979  -0.066  53.191  1.00  0.00     0.027 C 
BRANCH  16  17
HETATM   17  C9  UNL     1      23.463  -0.310  53.115  1.00  0.00     0.002 C 
BRANCH  17  18
HETATM   18  C10 UNL     1      24.098  -0.796  54.355  1.00  0.00     0.000 C 
BRANCH  18  19
HETATM   19  C11 UNL     1      25.477  -0.312  54.658  1.00  0.00     0.004 C 
BRANCH  19  20
HETATM   20  C12 UNL     1      25.780   0.945  53.841  1.00  0.00     0.063 C 
BRANCH  20  21
HETATM   21  C13 UNL     1      27.274   1.237  53.817  1.00  0.00     0.353 C 
BRANCH  21  22
HETATM   22  N1  UNL     1      27.582   2.644  53.928  1.00  0.00     0.107 N 
HETATM   23  H19 UNL     1      26.952   3.215  53.327  1.00  0.00     0.316 HD
HETATM   24  H20 UNL     1      27.607   2.991  54.905  1.00  0.00     0.316 HD
ENDBRANCH  21  22
BRANCH  21  25
HETATM   25  O2  UNL     1      27.814   0.586  54.931  1.00  0.00    -0.362 OA
HETATM   26  C14 UNL     1      29.039   0.087  54.541  1.00  0.00     0.204 C 
ENDBRANCH  21  25
ENDBRANCH  20  21
ENDBRANCH  19  20
ENDBRANCH  18  19
ENDBRANCH  17  18
ENDBRANCH  16  17
ENDBRANCH  15  16
ENDBRANCH  14  15
ENDBRANCH   7  14
TORSDOF 10
ENDMDL
MODEL 9
REMARK VINA RESULT:      -5.8      2.975      7.818
REMARK  10 active torsions:
REMARK  status: ('A' for Active; 'I' for Inactive)
REMARK    1  A    between atoms: C6_7  and  O1_8 
REMARK    2  A    between atoms: O1_8  and  C7_9 
REMARK    3  A    between atoms: C7_9  and  C8_10 
REMARK    4  A    between atoms: C8_10  and  C9_11 
REMARK    5  A    between atoms: C9_11  and  C10_12 
REMARK    6  A    between atoms: C10_12  and  C11_13 
REMARK    7  A    between atoms: C11_13  and  C12_14 
REMARK    8  A    between atoms: C12_14  and  C13_15 
REMARK    9  A    between atoms: C13_15  and  N1_16 
REMARK   10  A    between atoms: C13_15  and  O2_17 
ROOT
HETATM    1  C1  UNL     1      24.718   3.507  50.054  1.00  0.00     0.011 C 
HETATM    2  C2  UNL     1      24.538   2.387  51.038  1.00  0.00     0.001 A 
HETATM    3  C3  UNL     1      25.824   2.286  51.420  1.00  0.00    -0.003 A 
HETATM    4  C4  UNL     1      24.921   1.378  52.043  1.00  0.00     0.137 A 
HETATM    5  C5  UNL     1      24.117   0.488  52.670  1.00  0.00     0.134 C 
HETATM    6  F1  UNL     1      22.880   0.806  52.101  1.00  0.00    -0.241 F 
HETATM    7  C6  UNL     1      23.957  -0.482  53.719  1.00  0.00     0.078 C 
HETATM    8  C15 UNL     1      24.916  -0.717  54.550  1.00  0.00     0.019 C 
HETATM    9  C16 UNL     1      26.122   0.030  54.379  1.00  0.00     0.061 C 
HETATM   10  C17 UNL     1      27.273   0.542  54.492  1.00  0.00     0.065 C 
HETATM   11  N2  UNL     1      27.223   1.374  53.224  1.00  0.00    -0.401 N 
HETATM   12  C18 UNL     1      27.144   2.057  51.985  1.00  0.00     0.130 C 
HETATM   13  H27 UNL     1      27.504   2.213  53.839  1.00  0.00     0.158 HD
ENDROOT
BRANCH   7  14
HETATM   14  O1  UNL     1      22.746  -1.081  53.726  1.00  0.00    -0.353 OA
BRANCH  14  15
HETATM   15  C7  UNL     1      21.844  -0.966  54.799  1.00  0.00     0.175 C 
BRANCH  15  16
HETATM   16  C8  UNL     1      20.754   0.029  54.394  1.00  0.00     0.027 C 
BRANCH  16  17
HETATM   17  C9  UNL     1      19.777  -0.633  53.459  1.00  0.00     0.002 C 
BRANCH  17  18
HETATM   18  C10 UNL     1      19.608   0.013  52.143  1.00  0.00     0.000 C 
BRANCH  18  19
HETATM   19  C11 UNL     1      18.215   0.281  51.681  1.00  0.00     0.004 C 
BRANCH  19  20
HETATM   20  C12 UNL     1      17.231  -0.604  52.450  1.00  0.00     0.063 C 
BRANCH  20  21
HETATM   21  C13 UNL     1      15.792  -0.187  52.180  1.00  0.00     0.353 C 
BRANCH  21  22
HETATM   22  N1  UNL     1      14.915  -0.398  53.310  1.00  0.00     0.107 N 
HETATM   23  H19 UNL     1      15.158   0.237  54.097  1.00  0.00     0.316 HD
HETATM   24  H20 UNL     1      13.907  -0.353  53.070  1.00  0.00     0.316 HD
ENDBRANCH  21  22
BRANCH  21  25
HETATM   25  O2  UNL     1      15.830   1.185  51.912  1.00  0.00    -0.362 OA
HETATM   26  C14 UNL     1      14.785   1.753  52.609  1.00  0.00     0.204 C 
ENDBRANCH  21  25
ENDBRANCH  20  21
ENDBRANCH  19  20
ENDBRANCH  18  19
ENDBRANCH  17  18
ENDBRANCH  16  17
ENDBRANCH  15  16
ENDBRANCH  14  15
ENDBRANCH   7  14
TORSDOF 10
ENDMDL
