MODEL 1
REMARK VINA RESULT:      -7.4      0.000      0.000
REMARK  9 active torsions:
REMARK  status: ('A' for Active; 'I' for Inactive)
REMARK    1  A    between atoms: C2_2  and  C3_3 
REMARK    2  A    between atoms: C6_6  and  S1_7 
REMARK    3  A    between atoms: S1_7  and  N1_10 
REMARK    4  A    between atoms: N1_10  and  C7_11 
REMARK    5  A    between atoms: C11_15  and  C12_16 
REMARK    6  A    between atoms: C12_16  and  O3_17 
REMARK    7  A    between atoms: O3_17  and  C13_18 
REMARK    8  A    between atoms: C13_18  and  C14_19 
REMARK    9  A    between atoms: C14_19  and  N2_20 
ROOT
HETATM    1  C3  UNL     1      19.600   1.608  50.428  1.00  0.00     0.028 C 
HETATM    2  C4  UNL     1      20.336   1.585  51.498  1.00  0.00     0.029 C 
HETATM    3  C5  UNL     1      21.366   2.646  51.618  1.00  0.00     0.055 C 
HETATM    4  C6  UNL     1      22.583   2.625  52.209  1.00  0.00     0.090 C 
HETATM    5  C11 UNL     1      23.154   1.473  52.897  1.00  0.00    -0.008 C 
HETATM    6  C19 UNL     1      22.457   0.499  53.514  1.00  0.00    -0.056 C 
HETATM    7  C20 UNL     1      23.333  -0.560  54.137  1.00  0.00     0.046 C 
HETATM    8  C21 UNL     1      21.014   0.286  53.674  1.00  0.00     0.154 C 
HETATM    9  N3  UNL     1      20.207   0.622  52.538  1.00  0.00    -0.386 N 
HETATM   10  H35 UNL     1      19.323   0.051  52.421  1.00  0.00     0.160 HD
ENDROOT
BRANCH   4  11
HETATM   11  S1  UNL     1      23.458   4.125  52.104  1.00  0.00     0.260 S 
HETATM   12  O1  UNL     1      23.804   4.483  53.559  1.00  0.00    -0.200 OA
HETATM   13  O2  UNL     1      22.720   5.304  51.624  1.00  0.00    -0.200 OA
BRANCH  11  14
HETATM   14  N1  UNL     1      24.944   4.042  51.318  1.00  0.00    -0.307 N 
HETATM   15  H6  UNL     1      25.625   3.372  51.724  1.00  0.00     0.173 HD
BRANCH  14  16
HETATM   16  C7  UNL     1      25.065   4.102  49.933  1.00  0.00     0.029 C 
HETATM   17  C8  UNL     1      24.063   3.262  49.179  1.00  0.00     0.038 C 
HETATM   18  C9  UNL     1      26.451   3.487  49.605  1.00  0.00     0.038 C 
HETATM   19  C10 UNL     1      25.122   5.458  49.297  1.00  0.00     0.038 C 
ENDBRANCH  14  16
ENDBRANCH  11  14
ENDBRANCH   4  11
BRANCH   5  20
HETATM   20  C12 UNL     1      24.625   1.441  52.871  1.00  0.00     0.208 C 
BRANCH  20  21
HETATM   21  O3  UNL     1      25.191   0.953  51.714  1.00  0.00    -0.385 OA
BRANCH  21  22
HETATM   22  C13 UNL     1      26.500   0.600  51.889  1.00  0.00     0.198 C 
BRANCH  22  23
HETATM   23  C14 UNL     1      27.229   1.220  53.027  1.00  0.00     0.298 C 
BRANCH  23  24
HETATM   24  N2  UNL     1      27.943   0.202  53.829  1.00  0.00     0.090 N 
HETATM   25  C15 UNL     1      27.751  -1.112  53.246  1.00  0.00     0.272 C 
HETATM   26  C16 UNL     1      29.099  -1.769  53.139  1.00  0.00     0.032 C 
HETATM   27  C17 UNL     1      30.081  -0.817  53.808  1.00  0.00     0.032 C 
HETATM   28  C18 UNL     1      29.368   0.500  53.614  1.00  0.00     0.272 C 
ENDBRANCH  23  24
ENDBRANCH  22  23
ENDBRANCH  21  22
ENDBRANCH  20  21
ENDBRANCH   5  20
BRANCH   1  29
HETATM   29  C2  UNL     1      18.549   0.639  50.161  1.00  0.00    -0.008 C 
HETATM   30  C1  UNL     1      17.345   1.072  49.840  1.00  0.00     0.011 C 
ENDBRANCH   1  29
TORSDOF 9
ENDMDL
MODEL 2
REMARK VINA RESULT:      -7.1      2.364      2.808
REMARK  9 active torsions:
REMARK  status: ('A' for Active; 'I' for Inactive)
REMARK    1  A    between atoms: C2_2  and  C3_3 
REMARK    2  A    between atoms: C6_6  and  S1_7 
REMARK    3  A    between atoms: S1_7  and  N1_10 
REMARK    4  A    between atoms: N1_10  and  C7_11 
REMARK    5  A    between atoms: C11_15  and  C12_16 
REMARK    6  A    between atoms: C12_16  and  O3_17 
REMARK    7  A    between atoms: O3_17  and  C13_18 
REMARK    8  A    between atoms: C13_18  and  C14_19 
REMARK    9  A    between atoms: C14_19  and  N2_20 
ROOT
HETATM    1  C3  UNL     1      18.519  -1.227  53.151  1.00  0.00     0.028 C 
HETATM    2  C4  UNL     1      19.615  -0.628  53.506  1.00  0.00     0.029 C 
HETATM    3  C5  UNL     1      19.920   0.655  52.826  1.00  0.00     0.055 C 
HETATM    4  C6  UNL     1      21.108   1.220  52.509  1.00  0.00     0.090 C 
HETATM    5  C11 UNL     1      22.412   0.635  52.801  1.00  0.00    -0.008 C 
HETATM    6  C19 UNL     1      22.690  -0.197  53.824  1.00  0.00    -0.056 C 
HETATM    7  C20 UNL     1      24.135  -0.633  53.862  1.00  0.00     0.046 C 
HETATM    8  C21 UNL     1      21.843  -0.754  54.885  1.00  0.00     0.154 C 
HETATM    9  N3  UNL     1      20.516  -1.124  54.490  1.00  0.00    -0.386 N 
HETATM   10  H35 UNL     1      20.089  -1.932  55.024  1.00  0.00     0.160 HD
ENDROOT
BRANCH   4  11
HETATM   11  S1  UNL     1      20.981   2.758  51.707  1.00  0.00     0.260 S 
HETATM   12  O1  UNL     1      19.718   3.408  52.297  1.00  0.00    -0.200 OA
HETATM   13  O2  UNL     1      20.719   2.744  50.260  1.00  0.00    -0.200 OA
BRANCH  11  14
HETATM   14  N1  UNL     1      22.218   3.851  52.037  1.00  0.00    -0.307 N 
HETATM   15  H6  UNL     1      23.076   3.440  52.452  1.00  0.00     0.173 HD
BRANCH  14  16
HETATM   16  C7  UNL     1      22.529   4.910  51.190  1.00  0.00     0.029 C 
HETATM   17  C8  UNL     1      23.002   4.496  49.817  1.00  0.00     0.038 C 
HETATM   18  C9  UNL     1      23.738   5.630  51.844  1.00  0.00     0.038 C 
HETATM   19  C10 UNL     1      21.512   6.000  51.034  1.00  0.00     0.038 C 
ENDBRANCH  14  16
ENDBRANCH  11  14
ENDBRANCH   4  11
BRANCH   5  20
HETATM   20  C12 UNL     1      23.463   1.035  51.852  1.00  0.00     0.208 C 
BRANCH  20  21
HETATM   21  O3  UNL     1      24.392   1.931  52.333  1.00  0.00    -0.385 OA
BRANCH  21  22
HETATM   22  C13 UNL     1      25.343   2.238  51.401  1.00  0.00     0.198 C 
BRANCH  22  23
HETATM   23  C14 UNL     1      26.766   2.152  51.824  1.00  0.00     0.298 C 
BRANCH  23  24
HETATM   24  N2  UNL     1      26.931   1.255  52.989  1.00  0.00     0.090 N 
HETATM   25  C15 UNL     1      27.345  -0.062  52.546  1.00  0.00     0.272 C 
HETATM   26  C16 UNL     1      28.522  -0.480  53.384  1.00  0.00     0.032 C 
HETATM   27  C17 UNL     1      28.698   0.612  54.430  1.00  0.00     0.032 C 
HETATM   28  C18 UNL     1      28.101   1.793  53.702  1.00  0.00     0.272 C 
ENDBRANCH  23  24
ENDBRANCH  22  23
ENDBRANCH  21  22
ENDBRANCH  20  21
ENDBRANCH   5  20
BRANCH   1  29
HETATM   29  C2  UNL     1      18.079  -2.490  53.721  1.00  0.00    -0.008 C 
HETATM   30  C1  UNL     1      17.009  -3.080  53.222  1.00  0.00     0.011 C 
ENDBRANCH   1  29
TORSDOF 9
ENDMDL
MODEL 3
REMARK VINA RESULT:      -6.8      2.578      7.023
REMARK  9 active torsions:
REMARK  status: ('A' for Active; 'I' for Inactive)
REMARK    1  A    between atoms: C2_2  and  C3_3 
REMARK    2  A    between atoms: C6_6  and  S1_7 
REMARK    3  A    between atoms: S1_7  and  N1_10 
REMARK    4  A    between atoms: N1_10  and  C7_11 
REMARK    5  A    between atoms: C11_15  and  C12_16 
REMARK    6  A    between atoms: C12_16  and  O3_17 
REMARK    7  A    between atoms: O3_17  and  C13_18 
REMARK    8  A    between atoms: C13_18  and  C14_19 
REMARK    9  A    between atoms: C14_19  and  N2_20 
ROOT
HETATM    1  C3  UNL     1      28.493   0.971  53.291  1.00  0.00     0.028 C 
HETATM    2  C4  UNL     1      27.307   0.789  52.795  1.00  0.00     0.029 C 
HETATM    3  C5  UNL     1      26.875   1.742  51.743  1.00  0.00     0.055 C 
HETATM    4  C6  UNL     1      25.642   2.210  51.435  1.00  0.00     0.090 C 
HETATM    5  C11 UNL     1      24.413   1.836  52.127  1.00  0.00    -0.008 C 
HETATM    6  C19 UNL     1      24.188   0.664  52.753  1.00  0.00    -0.056 C 
HETATM    7  C20 UNL     1      22.816   0.574  53.374  1.00  0.00     0.046 C 
HETATM    8  C21 UNL     1      25.037  -0.518  52.943  1.00  0.00     0.154 C 
HETATM    9  N3  UNL     1      26.423  -0.253  53.194  1.00  0.00    -0.386 N 
HETATM   10  H35 UNL     1      26.922  -0.963  53.799  1.00  0.00     0.160 HD
ENDROOT
BRANCH   4  11
HETATM   11  S1  UNL     1      25.610   3.326  50.101  1.00  0.00     0.260 S 
HETATM   12  O1  UNL     1      24.269   3.061  49.396  1.00  0.00    -0.200 OA
HETATM   13  O2  UNL     1      26.606   3.131  49.035  1.00  0.00    -0.200 OA
BRANCH  11  14
HETATM   14  N1  UNL     1      25.558   4.955  50.521  1.00  0.00    -0.307 N 
HETATM   15  H6  UNL     1      26.050   5.204  51.401  1.00  0.00     0.173 HD
BRANCH  14  16
HETATM   16  C7  UNL     1      25.667   5.976  49.581  1.00  0.00     0.029 C 
HETATM   17  C8  UNL     1      26.998   6.038  48.873  1.00  0.00     0.038 C 
HETATM   18  C9  UNL     1      25.563   7.299  50.385  1.00  0.00     0.038 C 
HETATM   19  C10 UNL     1      24.578   6.099  48.558  1.00  0.00     0.038 C 
ENDBRANCH  14  16
ENDBRANCH  11  14
ENDBRANCH   4  11
BRANCH   5  20
HETATM   20  C12 UNL     1      23.377   2.880  52.093  1.00  0.00     0.208 C 
BRANCH  20  21
HETATM   21  O3  UNL     1      23.664   4.027  52.800  1.00  0.00    -0.385 OA
BRANCH  21  22
HETATM   22  C13 UNL     1      22.748   5.016  52.573  1.00  0.00     0.198 C 
BRANCH  22  23
HETATM   23  C14 UNL     1      21.643   4.719  51.623  1.00  0.00     0.298 C 
BRANCH  23  24
HETATM   24  N2  UNL     1      21.683   5.619  50.449  1.00  0.00     0.090 N 
HETATM   25  C15 UNL     1      20.369   5.697  49.840  1.00  0.00     0.272 C 
HETATM   26  C16 UNL     1      20.046   7.150  49.627  1.00  0.00     0.032 C 
HETATM   27  C17 UNL     1      21.297   7.918  50.030  1.00  0.00     0.032 C 
HETATM   28  C18 UNL     1      21.907   6.956  51.022  1.00  0.00     0.272 C 
ENDBRANCH  23  24
ENDBRANCH  22  23
ENDBRANCH  21  22
ENDBRANCH  20  21
ENDBRANCH   5  20
BRANCH   1  29
HETATM   29  C2  UNL     1      29.063   0.126  54.327  1.00  0.00    -0.008 C 
HETATM   30  C1  UNL     1      29.899  -0.835  53.982  1.00  0.00     0.011 C 
ENDBRANCH   1  29
TORSDOF 9
ENDMDL
MODEL 4
REMARK VINA RESULT:      -6.6      1.810      6.879
REMARK  9 active torsions:
REMARK  status: ('A' for Active; 'I' for Inactive)
REMARK    1  A    between atoms: C2_2  and  C3_3 
REMARK    2  A    between atoms: C6_6  and  S1_7 
REMARK    3  A    between atoms: S1_7  and  N1_10 
REMARK    4  A    between atoms: N1_10  and  C7_11 
REMARK    5  A    between atoms: C11_15  and  C12_16 
REMARK    6  A    between atoms: C12_16  and  O3_17 
REMARK    7  A    between atoms: O3_17  and  C13_18 
REMARK    8  A    between atoms: C13_18  and  C14_19 
REMARK    9  A    between atoms: C14_19  and  N2_20 
ROOT
HETATM    1  C3  UNL     1      28.465   1.194  53.284  1.00  0.00     0.028 C 
HETATM    2  C4  UNL     1      27.295   0.776  52.905  1.00  0.00     0.029 C 
HETATM    3  C5  UNL     1      26.498   1.705  52.068  1.00  0.00     0.055 C 
HETATM    4  C6  UNL     1      25.158   1.877  51.979  1.00  0.00     0.090 C 
HETATM    5  C11 UNL     1      24.170   1.122  52.742  1.00  0.00    -0.008 C 
HETATM    6  C19 UNL     1      24.325  -0.134  53.204  1.00  0.00    -0.056 C 
HETATM    7  C20 UNL     1      23.121  -0.645  53.958  1.00  0.00     0.046 C 
HETATM    8  C21 UNL     1      25.448  -1.075  53.113  1.00  0.00     0.154 C 
HETATM    9  N3  UNL     1      26.753  -0.497  53.240  1.00  0.00    -0.386 N 
HETATM   10  H35 UNL     1      27.490  -1.123  53.669  1.00  0.00     0.160 HD
ENDROOT
BRANCH   4  11
HETATM   11  S1  UNL     1      24.665   3.098  50.843  1.00  0.00     0.260 S 
HETATM   12  O1  UNL     1      25.911   3.364  49.983  1.00  0.00    -0.200 OA
HETATM   13  O2  UNL     1      24.326   4.424  51.383  1.00  0.00    -0.200 OA
BRANCH  11  14
HETATM   14  N1  UNL     1      23.479   2.627  49.744  1.00  0.00    -0.307 N 
HETATM   15  H6  UNL     1      22.888   1.828  50.043  1.00  0.00     0.173 HD
BRANCH  14  16
HETATM   16  C7  UNL     1      22.745   3.541  48.995  1.00  0.00     0.029 C 
HETATM   17  C8  UNL     1      21.482   4.029  49.663  1.00  0.00     0.038 C 
HETATM   18  C9  UNL     1      22.276   2.770  47.733  1.00  0.00     0.038 C 
HETATM   19  C10 UNL     1      23.473   4.725  48.433  1.00  0.00     0.038 C 
ENDBRANCH  14  16
ENDBRANCH  11  14
ENDBRANCH   4  11
BRANCH   5  20
HETATM   20  C12 UNL     1      22.923   1.864  52.988  1.00  0.00     0.208 C 
BRANCH  20  21
HETATM   21  O3  UNL     1      21.911   1.647  52.079  1.00  0.00    -0.385 OA
BRANCH  21  22
HETATM   22  C13 UNL     1      20.676   1.862  52.622  1.00  0.00     0.198 C 
BRANCH  22  23
HETATM   23  C14 UNL     1      20.036   0.727  53.339  1.00  0.00     0.298 C 
BRANCH  23  24
HETATM   24  N2  UNL     1      19.403  -0.220  52.395  1.00  0.00     0.090 N 
HETATM   25  C15 UNL     1      18.371  -0.980  53.075  1.00  0.00     0.272 C 
HETATM   26  C16 UNL     1      17.132  -0.934  52.225  1.00  0.00     0.032 C 
HETATM   27  C17 UNL     1      17.529  -0.210  50.946  1.00  0.00     0.032 C 
HETATM   28  C18 UNL     1      18.670   0.640  51.452  1.00  0.00     0.272 C 
ENDBRANCH  23  24
ENDBRANCH  22  23
ENDBRANCH  21  22
ENDBRANCH  20  21
ENDBRANCH   5  20
BRANCH   1  29
HETATM   29  C2  UNL     1      29.367   0.405  54.107  1.00  0.00    -0.008 C 
HETATM   30  C1  UNL     1      30.150  -0.485  53.528  1.00  0.00     0.011 C 
ENDBRANCH   1  29
TORSDOF 9
ENDMDL
MODEL 5
REMARK VINA RESULT:      -6.6      2.200      7.533
REMARK  9 active torsions:
REMARK  status: ('A' for Active; 'I' for Inactive)
REMARK    1  A    between atoms: C2_2  and  C3_3 
REMARK    2  A    between atoms: C6_6  and  S1_7 
REMARK    3  A    between atoms: S1_7  and  N1_10 
REMARK    4  A    between atoms: N1_10  and  C7_11 
REMARK    5  A    between atoms: C11_15  and  C12_16 
REMARK    6  A    between atoms: C12_16  and  O3_17 
REMARK    7  A    between atoms: O3_17  and  C13_18 
REMARK    8  A    between atoms: C13_18  and  C14_19 
REMARK    9  A    between atoms: C14_19  and  N2_20 
ROOT
HETATM    1  C3  UNL     1      26.896   4.707  48.977  1.00  0.00     0.028 C 
HETATM    2  C4  UNL     1      25.969   4.955  49.853  1.00  0.00     0.029 C 
HETATM    3  C5  UNL     1      25.263   3.781  50.421  1.00  0.00     0.055 C 
HETATM    4  C6  UNL     1      23.987   3.649  50.854  1.00  0.00     0.090 C 
HETATM    5  C11 UNL     1      22.992   4.716  50.851  1.00  0.00    -0.008 C 
HETATM    6  C19 UNL     1      23.253   6.035  50.947  1.00  0.00    -0.056 C 
HETATM    7  C20 UNL     1      22.011   6.892  50.916  1.00  0.00     0.046 C 
HETATM    8  C21 UNL     1      24.516   6.773  51.063  1.00  0.00     0.154 C 
HETATM    9  N3  UNL     1      25.607   6.261  50.289  1.00  0.00    -0.386 N 
HETATM   10  H35 UNL     1      26.309   6.981  49.956  1.00  0.00     0.160 HD
ENDROOT
BRANCH   4  11
HETATM   11  S1  UNL     1      23.592   2.064  51.452  1.00  0.00     0.260 S 
HETATM   12  O1  UNL     1      22.787   1.404  50.320  1.00  0.00    -0.200 OA
HETATM   13  O2  UNL     1      22.688   1.986  52.610  1.00  0.00    -0.200 OA
BRANCH  11  14
HETATM   14  N1  UNL     1      24.902   1.037  51.700  1.00  0.00    -0.307 N 
HETATM   15  H6  UNL     1      25.631   1.059  50.961  1.00  0.00     0.173 HD
BRANCH  14  16
HETATM   16  C7  UNL     1      25.467   0.832  52.955  1.00  0.00     0.029 C 
HETATM   17  C8  UNL     1      25.760   2.096  53.726  1.00  0.00     0.038 C 
HETATM   18  C9  UNL     1      26.850   0.179  52.691  1.00  0.00     0.038 C 
HETATM   19  C10 UNL     1      24.789  -0.139  53.874  1.00  0.00     0.038 C 
ENDBRANCH  14  16
ENDBRANCH  11  14
ENDBRANCH   4  11
BRANCH   5  20
HETATM   20  C12 UNL     1      21.608   4.232  50.728  1.00  0.00     0.208 C 
BRANCH  20  21
HETATM   21  O3  UNL     1      21.157   4.033  49.442  1.00  0.00    -0.385 OA
BRANCH  21  22
HETATM   22  C13 UNL     1      20.012   3.289  49.406  1.00  0.00     0.198 C 
BRANCH  22  23
HETATM   23  C14 UNL     1      19.547   2.687  50.684  1.00  0.00     0.298 C 
BRANCH  23  24
HETATM   24  N2  UNL     1      19.058   1.305  50.483  1.00  0.00     0.090 N 
HETATM   25  C15 UNL     1      19.617   0.431  51.496  1.00  0.00     0.272 C 
HETATM   26  C16 UNL     1      18.490  -0.373  52.082  1.00  0.00     0.032 C 
HETATM   27  C17 UNL     1      17.254  -0.013  51.270  1.00  0.00     0.032 C 
HETATM   28  C18 UNL     1      17.623   1.375  50.803  1.00  0.00     0.272 C 
ENDBRANCH  23  24
ENDBRANCH  22  23
ENDBRANCH  21  22
ENDBRANCH  20  21
ENDBRANCH   5  20
BRANCH   1  29
HETATM   29  C2  UNL     1      27.679   5.746  48.329  1.00  0.00    -0.008 C 
HETATM   30  C1  UNL     1      28.993   5.629  48.291  1.00  0.00     0.011 C 
ENDBRANCH   1  29
TORSDOF 9
ENDMDL
MODEL 6
REMARK VINA RESULT:      -6.5      1.708      2.129
REMARK  9 active torsions:
REMARK  status: ('A' for Active; 'I' for Inactive)
REMARK    1  A    between atoms: C2_2  and  C3_3 
REMARK    2  A    between atoms: C6_6  and  S1_7 
REMARK    3  A    between atoms: S1_7  and  N1_10 
REMARK    4  A    between atoms: N1_10  and  C7_11 
REMARK    5  A    between atoms: C11_15  and  C12_16 
REMARK    6  A    between atoms: C12_16  and  O3_17 
REMARK    7  A    between atoms: O3_17  and  C13_18 
REMARK    8  A    between atoms: C13_18  and  C14_19 
REMARK    9  A    between atoms: C14_19  and  N2_20 
ROOT
HETATM    1  C3  UNL     1      19.882   3.827  48.610  1.00  0.00     0.028 C 
HETATM    2  C4  UNL     1      20.118   3.639  49.874  1.00  0.00     0.029 C 
HETATM    3  C5  UNL     1      21.350   4.262  50.418  1.00  0.00     0.055 C 
HETATM    4  C6  UNL     1      22.172   3.857  51.415  1.00  0.00     0.090 C 
HETATM    5  C11 UNL     1      21.986   2.646  52.205  1.00  0.00    -0.008 C 
HETATM    6  C19 UNL     1      20.806   2.053  52.472  1.00  0.00    -0.056 C 
HETATM    7  C20 UNL     1      20.941   0.811  53.320  1.00  0.00     0.046 C 
HETATM    8  C21 UNL     1      19.434   2.392  52.078  1.00  0.00     0.154 C 
HETATM    9  N3  UNL     1      19.277   2.889  50.743  1.00  0.00    -0.386 N 
HETATM   10  H35 UNL     1      18.351   2.669  50.279  1.00  0.00     0.160 HD
ENDROOT
BRANCH   4  11
HETATM   11  S1  UNL     1      23.514   4.922  51.715  1.00  0.00     0.260 S 
HETATM   12  O1  UNL     1      23.588   5.041  53.247  1.00  0.00    -0.200 OA
HETATM   13  O2  UNL     1      23.382   6.317  51.265  1.00  0.00    -0.200 OA
BRANCH  11  14
HETATM   14  N1  UNL     1      25.023   4.331  51.258  1.00  0.00    -0.307 N 
HETATM   15  H6  UNL     1      25.379   3.537  51.823  1.00  0.00     0.173 HD
BRANCH  14  16
HETATM   16  C7  UNL     1      25.410   4.213  49.927  1.00  0.00     0.029 C 
HETATM   17  C8  UNL     1      24.370   3.597  49.023  1.00  0.00     0.038 C 
HETATM   18  C9  UNL     1      26.602   3.219  49.924  1.00  0.00     0.038 C 
HETATM   19  C10 UNL     1      25.965   5.430  49.252  1.00  0.00     0.038 C 
ENDBRANCH  14  16
ENDBRANCH  11  14
ENDBRANCH   4  11
BRANCH   5  20
HETATM   20  C12 UNL     1      23.244   2.081  52.722  1.00  0.00     0.208 C 
BRANCH  20  21
HETATM   21  O3  UNL     1      24.047   1.463  51.790  1.00  0.00    -0.385 OA
BRANCH  21  22
HETATM   22  C13 UNL     1      25.119   0.840  52.365  1.00  0.00     0.198 C 
BRANCH  22  23
HETATM   23  C14 UNL     1      24.857  -0.409  53.127  1.00  0.00     0.298 C 
BRANCH  23  24
HETATM   24  N2  UNL     1      26.061  -0.859  53.859  1.00  0.00     0.090 N 
HETATM   25  C15 UNL     1      27.087  -1.269  52.919  1.00  0.00     0.272 C 
HETATM   26  C16 UNL     1      28.373  -0.603  53.321  1.00  0.00     0.032 C 
HETATM   27  C17 UNL     1      28.076   0.124  54.626  1.00  0.00     0.032 C 
HETATM   28  C18 UNL     1      26.593   0.367  54.476  1.00  0.00     0.272 C 
ENDBRANCH  23  24
ENDBRANCH  22  23
ENDBRANCH  21  22
ENDBRANCH  20  21
ENDBRANCH   5  20
BRANCH   1  29
HETATM   29  C2  UNL     1      18.720   3.284  47.926  1.00  0.00    -0.008 C 
HETATM   30  C1  UNL     1      18.705   3.264  46.607  1.00  0.00     0.011 C 
ENDBRANCH   1  29
TORSDOF 9
ENDMDL
MODEL 7
REMARK VINA RESULT:      -6.3      1.744      6.867
REMARK  9 active torsions:
REMARK  status: ('A' for Active; 'I' for Inactive)
REMARK    1  A    between atoms: C2_2  and  C3_3 
REMARK    2  A    between atoms: C6_6  and  S1_7 
REMARK    3  A    between atoms: S1_7  and  N1_10 
REMARK    4  A    between atoms: N1_10  and  C7_11 
REMARK    5  A    between atoms: C11_15  and  C12_16 
REMARK    6  A    between atoms: C12_16  and  O3_17 
REMARK    7  A    between atoms: O3_17  and  C13_18 
REMARK    8  A    between atoms: C13_18  and  C14_19 
REMARK    9  A    between atoms: C14_19  and  N2_20 
ROOT
HETATM    1  C3  UNL     1      28.525   0.947  53.330  1.00  0.00     0.028 C 
HETATM    2  C4  UNL     1      27.324   0.785  52.863  1.00  0.00     0.029 C 
HETATM    3  C5  UNL     1      26.810   1.851  51.969  1.00  0.00     0.055 C 
HETATM    4  C6  UNL     1      25.549   2.306  51.779  1.00  0.00     0.090 C 
HETATM    5  C11 UNL     1      24.368   1.793  52.464  1.00  0.00    -0.008 C 
HETATM    6  C19 UNL     1      24.213   0.540  52.934  1.00  0.00    -0.056 C 
HETATM    7  C20 UNL     1      22.875   0.311  53.594  1.00  0.00     0.046 C 
HETATM    8  C21 UNL     1      25.110  -0.622  52.927  1.00  0.00     0.154 C 
HETATM    9  N3  UNL     1      26.496  -0.336  53.154  1.00  0.00    -0.386 N 
HETATM   10  H35 UNL     1      27.047  -1.100  53.636  1.00  0.00     0.160 HD
ENDROOT
BRANCH   4  11
HETATM   11  S1  UNL     1      25.416   3.587  50.611  1.00  0.00     0.260 S 
HETATM   12  O1  UNL     1      24.511   3.021  49.504  1.00  0.00    -0.200 OA
HETATM   13  O2  UNL     1      26.640   3.974  49.892  1.00  0.00    -0.200 OA
BRANCH  11  14
HETATM   14  N1  UNL     1      24.624   4.974  51.144  1.00  0.00    -0.307 N 
HETATM   15  H6  UNL     1      24.862   5.280  52.107  1.00  0.00     0.173 HD
BRANCH  14  16
HETATM   16  C7  UNL     1      24.385   6.066  50.316  1.00  0.00     0.029 C 
HETATM   17  C8  UNL     1      25.393   7.182  50.443  1.00  0.00     0.038 C 
HETATM   18  C9  UNL     1      23.038   6.669  50.794  1.00  0.00     0.038 C 
HETATM   19  C10 UNL     1      24.153   5.799  48.859  1.00  0.00     0.038 C 
ENDBRANCH  14  16
ENDBRANCH  11  14
ENDBRANCH   4  11
BRANCH   5  20
HETATM   20  C12 UNL     1      23.295   2.789  52.615  1.00  0.00     0.208 C 
BRANCH  20  21
HETATM   21  O3  UNL     1      22.393   2.857  51.577  1.00  0.00    -0.385 OA
BRANCH  21  22
HETATM   22  C13 UNL     1      21.122   3.108  52.013  1.00  0.00     0.198 C 
BRANCH  22  23
HETATM   23  C14 UNL     1      20.013   2.899  51.045  1.00  0.00     0.298 C 
BRANCH  23  24
HETATM   24  N2  UNL     1      18.921   2.097  51.639  1.00  0.00     0.090 N 
HETATM   25  C15 UNL     1      18.087   1.542  50.591  1.00  0.00     0.272 C 
HETATM   26  C16 UNL     1      17.903   0.078  50.876  1.00  0.00     0.032 C 
HETATM   27  C17 UNL     1      18.572  -0.172  52.221  1.00  0.00     0.032 C 
HETATM   28  C18 UNL     1      19.601   0.933  52.228  1.00  0.00     0.272 C 
ENDBRANCH  23  24
ENDBRANCH  22  23
ENDBRANCH  21  22
ENDBRANCH  20  21
ENDBRANCH   5  20
BRANCH   1  29
HETATM   29  C2  UNL     1      29.171  -0.005  54.218  1.00  0.00    -0.008 C 
HETATM   30  C1  UNL     1      29.984  -0.909  53.705  1.00  0.00     0.011 C 
ENDBRANCH   1  29
TORSDOF 9
ENDMDL
MODEL 8
REMARK VINA RESULT:      -6.3      2.154      6.046
REMARK  9 active torsions:
REMARK  status: ('A' for Active; 'I' for Inactive)
REMARK    1  A    between atoms: C2_2  and  C3_3 
REMARK    2  A    between atoms: C6_6  and  S1_7 
REMARK    3  A    between atoms: S1_7  and  N1_10 
REMARK    4  A    between atoms: N1_10  and  C7_11 
REMARK    5  A    between atoms: C11_15  and  C12_16 
REMARK    6  A    between atoms: C12_16  and  O3_17 
REMARK    7  A    between atoms: O3_17  and  C13_18 
REMARK    8  A    between atoms: C13_18  and  C14_19 
REMARK    9  A    between atoms: C14_19  and  N2_20 
ROOT
HETATM    1  C3  UNL     1      21.844   0.435  53.699  1.00  0.00     0.028 C 
HETATM    2  C4  UNL     1      22.350   0.676  52.528  1.00  0.00     0.029 C 
HETATM    3  C5  UNL     1      23.797   1.000  52.485  1.00  0.00     0.055 C 
HETATM    4  C6  UNL     1      24.493   1.802  51.645  1.00  0.00     0.090 C 
HETATM    5  C11 UNL     1      23.910   2.553  50.538  1.00  0.00    -0.008 C 
HETATM    6  C19 UNL     1      22.808   2.206  49.846  1.00  0.00    -0.056 C 
HETATM    7  C20 UNL     1      22.454   3.187  48.755  1.00  0.00     0.046 C 
HETATM    8  C21 UNL     1      21.897   1.062  49.973  1.00  0.00     0.154 C 
HETATM    9  N3  UNL     1      21.609   0.644  51.313  1.00  0.00    -0.386 N 
HETATM   10  H35 UNL     1      20.652   0.218  51.463  1.00  0.00     0.160 HD
ENDROOT
BRANCH   4  11
HETATM   11  S1  UNL     1      26.199   1.878  51.974  1.00  0.00     0.260 S 
HETATM   12  O1  UNL     1      26.308   2.586  53.335  1.00  0.00    -0.200 OA
HETATM   13  O2  UNL     1      27.021   2.713  51.083  1.00  0.00    -0.200 OA
BRANCH  11  14
HETATM   14  N1  UNL     1      26.959   0.394  52.201  1.00  0.00    -0.307 N 
HETATM   15  H6  UNL     1      27.408  -0.010  51.357  1.00  0.00     0.173 HD
BRANCH  14  16
HETATM   16  C7  UNL     1      27.686   0.091  53.349  1.00  0.00     0.029 C 
HETATM   17  C8  UNL     1      28.948   0.901  53.524  1.00  0.00     0.038 C 
HETATM   18  C9  UNL     1      28.156  -1.377  53.172  1.00  0.00     0.038 C 
HETATM   19  C10 UNL     1      26.950   0.070  54.654  1.00  0.00     0.038 C 
ENDBRANCH  14  16
ENDBRANCH  11  14
ENDBRANCH   4  11
BRANCH   5  20
HETATM   20  C12 UNL     1      24.646   3.784  50.209  1.00  0.00     0.208 C 
BRANCH  20  21
HETATM   21  O3  UNL     1      24.411   4.859  51.036  1.00  0.00    -0.385 OA
BRANCH  21  22
HETATM   22  C13 UNL     1      24.245   6.022  50.337  1.00  0.00     0.198 C 
BRANCH  22  23
HETATM   23  C14 UNL     1      25.072   6.209  49.116  1.00  0.00     0.298 C 
BRANCH  23  24
HETATM   24  N2  UNL     1      26.384   6.812  49.440  1.00  0.00     0.090 N 
HETATM   25  C15 UNL     1      27.011   7.312  48.232  1.00  0.00     0.272 C 
HETATM   26  C16 UNL     1      27.477   8.716  48.503  1.00  0.00     0.032 C 
HETATM   27  C17 UNL     1      27.201   8.970  49.978  1.00  0.00     0.032 C 
HETATM   28  C18 UNL     1      26.051   8.019  50.213  1.00  0.00     0.272 C 
ENDBRANCH  23  24
ENDBRANCH  22  23
ENDBRANCH  21  22
ENDBRANCH  20  21
ENDBRANCH   5  20
BRANCH   1  29
HETATM   29  C2  UNL     1      20.444   0.104  53.911  1.00  0.00    -0.008 C 
HETATM   30  C1  UNL     1      20.066  -1.158  53.842  1.00  0.00     0.011 C 
ENDBRANCH   1  29
TORSDOF 9
ENDMDL
MODEL 9
REMARK VINA RESULT:      -6.2      2.642      6.581
REMARK  9 active torsions:
REMARK  status: ('A' for Active; 'I' for Inactive)
REMARK    1  A    between atoms: C2_2  and  C3_3 
REMARK    2  A    between atoms: C6_6  and  S1_7 
REMARK    3  A    between atoms: S1_7  and  N1_10 
REMARK    4  A    between atoms: N1_10  and  C7_11 
REMARK    5  A    between atoms: C11_15  and  C12_16 
REMARK    6  A    between atoms: C12_16  and  O3_17 
REMARK    7  A    between atoms: O3_17  and  C13_18 
REMARK    8  A    between atoms: C13_18  and  C14_19 
REMARK    9  A    between atoms: C14_19  and  N2_20 
ROOT
HETATM    1  C3  UNL     1      25.981   1.573  52.501  1.00  0.00     0.028 C 
HETATM    2  C4  UNL     1      24.878   2.235  52.684  1.00  0.00     0.029 C 
HETATM    3  C5  UNL     1      23.620   1.543  52.309  1.00  0.00     0.055 C 
HETATM    4  C6  UNL     1      22.452   2.040  51.836  1.00  0.00     0.090 C 
HETATM    5  C11 UNL     1      22.188   3.454  51.593  1.00  0.00    -0.008 C 
HETATM    6  C19 UNL     1      22.761   4.485  52.242  1.00  0.00    -0.056 C 
HETATM    7  C20 UNL     1      22.279   5.833  51.764  1.00  0.00     0.046 C 
HETATM    8  C21 UNL     1      23.766   4.527  53.311  1.00  0.00     0.154 C 
HETATM    9  N3  UNL     1      24.814   3.554  53.214  1.00  0.00    -0.386 N 
HETATM   10  H35 UNL     1      25.749   3.849  53.613  1.00  0.00     0.160 HD
ENDROOT
BRANCH   4  11
HETATM   11  S1  UNL     1      21.231   0.839  51.535  1.00  0.00     0.260 S 
HETATM   12  O1  UNL     1      21.462   0.397  50.081  1.00  0.00    -0.200 OA
HETATM   13  O2  UNL     1      19.829   1.286  51.543  1.00  0.00    -0.200 OA
BRANCH  11  14
HETATM   14  N1  UNL     1      21.368  -0.575  52.439  1.00  0.00    -0.307 N 
HETATM   15  H6  UNL     1      22.305  -1.020  52.429  1.00  0.00     0.173 HD
BRANCH  14  16
HETATM   16  C7  UNL     1      20.749  -0.738  53.675  1.00  0.00     0.029 C 
HETATM   17  C8  UNL     1      20.783   0.484  54.560  1.00  0.00     0.038 C 
HETATM   18  C9  UNL     1      21.580  -1.814  54.422  1.00  0.00     0.038 C 
HETATM   19  C10 UNL     1      19.358  -1.296  53.688  1.00  0.00     0.038 C 
ENDBRANCH  14  16
ENDBRANCH  11  14
ENDBRANCH   4  11
BRANCH   5  20
HETATM   20  C12 UNL     1      21.198   3.692  50.530  1.00  0.00     0.208 C 
BRANCH  20  21
HETATM   21  O3  UNL     1      21.580   3.314  49.262  1.00  0.00    -0.385 OA
BRANCH  21  22
HETATM   22  C13 UNL     1      22.674   4.007  48.825  1.00  0.00     0.198 C 
BRANCH  22  23
HETATM   23  C14 UNL     1      23.991   3.319  48.895  1.00  0.00     0.298 C 
BRANCH  23  24
HETATM   24  N2  UNL     1      25.002   4.157  49.577  1.00  0.00     0.090 N 
HETATM   25  C15 UNL     1      26.324   3.594  49.383  1.00  0.00     0.272 C 
HETATM   26  C16 UNL     1      27.235   4.703  48.936  1.00  0.00     0.032 C 
HETATM   27  C17 UNL     1      26.403   5.977  48.999  1.00  0.00     0.032 C 
HETATM   28  C18 UNL     1      25.016   5.412  48.809  1.00  0.00     0.272 C 
ENDBRANCH  23  24
ENDBRANCH  22  23
ENDBRANCH  21  22
ENDBRANCH  20  21
ENDBRANCH   5  20
BRANCH   1  29
HETATM   29  C2  UNL     1      27.294   2.109  52.816  1.00  0.00    -0.008 C 
HETATM   30  C1  UNL     1      28.033   1.501  53.725  1.00  0.00     0.011 C 
ENDBRANCH   1  29
TORSDOF 9
ENDMDL
