MODEL 1
REMARK VINA RESULT:      -7.6      0.000      0.000
REMARK  9 active torsions:
REMARK  status: ('A' for Active; 'I' for Inactive)
REMARK    1  A    between atoms: C3_3  and  C4_4 
REMARK    2  A    between atoms: C5_5  and  N1_6 
REMARK    3  A    between atoms: C5_5  and  S1_25 
REMARK    4  A    between atoms: C6_7  and  C7_8 
REMARK    5  A    between atoms: C7_8  and  C8_10 
REMARK    6  A    between atoms: C11_14  and  N4_15 
REMARK    7  A    between atoms: N4_15  and  C12_16 
REMARK    8  A    between atoms: C12_16  and  C13_17 
REMARK    9  A    between atoms: C13_17  and  C14_18 
ROOT
HETATM    1  C8  UNL     1      28.488   5.857  48.224  1.00  0.00     0.106 A 
HETATM    2  C9  UNL     1      27.473   6.788  48.245  1.00  0.00     0.054 A 
HETATM    3  C10 UNL     1      26.211   6.568  48.696  1.00  0.00     0.139 A 
HETATM    4  N3  UNL     1      25.920   5.343  49.161  1.00  0.00    -0.075 NA
HETATM    5  C11 UNL     1      26.870   4.384  49.169  1.00  0.00     0.722 A 
HETATM    6  N6  UNL     1      28.098   4.671  48.708  1.00  0.00    -0.061 NA
ENDROOT
BRANCH   1   7
HETATM    7  C7  UNL     1      29.849   6.061  47.749  1.00  0.00     0.095 C 
HETATM    8  N2  UNL     1      30.075   7.216  47.161  1.00  0.00    -0.297 NA
HETATM    9  H8  UNL     1      31.012   7.455  46.789  1.00  0.00     0.187 HD
BRANCH   7  10
HETATM   10  C6  UNL     1      30.927   5.066  47.900  1.00  0.00     0.151 C 
HETATM   11  N1  UNL     1      31.828   4.703  47.088  1.00  0.00    -0.252 NA
BRANCH  11  12
HETATM   12  C5  UNL     1      32.772   3.714  47.456  1.00  0.00     0.092 C 
HETATM   13  C4  UNL     1      32.623   2.448  47.113  1.00  0.00     0.038 C 
BRANCH  13  14
HETATM   14  C3  UNL     1      31.451   2.098  46.342  1.00  0.00    -0.002 C 
HETATM   15  C2  UNL     1      31.288   0.792  46.313  1.00  0.00    -0.031 C 
HETATM   16  C1  UNL     1      32.250  -0.091  47.019  1.00  0.00     0.036 C 
ENDBRANCH  13  14
BRANCH  12  17
HETATM   17  S1  UNL     1      33.577   5.092  48.214  1.00  0.00    -0.115 SA
HETATM   18  C19 UNL     1      34.177   6.239  46.934  1.00  0.00     0.097 C 
ENDBRANCH  12  17
ENDBRANCH  11  12
ENDBRANCH   7  10
ENDBRANCH   1   7
BRANCH   5  19
HETATM   19  N4  UNL     1      26.602   3.051  49.661  1.00  0.00    -0.222 N 
HETATM   20  H11 UNL     1      26.494   2.328  48.920  1.00  0.00     0.177 HD
BRANCH  19  21
HETATM   21  C12 UNL     1      26.513   2.841  51.087  1.00  0.00     0.142 C 
BRANCH  21  22
HETATM   22  C13 UNL     1      26.478   1.379  51.431  1.00  0.00     0.060 C 
BRANCH  22  23
HETATM   23  C14 UNL     1      27.344   1.121  52.594  1.00  0.00    -0.039 A 
HETATM   24  C15 UNL     1      28.340   1.854  53.168  1.00  0.00     0.010 A 
HETATM   25  C16 UNL     1      29.012   1.365  54.261  1.00  0.00     0.020 A 
HETATM   26  C17 UNL     1      28.699   0.118  54.811  1.00  0.00     0.116 A 
HETATM   27  N5  UNL     1      27.719  -0.608  54.249  1.00  0.00    -0.273 NA
HETATM   28  C18 UNL     1      27.056  -0.120  53.167  1.00  0.00     0.123 A 
ENDBRANCH  22  23
ENDBRANCH  21  22
ENDBRANCH  19  21
ENDBRANCH   5  19
TORSDOF 9
ENDMDL
MODEL 2
REMARK VINA RESULT:      -7.6      5.217      7.984
REMARK  9 active torsions:
REMARK  status: ('A' for Active; 'I' for Inactive)
REMARK    1  A    between atoms: C3_3  and  C4_4 
REMARK    2  A    between atoms: C5_5  and  N1_6 
REMARK    3  A    between atoms: C5_5  and  S1_25 
REMARK    4  A    between atoms: C6_7  and  C7_8 
REMARK    5  A    between atoms: C7_8  and  C8_10 
REMARK    6  A    between atoms: C11_14  and  N4_15 
REMARK    7  A    between atoms: N4_15  and  C12_16 
REMARK    8  A    between atoms: C12_16  and  C13_17 
REMARK    9  A    between atoms: C13_17  and  C14_18 
ROOT
HETATM    1  C8  UNL     1      21.317   1.335  52.781  1.00  0.00     0.106 A 
HETATM    2  C9  UNL     1      20.423   0.411  53.276  1.00  0.00     0.054 A 
HETATM    3  C10 UNL     1      20.751  -0.773  53.853  1.00  0.00     0.139 A 
HETATM    4  N3  UNL     1      22.055  -1.078  53.954  1.00  0.00    -0.075 NA
HETATM    5  C11 UNL     1      22.984  -0.215  53.489  1.00  0.00     0.722 A 
HETATM    6  N6  UNL     1      22.588   0.939  52.930  1.00  0.00    -0.061 NA
ENDROOT
BRANCH   1   7
HETATM    7  C7  UNL     1      20.998   2.611  52.159  1.00  0.00     0.095 C 
HETATM    8  N2  UNL     1      19.991   3.266  52.696  1.00  0.00    -0.297 NA
HETATM    9  H8  UNL     1      19.687   4.184  52.323  1.00  0.00     0.187 HD
BRANCH   7  10
HETATM   10  C6  UNL     1      21.731   3.167  51.006  1.00  0.00     0.151 C 
HETATM   11  N1  UNL     1      22.721   3.954  50.966  1.00  0.00    -0.252 NA
BRANCH  11  12
HETATM   12  C5  UNL     1      23.269   4.359  49.724  1.00  0.00     0.092 C 
HETATM   13  C4  UNL     1      24.459   3.954  49.323  1.00  0.00     0.038 C 
BRANCH  13  14
HETATM   14  C3  UNL     1      25.196   3.074  50.202  1.00  0.00    -0.002 C 
HETATM   15  C2  UNL     1      26.491   3.286  50.092  1.00  0.00    -0.031 C 
HETATM   16  C1  UNL     1      26.995   4.321  49.154  1.00  0.00     0.036 C 
ENDBRANCH  13  14
BRANCH  12  17
HETATM   17  S1  UNL     1      21.741   5.237  49.598  1.00  0.00    -0.115 SA
HETATM   18  C19 UNL     1      21.919   6.897  50.324  1.00  0.00     0.097 C 
ENDBRANCH  12  17
ENDBRANCH  11  12
ENDBRANCH   7  10
ENDBRANCH   1   7
BRANCH   5  19
HETATM   19  N4  UNL     1      24.399  -0.500  53.576  1.00  0.00    -0.222 N 
HETATM   20  H11 UNL     1      24.629  -1.485  53.825  1.00  0.00     0.177 HD
BRANCH  19  21
HETATM   21  C12 UNL     1      25.341   0.564  53.319  1.00  0.00     0.142 C 
BRANCH  21  22
HETATM   22  C13 UNL     1      26.300   0.202  52.221  1.00  0.00     0.060 C 
BRANCH  22  23
HETATM   23  C14 UNL     1      27.605  -0.160  52.800  1.00  0.00    -0.039 A 
HETATM   24  C15 UNL     1      28.639   0.599  53.260  1.00  0.00     0.010 A 
HETATM   25  C16 UNL     1      29.773  -0.005  53.746  1.00  0.00     0.020 A 
HETATM   26  C17 UNL     1      29.897  -1.397  53.786  1.00  0.00     0.116 A 
HETATM   27  N5  UNL     1      28.880  -2.149  53.335  1.00  0.00    -0.273 NA
HETATM   28  C18 UNL     1      27.760  -1.548  52.853  1.00  0.00     0.123 A 
ENDBRANCH  22  23
ENDBRANCH  21  22
ENDBRANCH  19  21
ENDBRANCH   5  19
TORSDOF 9
ENDMDL
MODEL 3
REMARK VINA RESULT:      -7.6      5.416      8.299
REMARK  9 active torsions:
REMARK  status: ('A' for Active; 'I' for Inactive)
REMARK    1  A    between atoms: C3_3  and  C4_4 
REMARK    2  A    between atoms: C5_5  and  N1_6 
REMARK    3  A    between atoms: C5_5  and  S1_25 
REMARK    4  A    between atoms: C6_7  and  C7_8 
REMARK    5  A    between atoms: C7_8  and  C8_10 
REMARK    6  A    between atoms: C11_14  and  N4_15 
REMARK    7  A    between atoms: N4_15  and  C12_16 
REMARK    8  A    between atoms: C12_16  and  C13_17 
REMARK    9  A    between atoms: C13_17  and  C14_18 
ROOT
HETATM    1  C8  UNL     1      23.638   3.286  49.500  1.00  0.00     0.106 A 
HETATM    2  C9  UNL     1      23.833   4.500  48.878  1.00  0.00     0.054 A 
HETATM    3  C10 UNL     1      24.939   5.279  48.999  1.00  0.00     0.139 A 
HETATM    4  N3  UNL     1      25.930   4.837  49.789  1.00  0.00    -0.075 NA
HETATM    5  C11 UNL     1      25.803   3.654  50.428  1.00  0.00     0.722 A 
HETATM    6  N6  UNL     1      24.682   2.934  50.263  1.00  0.00    -0.061 NA
ENDROOT
BRANCH   1   7
HETATM    7  C7  UNL     1      22.467   2.428  49.391  1.00  0.00     0.095 C 
HETATM    8  N2  UNL     1      22.021   2.234  48.169  1.00  0.00    -0.297 NA
HETATM    9  H8  UNL     1      21.192   1.639  47.988  1.00  0.00     0.187 HD
BRANCH   7  10
HETATM   10  C6  UNL     1      21.801   1.801  50.547  1.00  0.00     0.151 C 
HETATM   11  N1  UNL     1      21.708   0.582  50.878  1.00  0.00    -0.252 NA
BRANCH  11  12
HETATM   12  C5  UNL     1      21.007   0.207  52.051  1.00  0.00     0.092 C 
HETATM   13  C4  UNL     1      21.639  -0.169  53.147  1.00  0.00     0.038 C 
BRANCH  13  14
HETATM   14  C3  UNL     1      23.084  -0.186  53.114  1.00  0.00    -0.002 C 
HETATM   15  C2  UNL     1      23.566  -0.786  54.182  1.00  0.00    -0.031 C 
HETATM   16  C1  UNL     1      22.640  -1.328  55.209  1.00  0.00     0.036 C 
ENDBRANCH  13  14
BRANCH  12  17
HETATM   17  S1  UNL     1      19.598   0.566  51.048  1.00  0.00    -0.115 SA
HETATM   18  C19 UNL     1      18.154  -0.363  51.653  1.00  0.00     0.097 C 
ENDBRANCH  12  17
ENDBRANCH  11  12
ENDBRANCH   7  10
ENDBRANCH   1   7
BRANCH   5  19
HETATM   19  N4  UNL     1      26.844   3.137  51.287  1.00  0.00    -0.222 N 
HETATM   20  H11 UNL     1      27.617   3.808  51.485  1.00  0.00     0.177 HD
BRANCH  19  21
HETATM   21  C12 UNL     1      26.730   1.787  51.785  1.00  0.00     0.142 C 
BRANCH  21  22
HETATM   22  C13 UNL     1      27.264   1.664  53.183  1.00  0.00     0.060 C 
BRANCH  22  23
HETATM   23  C14 UNL     1      28.087   0.447  53.296  1.00  0.00    -0.039 A 
HETATM   24  C15 UNL     1      29.404   0.262  53.595  1.00  0.00     0.010 A 
HETATM   25  C16 UNL     1      29.933  -1.004  53.620  1.00  0.00     0.020 A 
HETATM   26  C17 UNL     1      29.147  -2.128  53.345  1.00  0.00     0.116 A 
HETATM   27  N5  UNL     1      27.848  -1.951  53.051  1.00  0.00    -0.273 NA
HETATM   28  C18 UNL     1      27.329  -0.696  53.026  1.00  0.00     0.123 A 
ENDBRANCH  22  23
ENDBRANCH  21  22
ENDBRANCH  19  21
ENDBRANCH   5  19
TORSDOF 9
ENDMDL
MODEL 4
REMARK VINA RESULT:      -7.5      5.484      8.215
REMARK  9 active torsions:
REMARK  status: ('A' for Active; 'I' for Inactive)
REMARK    1  A    between atoms: C3_3  and  C4_4 
REMARK    2  A    between atoms: C5_5  and  N1_6 
REMARK    3  A    between atoms: C5_5  and  S1_25 
REMARK    4  A    between atoms: C6_7  and  C7_8 
REMARK    5  A    between atoms: C7_8  and  C8_10 
REMARK    6  A    between atoms: C11_14  and  N4_15 
REMARK    7  A    between atoms: N4_15  and  C12_16 
REMARK    8  A    between atoms: C12_16  and  C13_17 
REMARK    9  A    between atoms: C13_17  and  C14_18 
ROOT
HETATM    1  C8  UNL     1      26.877   1.709  52.876  1.00  0.00     0.106 A 
HETATM    2  C9  UNL     1      28.153   1.719  53.395  1.00  0.00     0.054 A 
HETATM    3  C10 UNL     1      28.636   0.848  54.318  1.00  0.00     0.139 A 
HETATM    4  N3  UNL     1      27.806  -0.106  54.770  1.00  0.00    -0.075 NA
HETATM    5  C11 UNL     1      26.541  -0.173  54.301  1.00  0.00     0.722 A 
HETATM    6  N6  UNL     1      26.130   0.721  53.388  1.00  0.00    -0.061 NA
ENDROOT
BRANCH   1   7
HETATM    7  C7  UNL     1      26.330   2.625  51.887  1.00  0.00     0.095 C 
HETATM    8  N2  UNL     1      27.209   3.168  51.072  1.00  0.00    -0.297 NA
HETATM    9  H8  UNL     1      26.918   3.834  50.334  1.00  0.00     0.187 HD
BRANCH   7  10
HETATM   10  C6  UNL     1      24.896   2.947  51.772  1.00  0.00     0.151 C 
HETATM   11  N1  UNL     1      24.218   3.331  50.775  1.00  0.00    -0.252 NA
BRANCH  11  12
HETATM   12  C5  UNL     1      22.830   3.584  50.901  1.00  0.00     0.092 C 
HETATM   13  C4  UNL     1      21.933   2.896  50.220  1.00  0.00     0.038 C 
BRANCH  13  14
HETATM   14  C3  UNL     1      22.417   1.865  49.329  1.00  0.00    -0.002 C 
HETATM   15  C2  UNL     1      21.537   1.622  48.380  1.00  0.00    -0.031 C 
HETATM   16  C1  UNL     1      20.259   2.377  48.343  1.00  0.00     0.036 C 
ENDBRANCH  13  14
BRANCH  12  17
HETATM   17  S1  UNL     1      23.391   4.810  52.042  1.00  0.00    -0.115 SA
HETATM   18  C19 UNL     1      23.560   6.413  51.195  1.00  0.00     0.097 C 
ENDBRANCH  12  17
ENDBRANCH  11  12
ENDBRANCH   7  10
ENDBRANCH   1   7
BRANCH   5  19
HETATM   19  N4  UNL     1      25.614  -1.183  54.756  1.00  0.00    -0.222 N 
HETATM   20  H11 UNL     1      25.761  -2.128  54.341  1.00  0.00     0.177 HD
BRANCH  19  21
HETATM   21  C12 UNL     1      24.599  -0.816  55.715  1.00  0.00     0.142 C 
BRANCH  21  22
HETATM   22  C13 UNL     1      23.319  -1.569  55.486  1.00  0.00     0.060 C 
BRANCH  22  23
HETATM   23  C14 UNL     1      22.541  -0.913  54.420  1.00  0.00    -0.039 A 
HETATM   24  C15 UNL     1      22.715  -0.855  53.070  1.00  0.00     0.010 A 
HETATM   25  C16 UNL     1      21.832  -0.148  52.291  1.00  0.00     0.020 A 
HETATM   26  C17 UNL     1      20.741   0.523  52.854  1.00  0.00     0.116 A 
HETATM   27  N5  UNL     1      20.565   0.468  54.184  1.00  0.00    -0.273 NA
HETATM   28  C18 UNL     1      21.443  -0.232  54.951  1.00  0.00     0.123 A 
ENDBRANCH  22  23
ENDBRANCH  21  22
ENDBRANCH  19  21
ENDBRANCH   5  19
TORSDOF 9
ENDMDL
MODEL 5
REMARK VINA RESULT:      -7.4      4.867      7.934
REMARK  9 active torsions:
REMARK  status: ('A' for Active; 'I' for Inactive)
REMARK    1  A    between atoms: C3_3  and  C4_4 
REMARK    2  A    between atoms: C5_5  and  N1_6 
REMARK    3  A    between atoms: C5_5  and  S1_25 
REMARK    4  A    between atoms: C6_7  and  C7_8 
REMARK    5  A    between atoms: C7_8  and  C8_10 
REMARK    6  A    between atoms: C11_14  and  N4_15 
REMARK    7  A    between atoms: N4_15  and  C12_16 
REMARK    8  A    between atoms: C12_16  and  C13_17 
REMARK    9  A    between atoms: C13_17  and  C14_18 
ROOT
HETATM    1  C8  UNL     1      24.723   4.921  50.592  1.00  0.00     0.106 A 
HETATM    2  C9  UNL     1      25.505   5.466  49.599  1.00  0.00     0.054 A 
HETATM    3  C10 UNL     1      26.651   4.926  49.111  1.00  0.00     0.139 A 
HETATM    4  N3  UNL     1      27.064   3.761  49.636  1.00  0.00    -0.075 NA
HETATM    5  C11 UNL     1      26.342   3.172  50.613  1.00  0.00     0.722 A 
HETATM    6  N6  UNL     1      25.218   3.762  51.048  1.00  0.00    -0.061 NA
ENDROOT
BRANCH   1   7
HETATM    7  C7  UNL     1      23.491   5.473  51.136  1.00  0.00     0.095 C 
HETATM    8  N2  UNL     1      23.428   6.787  51.170  1.00  0.00    -0.297 NA
HETATM    9  H8  UNL     1      22.593   7.276  51.540  1.00  0.00     0.187 HD
BRANCH   7  10
HETATM   10  C6  UNL     1      22.369   4.651  51.624  1.00  0.00     0.151 C 
HETATM   11  N1  UNL     1      21.900   3.559  51.186  1.00  0.00    -0.252 NA
BRANCH  11  12
HETATM   12  C5  UNL     1      20.799   2.940  51.827  1.00  0.00     0.092 C 
HETATM   13  C4  UNL     1      20.950   1.875  52.592  1.00  0.00     0.038 C 
BRANCH  13  14
HETATM   14  C3  UNL     1      22.288   1.354  52.758  1.00  0.00    -0.002 C 
HETATM   15  C2  UNL     1      22.313   0.429  53.693  1.00  0.00    -0.031 C 
HETATM   16  C1  UNL     1      21.063   0.062  54.407  1.00  0.00     0.036 C 
ENDBRANCH  13  14
BRANCH  12  17
HETATM   17  S1  UNL     1      19.899   4.228  51.019  1.00  0.00    -0.115 SA
HETATM   18  C19 UNL     1      18.726   3.510  49.826  1.00  0.00     0.097 C 
ENDBRANCH  12  17
ENDBRANCH  11  12
ENDBRANCH   7  10
ENDBRANCH   1   7
BRANCH   5  19
HETATM   19  N4  UNL     1      26.747   1.917  51.207  1.00  0.00    -0.222 N 
HETATM   20  H11 UNL     1      27.407   1.355  50.628  1.00  0.00     0.177 HD
BRANCH  19  21
HETATM   21  C12 UNL     1      26.227   1.561  52.506  1.00  0.00     0.142 C 
BRANCH  21  22
HETATM   22  C13 UNL     1      25.935   0.091  52.603  1.00  0.00     0.060 C 
BRANCH  22  23
HETATM   23  C14 UNL     1      27.174  -0.642  52.915  1.00  0.00    -0.039 A 
HETATM   24  C15 UNL     1      28.372  -0.232  53.417  1.00  0.00     0.010 A 
HETATM   25  C16 UNL     1      29.387  -1.138  53.603  1.00  0.00     0.020 A 
HETATM   26  C17 UNL     1      29.223  -2.490  53.287  1.00  0.00     0.116 A 
HETATM   27  N5  UNL     1      28.044  -2.899  52.792  1.00  0.00    -0.273 NA
HETATM   28  C18 UNL     1      27.042  -1.999  52.609  1.00  0.00     0.123 A 
ENDBRANCH  22  23
ENDBRANCH  21  22
ENDBRANCH  19  21
ENDBRANCH   5  19
TORSDOF 9
ENDMDL
MODEL 6
REMARK VINA RESULT:      -7.4      4.862      8.150
REMARK  9 active torsions:
REMARK  status: ('A' for Active; 'I' for Inactive)
REMARK    1  A    between atoms: C3_3  and  C4_4 
REMARK    2  A    between atoms: C5_5  and  N1_6 
REMARK    3  A    between atoms: C5_5  and  S1_25 
REMARK    4  A    between atoms: C6_7  and  C7_8 
REMARK    5  A    between atoms: C7_8  and  C8_10 
REMARK    6  A    between atoms: C11_14  and  N4_15 
REMARK    7  A    between atoms: N4_15  and  C12_16 
REMARK    8  A    between atoms: C12_16  and  C13_17 
REMARK    9  A    between atoms: C13_17  and  C14_18 
ROOT
HETATM    1  C8  UNL     1      26.661   0.867  52.480  1.00  0.00     0.106 A 
HETATM    2  C9  UNL     1      27.431  -0.275  52.484  1.00  0.00     0.054 A 
HETATM    3  C10 UNL     1      27.073  -1.466  53.029  1.00  0.00     0.139 A 
HETATM    4  N3  UNL     1      25.868  -1.546  53.617  1.00  0.00    -0.075 NA
HETATM    5  C11 UNL     1      25.063  -0.462  53.647  1.00  0.00     0.722 A 
HETATM    6  N6  UNL     1      25.481   0.684  53.088  1.00  0.00    -0.061 NA
ENDROOT
BRANCH   1   7
HETATM    7  C7  UNL     1      27.015   2.156  51.905  1.00  0.00     0.095 C 
HETATM    8  N2  UNL     1      28.016   2.779  52.487  1.00  0.00    -0.297 NA
HETATM    9  H8  UNL     1      28.342   3.704  52.151  1.00  0.00     0.187 HD
BRANCH   7  10
HETATM   10  C6  UNL     1      26.323   2.754  50.748  1.00  0.00     0.151 C 
HETATM   11  N1  UNL     1      25.324   3.530  50.700  1.00  0.00    -0.252 NA
BRANCH  11  12
HETATM   12  C5  UNL     1      24.824   3.986  49.456  1.00  0.00     0.092 C 
HETATM   13  C4  UNL     1      23.609   3.681  49.042  1.00  0.00     0.038 C 
BRANCH  13  14
HETATM   14  C3  UNL     1      22.794   2.859  49.907  1.00  0.00    -0.002 C 
HETATM   15  C2  UNL     1      22.149   1.948  49.209  1.00  0.00    -0.031 C 
HETATM   16  C1  UNL     1      22.323   1.882  47.736  1.00  0.00     0.036 C 
ENDBRANCH  13  14
BRANCH  12  17
HETATM   17  S1  UNL     1      26.420   4.736  49.350  1.00  0.00    -0.115 SA
HETATM   18  C19 UNL     1      26.246   6.538  49.162  1.00  0.00     0.097 C 
ENDBRANCH  12  17
ENDBRANCH  11  12
ENDBRANCH   7  10
ENDBRANCH   1   7
BRANCH   5  19
HETATM   19  N4  UNL     1      23.757  -0.502  54.267  1.00  0.00    -0.222 N 
HETATM   20  H11 UNL     1      23.746  -0.234  55.274  1.00  0.00     0.177 HD
BRANCH  19  21
HETATM   21  C12 UNL     1      22.619  -0.891  53.469  1.00  0.00     0.142 C 
BRANCH  21  22
HETATM   22  C13 UNL     1      21.324  -0.500  54.122  1.00  0.00     0.060 C 
BRANCH  22  23
HETATM   23  C14 UNL     1      20.285  -0.313  53.093  1.00  0.00    -0.039 A 
HETATM   24  C15 UNL     1      20.285   0.373  51.915  1.00  0.00     0.010 A 
HETATM   25  C16 UNL     1      19.156   0.398  51.134  1.00  0.00     0.020 A 
HETATM   26  C17 UNL     1      17.989  -0.271  51.519  1.00  0.00     0.116 A 
HETATM   27  N5  UNL     1      17.985  -0.947  52.679  1.00  0.00    -0.273 NA
HETATM   28  C18 UNL     1      19.105  -0.969  53.449  1.00  0.00     0.123 A 
ENDBRANCH  22  23
ENDBRANCH  21  22
ENDBRANCH  19  21
ENDBRANCH   5  19
TORSDOF 9
ENDMDL
MODEL 7
REMARK VINA RESULT:      -7.3      4.389      6.602
REMARK  9 active torsions:
REMARK  status: ('A' for Active; 'I' for Inactive)
REMARK    1  A    between atoms: C3_3  and  C4_4 
REMARK    2  A    between atoms: C5_5  and  N1_6 
REMARK    3  A    between atoms: C5_5  and  S1_25 
REMARK    4  A    between atoms: C6_7  and  C7_8 
REMARK    5  A    between atoms: C7_8  and  C8_10 
REMARK    6  A    between atoms: C11_14  and  N4_15 
REMARK    7  A    between atoms: N4_15  and  C12_16 
REMARK    8  A    between atoms: C12_16  and  C13_17 
REMARK    9  A    between atoms: C13_17  and  C14_18 
ROOT
HETATM    1  C8  UNL     1      22.767   3.991  52.200  1.00  0.00     0.106 A 
HETATM    2  C9  UNL     1      21.436   3.990  51.849  1.00  0.00     0.054 A 
HETATM    3  C10 UNL     1      20.658   2.886  51.710  1.00  0.00     0.139 A 
HETATM    4  N3  UNL     1      21.227   1.690  51.931  1.00  0.00    -0.075 NA
HETATM    5  C11 UNL     1      22.530   1.620  52.279  1.00  0.00     0.722 A 
HETATM    6  N6  UNL     1      23.240   2.753  52.399  1.00  0.00    -0.061 NA
ENDROOT
BRANCH   1   7
HETATM    7  C7  UNL     1      23.627   5.154  52.358  1.00  0.00     0.095 C 
HETATM    8  N2  UNL     1      23.889   5.498  53.601  1.00  0.00    -0.297 NA
HETATM    9  H8  UNL     1      24.492   6.313  53.817  1.00  0.00     0.187 HD
BRANCH   7  10
HETATM   10  C6  UNL     1      24.187   5.919  51.229  1.00  0.00     0.151 C 
HETATM   11  N1  UNL     1      24.224   5.649  49.993  1.00  0.00    -0.252 NA
BRANCH  11  12
HETATM   12  C5  UNL     1      24.822   6.549  49.077  1.00  0.00     0.092 C 
HETATM   13  C4  UNL     1      25.993   6.298  48.521  1.00  0.00     0.038 C 
BRANCH  13  14
HETATM   14  C3  UNL     1      26.654   5.064  48.881  1.00  0.00    -0.002 C 
HETATM   15  C2  UNL     1      27.936   5.122  48.588  1.00  0.00    -0.031 C 
HETATM   16  C1  UNL     1      28.501   6.349  47.972  1.00  0.00     0.036 C 
ENDBRANCH  13  14
BRANCH  12  17
HETATM   17  S1  UNL     1      23.356   7.483  49.391  1.00  0.00    -0.115 SA
HETATM   18  C19 UNL     1      23.257   8.887  48.236  1.00  0.00     0.097 C 
ENDBRANCH  12  17
ENDBRANCH  11  12
ENDBRANCH   7  10
ENDBRANCH   1   7
BRANCH   5  19
HETATM   19  N4  UNL     1      23.184   0.355  52.528  1.00  0.00    -0.222 N 
HETATM   20  H11 UNL     1      22.814  -0.443  51.969  1.00  0.00     0.177 HD
BRANCH  19  21
HETATM   21  C12 UNL     1      24.258   0.304  53.491  1.00  0.00     0.142 C 
BRANCH  21  22
HETATM   22  C13 UNL     1      25.098  -0.930  53.322  1.00  0.00     0.060 C 
BRANCH  22  23
HETATM   23  C14 UNL     1      26.514  -0.604  53.560  1.00  0.00    -0.039 A 
HETATM   24  C15 UNL     1      27.662  -1.061  52.985  1.00  0.00     0.010 A 
HETATM   25  C16 UNL     1      28.880  -0.592  53.412  1.00  0.00     0.020 A 
HETATM   26  C17 UNL     1      28.977   0.358  54.435  1.00  0.00     0.116 A 
HETATM   27  N5  UNL     1      27.849   0.811  55.004  1.00  0.00    -0.273 NA
HETATM   28  C18 UNL     1      26.645   0.344  54.579  1.00  0.00     0.123 A 
ENDBRANCH  22  23
ENDBRANCH  21  22
ENDBRANCH  19  21
ENDBRANCH   5  19
TORSDOF 9
ENDMDL
MODEL 8
REMARK VINA RESULT:      -7.2      4.810      7.278
REMARK  9 active torsions:
REMARK  status: ('A' for Active; 'I' for Inactive)
REMARK    1  A    between atoms: C3_3  and  C4_4 
REMARK    2  A    between atoms: C5_5  and  N1_6 
REMARK    3  A    between atoms: C5_5  and  S1_25 
REMARK    4  A    between atoms: C6_7  and  C7_8 
REMARK    5  A    between atoms: C7_8  and  C8_10 
REMARK    6  A    between atoms: C11_14  and  N4_15 
REMARK    7  A    between atoms: N4_15  and  C12_16 
REMARK    8  A    between atoms: C12_16  and  C13_17 
REMARK    9  A    between atoms: C13_17  and  C14_18 
ROOT
HETATM    1  C8  UNL     1      22.036   3.626  52.054  1.00  0.00     0.106 A 
HETATM    2  C9  UNL     1      20.968   4.328  51.541  1.00  0.00     0.054 A 
HETATM    3  C10 UNL     1      19.674   3.919  51.557  1.00  0.00     0.139 A 
HETATM    4  N3  UNL     1      19.403   2.729  52.118  1.00  0.00    -0.075 NA
HETATM    5  C11 UNL     1      20.404   1.991  52.642  1.00  0.00     0.722 A 
HETATM    6  N6  UNL     1      21.662   2.457  52.592  1.00  0.00    -0.061 NA
ENDROOT
BRANCH   1   7
HETATM    7  C7  UNL     1      23.432   4.037  52.054  1.00  0.00     0.095 C 
HETATM    8  N2  UNL     1      24.192   3.457  52.957  1.00  0.00    -0.297 NA
HETATM    9  H8  UNL     1      25.200   3.683  53.037  1.00  0.00     0.187 HD
BRANCH   7  10
HETATM   10  C6  UNL     1      23.993   5.031  51.121  1.00  0.00     0.151 C 
HETATM   11  N1  UNL     1      24.521   4.880  49.980  1.00  0.00    -0.252 NA
BRANCH  11  12
HETATM   12  C5  UNL     1      24.998   5.998  49.253  1.00  0.00     0.092 C 
HETATM   13  C4  UNL     1      26.199   6.009  48.705  1.00  0.00     0.038 C 
BRANCH  13  14
HETATM   14  C3  UNL     1      27.022   4.833  48.873  1.00  0.00    -0.002 C 
HETATM   15  C2  UNL     1      28.255   5.069  48.476  1.00  0.00    -0.031 C 
HETATM   16  C1  UNL     1      28.620   6.408  47.947  1.00  0.00     0.036 C 
ENDBRANCH  13  14
BRANCH  12  17
HETATM   17  S1  UNL     1      23.412   6.655  49.668  1.00  0.00    -0.115 SA
HETATM   18  C19 UNL     1      22.389   6.797  48.169  1.00  0.00     0.097 C 
ENDBRANCH  12  17
ENDBRANCH  11  12
ENDBRANCH   7  10
ENDBRANCH   1   7
BRANCH   5  19
HETATM   19  N4  UNL     1      20.160   0.705  53.257  1.00  0.00    -0.222 N 
HETATM   20  H11 UNL     1      19.497   0.093  52.736  1.00  0.00     0.177 HD
BRANCH  19  21
HETATM   21  C12 UNL     1      20.832   0.387  54.495  1.00  0.00     0.142 C 
BRANCH  21  22
HETATM   22  C13 UNL     1      21.495  -0.959  54.437  1.00  0.00     0.060 C 
BRANCH  22  23
HETATM   23  C14 UNL     1      22.950  -0.789  54.280  1.00  0.00    -0.039 A 
HETATM   24  C15 UNL     1      23.706  -0.319  53.249  1.00  0.00     0.010 A 
HETATM   25  C16 UNL     1      25.074  -0.279  53.359  1.00  0.00     0.020 A 
HETATM   26  C17 UNL     1      25.724  -0.714  54.519  1.00  0.00     0.116 A 
HETATM   27  N5  UNL     1      24.983  -1.178  55.539  1.00  0.00    -0.273 NA
HETATM   28  C18 UNL     1      23.629  -1.217  55.424  1.00  0.00     0.123 A 
ENDBRANCH  22  23
ENDBRANCH  21  22
ENDBRANCH  19  21
ENDBRANCH   5  19
TORSDOF 9
ENDMDL
MODEL 9
REMARK VINA RESULT:      -7.2      5.623      9.585
REMARK  9 active torsions:
REMARK  status: ('A' for Active; 'I' for Inactive)
REMARK    1  A    between atoms: C3_3  and  C4_4 
REMARK    2  A    between atoms: C5_5  and  N1_6 
REMARK    3  A    between atoms: C5_5  and  S1_25 
REMARK    4  A    between atoms: C6_7  and  C7_8 
REMARK    5  A    between atoms: C7_8  and  C8_10 
REMARK    6  A    between atoms: C11_14  and  N4_15 
REMARK    7  A    between atoms: N4_15  and  C12_16 
REMARK    8  A    between atoms: C12_16  and  C13_17 
REMARK    9  A    between atoms: C13_17  and  C14_18 
ROOT
HETATM    1  C8  UNL     1      26.284   0.546  53.826  1.00  0.00     0.106 A 
HETATM    2  C9  UNL     1      27.562   0.570  54.338  1.00  0.00     0.054 A 
HETATM    3  C10 UNL     1      28.577   1.352  53.890  1.00  0.00     0.139 A 
HETATM    4  N3  UNL     1      28.322   2.176  52.860  1.00  0.00    -0.075 NA
HETATM    5  C11 UNL     1      27.088   2.203  52.312  1.00  0.00     0.722 A 
HETATM    6  N6  UNL     1      26.131   1.402  52.806  1.00  0.00    -0.061 NA
ENDROOT
BRANCH   1   7
HETATM    7  C7  UNL     1      25.176  -0.278  54.283  1.00  0.00     0.095 C 
HETATM    8  N2  UNL     1      25.407  -0.984  55.369  1.00  0.00    -0.297 NA
HETATM    9  H8  UNL     1      24.681  -1.603  55.773  1.00  0.00     0.187 HD
BRANCH   7  10
HETATM   10  C6  UNL     1      23.868  -0.344  53.605  1.00  0.00     0.151 C 
HETATM   11  N1  UNL     1      23.010   0.561  53.389  1.00  0.00    -0.252 NA
BRANCH  11  12
HETATM   12  C5  UNL     1      21.805   0.262  52.706  1.00  0.00     0.092 C 
HETATM   13  C4  UNL     1      21.591   0.665  51.467  1.00  0.00     0.038 C 
BRANCH  13  14
HETATM   14  C3  UNL     1      22.635   1.429  50.822  1.00  0.00    -0.002 C 
HETATM   15  C2  UNL     1      22.311   1.695  49.574  1.00  0.00    -0.031 C 
HETATM   16  C1  UNL     1      21.017   1.215  49.025  1.00  0.00     0.036 C 
ENDBRANCH  13  14
BRANCH  12  17
HETATM   17  S1  UNL     1      21.413  -0.547  54.226  1.00  0.00    -0.115 SA
HETATM   18  C19 UNL     1      19.935  -1.589  54.010  1.00  0.00     0.097 C 
ENDBRANCH  12  17
ENDBRANCH  11  12
ENDBRANCH   7  10
ENDBRANCH   1   7
BRANCH   5  19
HETATM   19  N4  UNL     1      26.767   3.074  51.204  1.00  0.00    -0.222 N 
HETATM   20  H11 UNL     1      27.566   3.282  50.569  1.00  0.00     0.177 HD
BRANCH  19  21
HETATM   21  C12 UNL     1      25.415   3.564  51.072  1.00  0.00     0.142 C 
BRANCH  21  22
HETATM   22  C13 UNL     1      25.328   4.698  50.091  1.00  0.00     0.060 C 
BRANCH  22  23
HETATM   23  C14 UNL     1      23.916   4.978  49.778  1.00  0.00    -0.039 A 
HETATM   24  C15 UNL     1      23.257   5.118  48.593  1.00  0.00     0.010 A 
HETATM   25  C16 UNL     1      21.913   5.397  48.583  1.00  0.00     0.020 A 
HETATM   26  C17 UNL     1      21.189   5.542  49.771  1.00  0.00     0.116 A 
HETATM   27  N5  UNL     1      21.835   5.405  50.941  1.00  0.00    -0.273 NA
HETATM   28  C18 UNL     1      23.166   5.129  50.947  1.00  0.00     0.123 A 
ENDBRANCH  22  23
ENDBRANCH  21  22
ENDBRANCH  19  21
ENDBRANCH   5  19
TORSDOF 9
ENDMDL
