MODEL 1
REMARK VINA RESULT:      -8.7      0.000      0.000
REMARK  5 active torsions:
REMARK  status: ('A' for Active; 'I' for Inactive)
REMARK    1  A    between atoms: O1_2  and  C2_3 
REMARK    2  A    between atoms: N1_9  and  S1_10 
REMARK    3  A    between atoms: S1_10  and  C8_11 
REMARK    4  A    between atoms: C9_12  and  N2_13 
REMARK    5  A    between atoms: C9_12  and  C10_14 
ROOT
HETATM    1  C2  UNL     1      23.688   4.146  50.457  1.00  0.00     0.105 A 
HETATM    2  C3  UNL     1      23.592   4.174  49.087  1.00  0.00     0.040 A 
HETATM    3  C4  UNL     1      23.055   3.166  48.325  1.00  0.00     0.010 A 
HETATM    4  C5  UNL     1      22.632   2.133  49.101  1.00  0.00    -0.055 A 
HETATM    5  C6  UNL     1      22.641   1.895  50.451  1.00  0.00     0.050 A 
HETATM    6  C7  UNL     1      23.207   3.015  51.090  1.00  0.00     0.202 A 
HETATM    7  N1  UNL     1      22.886   2.559  52.488  1.00  0.00     0.099 N 
HETATM    8  N3  UNL     1      21.441   2.135  52.592  1.00  0.00    -0.083 NA
HETATM    9  C16 UNL     1      20.564   2.362  51.511  1.00  0.00     0.021 C 
HETATM   10  C17 UNL     1      20.208   1.843  50.305  1.00  0.00    -0.057 C 
HETATM   11  C18 UNL     1      19.126   2.647  49.634  1.00  0.00     0.062 C 
HETATM   12  C19 UNL     1      19.519   4.095  49.551  1.00  0.00    -0.026 C 
HETATM   13  C20 UNL     1      19.888   4.526  50.742  1.00  0.00    -0.025 C 
HETATM   14  C21 UNL     1      19.867   3.589  51.934  1.00  0.00     0.080 C 
HETATM   15  C22 UNL     1      20.710   0.668  49.554  1.00  0.00     0.040 C 
HETATM   16  C23 UNL     1      21.726   1.099  48.486  1.00  0.00     0.043 C 
HETATM   17  H15 UNL     1      22.327   2.219  52.953  1.00  0.00     0.447 HD
ENDROOT
BRANCH   7  18
HETATM   18  S1  UNL     1      24.594   2.917  52.938  1.00  0.00     0.109 SA
BRANCH  18  19
HETATM   19  C8  UNL     1      25.477   1.368  52.829  1.00  0.00     0.107 C 
HETATM   20  C9  UNL     1      26.701   1.245  53.275  1.00  0.00     0.044 C 
BRANCH  20  21
HETATM   21  N2  UNL     1      27.312   2.370  53.846  1.00  0.00    -0.398 N 
HETATM   22  H8  UNL     1      27.825   3.105  54.329  1.00  0.00     0.156 HD
HETATM   23  H9  UNL     1      28.041   2.132  54.559  1.00  0.00     0.156 HD
ENDBRANCH  20  21
BRANCH  20  24
HETATM   24  C10 UNL     1      27.440  -0.014  53.198  1.00  0.00    -0.009 A 
HETATM   25  C11 UNL     1      28.756  -0.118  53.582  1.00  0.00     0.013 A 
HETATM   26  C12 UNL     1      29.416  -1.320  53.492  1.00  0.00     0.001 A 
HETATM   27  C13 UNL     1      28.746  -2.404  53.016  1.00  0.00     0.000 A 
HETATM   28  C14 UNL     1      27.441  -2.357  52.622  1.00  0.00     0.001 A 
HETATM   29  C15 UNL     1      26.777  -1.150  52.713  1.00  0.00     0.013 A 
ENDBRANCH  20  24
ENDBRANCH  18  19
ENDBRANCH   7  18
BRANCH   1  30
HETATM   30  O1  UNL     1      24.149   4.954  51.466  1.00  0.00    -0.354 OA
HETATM   31  C1  UNL     1      23.944   6.330  51.346  1.00  0.00     0.210 C 
ENDBRANCH   1  30
TORSDOF 5
ENDMDL
MODEL 2
REMARK VINA RESULT:      -8.7      1.824      3.628
REMARK  5 active torsions:
REMARK  status: ('A' for Active; 'I' for Inactive)
REMARK    1  A    between atoms: O1_2  and  C2_3 
REMARK    2  A    between atoms: N1_9  and  S1_10 
REMARK    3  A    between atoms: S1_10  and  C8_11 
REMARK    4  A    between atoms: C9_12  and  N2_13 
REMARK    5  A    between atoms: C9_12  and  C10_14 
ROOT
HETATM    1  C2  UNL     1      22.308   2.633  52.333  1.00  0.00     0.105 A 
HETATM    2  C3  UNL     1      21.056   3.135  52.071  1.00  0.00     0.040 A 
HETATM    3  C4  UNL     1      20.800   4.432  51.701  1.00  0.00     0.010 A 
HETATM    4  C5  UNL     1      21.946   5.160  51.630  1.00  0.00    -0.055 A 
HETATM    5  C6  UNL     1      23.267   4.873  51.856  1.00  0.00     0.050 A 
HETATM    6  C7  UNL     1      23.367   3.514  52.213  1.00  0.00     0.202 A 
HETATM    7  N1  UNL     1      24.870   3.467  52.178  1.00  0.00     0.099 N 
HETATM    8  N3  UNL     1      25.393   4.072  50.897  1.00  0.00    -0.083 NA
HETATM    9  C16 UNL     1      24.493   4.423  49.869  1.00  0.00     0.021 C 
HETATM   10  C17 UNL     1      23.628   5.408  49.506  1.00  0.00    -0.057 C 
HETATM   11  C18 UNL     1      22.952   5.118  48.192  1.00  0.00     0.062 C 
HETATM   12  C19 UNL     1      22.310   3.759  48.218  1.00  0.00    -0.026 C 
HETATM   13  C20 UNL     1      23.188   2.858  48.613  1.00  0.00    -0.025 C 
HETATM   14  C21 UNL     1      24.606   3.272  48.957  1.00  0.00     0.080 C 
HETATM   15  C22 UNL     1      23.235   6.668  50.179  1.00  0.00     0.040 C 
HETATM   16  C23 UNL     1      21.906   6.492  50.930  1.00  0.00     0.043 C 
HETATM   17  H15 UNL     1      25.524   3.703  51.774  1.00  0.00     0.447 HD
ENDROOT
BRANCH   7  18
HETATM   18  S1  UNL     1      24.828   2.669  53.792  1.00  0.00     0.109 SA
BRANCH  18  19
HETATM   19  C8  UNL     1      25.872   1.226  53.667  1.00  0.00     0.107 C 
HETATM   20  C9  UNL     1      27.177   1.319  53.698  1.00  0.00     0.044 C 
BRANCH  20  21
HETATM   21  N2  UNL     1      27.745   2.595  53.832  1.00  0.00    -0.398 N 
HETATM   22  H8  UNL     1      28.196   3.482  54.045  1.00  0.00     0.156 HD
HETATM   23  H9  UNL     1      28.233   2.740  54.747  1.00  0.00     0.156 HD
ENDBRANCH  20  21
BRANCH  20  24
HETATM   24  C10 UNL     1      28.049   0.151  53.599  1.00  0.00    -0.009 A 
HETATM   25  C11 UNL     1      29.380   0.196  53.942  1.00  0.00     0.013 A 
HETATM   26  C12 UNL     1      30.168  -0.925  53.832  1.00  0.00     0.001 A 
HETATM   27  C13 UNL     1      29.609  -2.079  53.380  1.00  0.00     0.000 A 
HETATM   28  C14 UNL     1      28.294  -2.181  53.027  1.00  0.00     0.001 A 
HETATM   29  C15 UNL     1      27.503  -1.055  53.137  1.00  0.00     0.013 A 
ENDBRANCH  20  24
ENDBRANCH  18  19
ENDBRANCH   7  18
BRANCH   1  30
HETATM   30  O1  UNL     1      22.874   1.440  52.706  1.00  0.00    -0.354 OA
HETATM   31  C1  UNL     1      22.265   0.263  52.265  1.00  0.00     0.210 C 
ENDBRANCH   1  30
TORSDOF 5
ENDMDL
MODEL 3
REMARK VINA RESULT:      -8.1      2.464      4.300
REMARK  5 active torsions:
REMARK  status: ('A' for Active; 'I' for Inactive)
REMARK    1  A    between atoms: O1_2  and  C2_3 
REMARK    2  A    between atoms: N1_9  and  S1_10 
REMARK    3  A    between atoms: S1_10  and  C8_11 
REMARK    4  A    between atoms: C9_12  and  N2_13 
REMARK    5  A    between atoms: C9_12  and  C10_14 
ROOT
HETATM    1  C2  UNL     1      23.586   3.876  49.542  1.00  0.00     0.105 A 
HETATM    2  C3  UNL     1      22.845   4.115  48.409  1.00  0.00     0.040 A 
HETATM    3  C4  UNL     1      21.915   5.116  48.285  1.00  0.00     0.010 A 
HETATM    4  C5  UNL     1      21.816   5.842  49.430  1.00  0.00    -0.055 A 
HETATM    5  C6  UNL     1      22.433   5.773  50.653  1.00  0.00     0.050 A 
HETATM    6  C7  UNL     1      23.359   4.713  50.619  1.00  0.00     0.202 A 
HETATM    7  N1  UNL     1      23.985   5.027  51.950  1.00  0.00     0.099 N 
HETATM    8  N3  UNL     1      24.341   6.492  52.039  1.00  0.00    -0.083 NA
HETATM    9  C16 UNL     1      24.230   7.311  50.896  1.00  0.00     0.021 C 
HETATM   10  C17 UNL     1      23.309   7.995  50.166  1.00  0.00    -0.057 C 
HETATM   11  C18 UNL     1      23.926   8.705  48.990  1.00  0.00     0.062 C 
HETATM   12  C19 UNL     1      24.731   7.746  48.159  1.00  0.00    -0.026 C 
HETATM   13  C20 UNL     1      25.576   7.089  48.929  1.00  0.00    -0.025 C 
HETATM   14  C21 UNL     1      25.623   7.364  50.420  1.00  0.00     0.080 C 
HETATM   15  C22 UNL     1      21.841   8.135  50.317  1.00  0.00     0.040 C 
HETATM   16  C23 UNL     1      21.104   7.167  49.379  1.00  0.00     0.043 C 
HETATM   17  H15 UNL     1      24.248   5.618  52.427  1.00  0.00     0.447 HD
ENDROOT
BRANCH   7  18
HETATM   18  S1  UNL     1      23.799   3.290  52.387  1.00  0.00     0.109 SA
BRANCH  18  19
HETATM   19  C8  UNL     1      25.399   2.741  52.960  1.00  0.00     0.107 C 
HETATM   20  C9  UNL     1      25.828   1.526  52.735  1.00  0.00     0.044 C 
BRANCH  20  21
HETATM   21  N2  UNL     1      24.992   0.651  52.026  1.00  0.00    -0.398 N 
HETATM   22  H8  UNL     1      24.451   0.050  51.408  1.00  0.00     0.156 HD
HETATM   23  H9  UNL     1      25.206   0.608  51.002  1.00  0.00     0.156 HD
ENDBRANCH  20  21
BRANCH  20  24
HETATM   24  C10 UNL     1      27.134   1.058  53.193  1.00  0.00    -0.009 A 
HETATM   25  C11 UNL     1      28.065   1.905  53.748  1.00  0.00     0.013 A 
HETATM   26  C12 UNL     1      29.284   1.426  54.164  1.00  0.00     0.001 A 
HETATM   27  C13 UNL     1      29.555   0.101  54.017  1.00  0.00     0.000 A 
HETATM   28  C14 UNL     1      28.669  -0.783  53.473  1.00  0.00     0.001 A 
HETATM   29  C15 UNL     1      27.444  -0.302  53.056  1.00  0.00     0.013 A 
ENDBRANCH  20  24
ENDBRANCH  18  19
ENDBRANCH   7  18
BRANCH   1  30
HETATM   30  O1  UNL     1      24.552   2.998  49.966  1.00  0.00    -0.354 OA
HETATM   31  C1  UNL     1      25.855   3.187  49.502  1.00  0.00     0.210 C 
ENDBRANCH   1  30
TORSDOF 5
ENDMDL
MODEL 4
REMARK VINA RESULT:      -8.0      1.576      3.420
REMARK  5 active torsions:
REMARK  status: ('A' for Active; 'I' for Inactive)
REMARK    1  A    between atoms: O1_2  and  C2_3 
REMARK    2  A    between atoms: N1_9  and  S1_10 
REMARK    3  A    between atoms: S1_10  and  C8_11 
REMARK    4  A    between atoms: C9_12  and  N2_13 
REMARK    5  A    between atoms: C9_12  and  C10_14 
ROOT
HETATM    1  C2  UNL     1      21.439   2.689  52.051  1.00  0.00     0.105 A 
HETATM    2  C3  UNL     1      20.330   3.491  51.934  1.00  0.00     0.040 A 
HETATM    3  C4  UNL     1      20.324   4.727  51.337  1.00  0.00     0.010 A 
HETATM    4  C5  UNL     1      21.560   5.059  50.879  1.00  0.00    -0.055 A 
HETATM    5  C6  UNL     1      22.779   4.433  50.900  1.00  0.00     0.050 A 
HETATM    6  C7  UNL     1      22.620   3.183  51.529  1.00  0.00     0.202 A 
HETATM    7  N1  UNL     1      24.004   2.686  51.211  1.00  0.00     0.099 N 
HETATM    8  N3  UNL     1      24.322   2.891  49.749  1.00  0.00    -0.083 NA
HETATM    9  C16 UNL     1      23.310   3.321  48.865  1.00  0.00     0.021 C 
HETATM   10  C17 UNL     1      22.658   4.446  48.465  1.00  0.00    -0.057 C 
HETATM   11  C18 UNL     1      21.622   4.161  47.411  1.00  0.00     0.062 C 
HETATM   12  C19 UNL     1      20.686   3.078  47.870  1.00  0.00    -0.026 C 
HETATM   13  C20 UNL     1      21.379   2.033  48.280  1.00  0.00    -0.025 C 
HETATM   14  C21 UNL     1      22.895   2.057  48.235  1.00  0.00     0.080 C 
HETATM   15  C22 UNL     1      22.778   5.859  48.898  1.00  0.00     0.040 C 
HETATM   16  C23 UNL     1      21.682   6.210  49.916  1.00  0.00     0.043 C 
HETATM   17  H15 UNL     1      24.572   2.648  50.644  1.00  0.00     0.447 HD
ENDROOT
BRANCH   7  18
HETATM   18  S1  UNL     1      24.172   2.211  52.940  1.00  0.00     0.109 SA
BRANCH  18  19
HETATM   19  C8  UNL     1      25.278   0.809  52.971  1.00  0.00     0.107 C 
HETATM   20  C9  UNL     1      26.574   0.961  53.073  1.00  0.00     0.044 C 
BRANCH  20  21
HETATM   21  N2  UNL     1      27.081   2.266  53.158  1.00  0.00    -0.398 N 
HETATM   22  H8  UNL     1      27.361   3.244  53.135  1.00  0.00     0.156 HD
HETATM   23  H9  UNL     1      26.579   2.950  52.546  1.00  0.00     0.156 HD
ENDBRANCH  20  21
BRANCH  20  24
HETATM   24  C10 UNL     1      27.496  -0.172  53.104  1.00  0.00    -0.009 A 
HETATM   25  C11 UNL     1      27.096  -1.454  52.806  1.00  0.00     0.013 A 
HETATM   26  C12 UNL     1      27.994  -2.493  52.848  1.00  0.00     0.001 A 
HETATM   27  C13 UNL     1      29.285  -2.233  53.190  1.00  0.00     0.000 A 
HETATM   28  C14 UNL     1      29.736  -0.981  53.493  1.00  0.00     0.001 A 
HETATM   29  C15 UNL     1      28.834   0.063  53.450  1.00  0.00     0.013 A 
ENDBRANCH  20  24
ENDBRANCH  18  19
ENDBRANCH   7  18
BRANCH   1  30
HETATM   30  O1  UNL     1      21.762   1.459  52.567  1.00  0.00    -0.354 OA
HETATM   31  C1  UNL     1      20.718   0.643  53.008  1.00  0.00     0.210 C 
ENDBRANCH   1  30
TORSDOF 5
ENDMDL
MODEL 5
REMARK VINA RESULT:      -7.6      3.963      5.984
REMARK  5 active torsions:
REMARK  status: ('A' for Active; 'I' for Inactive)
REMARK    1  A    between atoms: O1_2  and  C2_3 
REMARK    2  A    between atoms: N1_9  and  S1_10 
REMARK    3  A    between atoms: S1_10  and  C8_11 
REMARK    4  A    between atoms: C9_12  and  N2_13 
REMARK    5  A    between atoms: C9_12  and  C10_14 
ROOT
HETATM    1  C2  UNL     1      23.250   5.372  49.182  1.00  0.00     0.105 A 
HETATM    2  C3  UNL     1      23.299   4.172  48.514  1.00  0.00     0.040 A 
HETATM    3  C4  UNL     1      24.036   3.087  48.918  1.00  0.00     0.010 A 
HETATM    4  C5  UNL     1      24.717   3.352  50.064  1.00  0.00    -0.055 A 
HETATM    5  C6  UNL     1      24.823   4.455  50.870  1.00  0.00     0.050 A 
HETATM    6  C7  UNL     1      24.007   5.471  50.335  1.00  0.00     0.202 A 
HETATM    7  N1  UNL     1      24.163   6.409  51.501  1.00  0.00     0.099 N 
HETATM    8  N3  UNL     1      23.912   5.687  52.803  1.00  0.00    -0.083 NA
HETATM    9  C16 UNL     1      23.419   4.365  52.789  1.00  0.00     0.021 C 
HETATM   10  C17 UNL     1      23.833   3.080  52.623  1.00  0.00    -0.057 C 
HETATM   11  C18 UNL     1      22.700   2.096  52.746  1.00  0.00     0.062 C 
HETATM   12  C19 UNL     1      21.575   2.469  51.821  1.00  0.00    -0.026 C 
HETATM   13  C20 UNL     1      21.248   3.733  52.004  1.00  0.00    -0.025 C 
HETATM   14  C21 UNL     1      21.982   4.571  53.033  1.00  0.00     0.080 C 
HETATM   15  C22 UNL     1      25.168   2.507  52.328  1.00  0.00     0.040 C 
HETATM   16  C23 UNL     1      25.307   2.198  50.830  1.00  0.00     0.043 C 
HETATM   17  H15 UNL     1      24.188   6.459  52.302  1.00  0.00     0.447 HD
ENDROOT
BRANCH   7  18
HETATM   18  S1  UNL     1      24.539   7.721  50.325  1.00  0.00     0.109 SA
BRANCH  18  19
HETATM   19  C8  UNL     1      26.230   7.463  49.810  1.00  0.00     0.107 C 
HETATM   20  C9  UNL     1      26.541   7.263  48.555  1.00  0.00     0.044 C 
BRANCH  20  21
HETATM   21  N2  UNL     1      25.504   7.254  47.611  1.00  0.00    -0.398 N 
HETATM   22  H8  UNL     1      24.840   7.219  46.840  1.00  0.00     0.156 HD
HETATM   23  H9  UNL     1      25.825   7.031  46.640  1.00  0.00     0.156 HD
ENDBRANCH  20  21
BRANCH  20  24
HETATM   24  C10 UNL     1      27.918   7.053  48.113  1.00  0.00    -0.009 A 
HETATM   25  C11 UNL     1      28.649   8.040  47.494  1.00  0.00     0.013 A 
HETATM   26  C12 UNL     1      29.941   7.801  47.090  1.00  0.00     0.001 A 
HETATM   27  C13 UNL     1      30.483   6.574  47.313  1.00  0.00     0.000 A 
HETATM   28  C14 UNL     1      29.804   5.560  47.922  1.00  0.00     0.001 A 
HETATM   29  C15 UNL     1      28.506   5.799  48.328  1.00  0.00     0.013 A 
ENDBRANCH  20  24
ENDBRANCH  18  19
ENDBRANCH   7  18
BRANCH   1  30
HETATM   30  O1  UNL     1      22.640   6.594  49.047  1.00  0.00    -0.354 OA
HETATM   31  C1  UNL     1      21.245   6.624  49.004  1.00  0.00     0.210 C 
ENDBRANCH   1  30
TORSDOF 5
ENDMDL
MODEL 6
REMARK VINA RESULT:      -7.5      5.839      9.091
REMARK  5 active torsions:
REMARK  status: ('A' for Active; 'I' for Inactive)
REMARK    1  A    between atoms: O1_2  and  C2_3 
REMARK    2  A    between atoms: N1_9  and  S1_10 
REMARK    3  A    between atoms: S1_10  and  C8_11 
REMARK    4  A    between atoms: C9_12  and  N2_13 
REMARK    5  A    between atoms: C9_12  and  C10_14 
ROOT
HETATM    1  C2  UNL     1      26.546   9.685  48.080  1.00  0.00     0.105 A 
HETATM    2  C3  UNL     1      26.960  10.951  47.740  1.00  0.00     0.040 A 
HETATM    3  C4  UNL     1      28.144  11.516  48.145  1.00  0.00     0.010 A 
HETATM    4  C5  UNL     1      28.854  10.664  48.930  1.00  0.00    -0.055 A 
HETATM    5  C6  UNL     1      28.630   9.394  49.395  1.00  0.00     0.050 A 
HETATM    6  C7  UNL     1      27.393   8.952  48.889  1.00  0.00     0.202 A 
HETATM    7  N1  UNL     1      27.540   7.534  49.371  1.00  0.00     0.099 N 
HETATM    8  N3  UNL     1      28.889   6.976  48.985  1.00  0.00    -0.083 NA
HETATM    9  C16 UNL     1      29.732   7.712  48.126  1.00  0.00     0.021 C 
HETATM   10  C17 UNL     1      30.614   8.747  48.134  1.00  0.00    -0.057 C 
HETATM   11  C18 UNL     1      31.190   9.017  46.770  1.00  0.00     0.062 C 
HETATM   12  C19 UNL     1      30.092   9.197  45.760  1.00  0.00    -0.026 C 
HETATM   13  C20 UNL     1      29.253   8.182  45.828  1.00  0.00    -0.025 C 
HETATM   14  C21 UNL     1      29.485   7.064  46.826  1.00  0.00     0.080 C 
HETATM   15  C22 UNL     1      31.070   9.641  49.225  1.00  0.00     0.040 C 
HETATM   16  C23 UNL     1      30.304  10.972  49.193  1.00  0.00     0.043 C 
HETATM   17  H15 UNL     1      28.050   6.919  49.451  1.00  0.00     0.447 HD
ENDROOT
BRANCH   7  18
HETATM   18  S1  UNL     1      25.879   7.654  50.057  1.00  0.00     0.109 SA
BRANCH  18  19
HETATM   19  C8  UNL     1      25.224   5.992  50.079  1.00  0.00     0.107 C 
HETATM   20  C9  UNL     1      24.477   5.563  51.065  1.00  0.00     0.044 C 
BRANCH  20  21
HETATM   21  N2  UNL     1      24.201   6.447  52.118  1.00  0.00    -0.398 N 
HETATM   22  H8  UNL     1      23.964   6.987  52.948  1.00  0.00     0.156 HD
HETATM   23  H9  UNL     1      23.842   5.972  52.979  1.00  0.00     0.156 HD
ENDBRANCH  20  21
BRANCH  20  24
HETATM   24  C10 UNL     1      23.929   4.209  51.101  1.00  0.00    -0.009 A 
HETATM   25  C11 UNL     1      23.508   3.556  49.966  1.00  0.00     0.013 A 
HETATM   26  C12 UNL     1      22.996   2.283  50.043  1.00  0.00     0.001 A 
HETATM   27  C13 UNL     1      22.912   1.680  51.259  1.00  0.00     0.000 A 
HETATM   28  C14 UNL     1      23.316   2.281  52.416  1.00  0.00     0.001 A 
HETATM   29  C15 UNL     1      23.831   3.559  52.339  1.00  0.00     0.013 A 
ENDBRANCH  20  24
ENDBRANCH  18  19
ENDBRANCH   7  18
BRANCH   1  30
HETATM   30  O1  UNL     1      25.470   8.865  47.849  1.00  0.00    -0.354 OA
HETATM   31  C1  UNL     1      24.857   8.930  46.596  1.00  0.00     0.210 C 
ENDBRANCH   1  30
TORSDOF 5
ENDMDL
MODEL 7
REMARK VINA RESULT:      -7.3      3.513      6.143
REMARK  5 active torsions:
REMARK  status: ('A' for Active; 'I' for Inactive)
REMARK    1  A    between atoms: O1_2  and  C2_3 
REMARK    2  A    between atoms: N1_9  and  S1_10 
REMARK    3  A    between atoms: S1_10  and  C8_11 
REMARK    4  A    between atoms: C9_12  and  N2_13 
REMARK    5  A    between atoms: C9_12  and  C10_14 
ROOT
HETATM    1  C2  UNL     1      24.163   2.943  51.289  1.00  0.00     0.105 A 
HETATM    2  C3  UNL     1      23.891   1.871  52.105  1.00  0.00     0.040 A 
HETATM    3  C4  UNL     1      22.677   1.638  52.702  1.00  0.00     0.010 A 
HETATM    4  C5  UNL     1      21.776   2.605  52.384  1.00  0.00    -0.055 A 
HETATM    5  C6  UNL     1      21.835   3.740  51.618  1.00  0.00     0.050 A 
HETATM    6  C7  UNL     1      23.129   3.834  51.070  1.00  0.00     0.202 A 
HETATM    7  N1  UNL     1      22.816   4.992  50.162  1.00  0.00     0.099 N 
HETATM    8  N3  UNL     1      21.554   4.728  49.376  1.00  0.00    -0.083 NA
HETATM    9  C16 UNL     1      20.948   3.455  49.430  1.00  0.00     0.021 C 
HETATM   10  C17 UNL     1      20.135   2.698  50.216  1.00  0.00    -0.057 C 
HETATM   11  C18 UNL     1      19.874   1.339  49.624  1.00  0.00     0.062 C 
HETATM   12  C19 UNL     1      21.169   0.650  49.294  1.00  0.00    -0.026 C 
HETATM   13  C20 UNL     1      21.925   1.448  48.565  1.00  0.00    -0.025 C 
HETATM   14  C21 UNL     1      21.433   2.831  48.187  1.00  0.00     0.080 C 
HETATM   15  C22 UNL     1      19.502   2.974  51.527  1.00  0.00     0.040 C 
HETATM   16  C23 UNL     1      20.320   2.348  52.667  1.00  0.00     0.043 C 
HETATM   17  H15 UNL     1      22.271   5.301  49.659  1.00  0.00     0.447 HD
ENDROOT
BRANCH   7  18
HETATM   18  S1  UNL     1      24.298   5.808  50.782  1.00  0.00     0.109 SA
BRANCH  18  19
HETATM   19  C8  UNL     1      25.287   6.207  49.349  1.00  0.00     0.107 C 
HETATM   20  C9  UNL     1      26.247   7.094  49.405  1.00  0.00     0.044 C 
BRANCH  20  21
HETATM   21  N2  UNL     1      26.484   7.734  50.630  1.00  0.00    -0.398 N 
HETATM   22  H8  UNL     1      26.549   8.262  51.498  1.00  0.00     0.156 HD
HETATM   23  H9  UNL     1      25.744   8.427  50.889  1.00  0.00     0.156 HD
ENDBRANCH  20  21
BRANCH  20  24
HETATM   24  C10 UNL     1      27.070   7.433  48.246  1.00  0.00    -0.009 A 
HETATM   25  C11 UNL     1      26.593   8.190  47.202  1.00  0.00     0.013 A 
HETATM   26  C12 UNL     1      27.398   8.485  46.128  1.00  0.00     0.001 A 
HETATM   27  C13 UNL     1      28.674   8.014  46.115  1.00  0.00     0.000 A 
HETATM   28  C14 UNL     1      29.199   7.260  47.124  1.00  0.00     0.001 A 
HETATM   29  C15 UNL     1      28.390   6.964  48.203  1.00  0.00     0.013 A 
ENDBRANCH  20  24
ENDBRANCH  18  19
ENDBRANCH   7  18
BRANCH   1  30
HETATM   30  O1  UNL     1      25.222   3.439  50.571  1.00  0.00    -0.354 OA
HETATM   31  C1  UNL     1      26.433   2.747  50.634  1.00  0.00     0.210 C 
ENDBRANCH   1  30
TORSDOF 5
ENDMDL
MODEL 8
REMARK VINA RESULT:      -7.2      8.117     10.822
REMARK  5 active torsions:
REMARK  status: ('A' for Active; 'I' for Inactive)
REMARK    1  A    between atoms: O1_2  and  C2_3 
REMARK    2  A    between atoms: N1_9  and  S1_10 
REMARK    3  A    between atoms: S1_10  and  C8_11 
REMARK    4  A    between atoms: C9_12  and  N2_13 
REMARK    5  A    between atoms: C9_12  and  C10_14 
ROOT
HETATM    1  C2  UNL     1      30.194   9.548  48.522  1.00  0.00     0.105 A 
HETATM    2  C3  UNL     1      31.112   9.279  49.508  1.00  0.00     0.040 A 
HETATM    3  C4  UNL     1      31.909   8.162  49.546  1.00  0.00     0.010 A 
HETATM    4  C5  UNL     1      31.670   7.350  48.482  1.00  0.00    -0.055 A 
HETATM    5  C6  UNL     1      30.813   7.414  47.414  1.00  0.00     0.050 A 
HETATM    6  C7  UNL     1      30.079   8.612  47.510  1.00  0.00     0.202 A 
HETATM    7  N1  UNL     1      29.431   8.492  46.158  1.00  0.00     0.099 N 
HETATM    8  N3  UNL     1      30.462   8.185  45.098  1.00  0.00    -0.083 NA
HETATM    9  C16 UNL     1      31.834   8.221  45.424  1.00  0.00     0.021 C 
HETATM   10  C17 UNL     1      32.806   7.471  46.012  1.00  0.00    -0.057 C 
HETATM   11  C18 UNL     1      34.140   8.169  46.018  1.00  0.00     0.062 C 
HETATM   12  C19 UNL     1      34.015   9.539  46.625  1.00  0.00    -0.026 C 
HETATM   13  C20 UNL     1      33.035  10.198  46.039  1.00  0.00    -0.025 C 
HETATM   14  C21 UNL     1      32.234   9.548  44.927  1.00  0.00     0.080 C 
HETATM   15  C22 UNL     1      32.765   6.133  46.648  1.00  0.00     0.040 C 
HETATM   16  C23 UNL     1      32.662   6.260  48.175  1.00  0.00     0.043 C 
HETATM   17  H15 UNL     1      29.553   8.295  45.388  1.00  0.00     0.447 HD
ENDROOT
BRANCH   7  18
HETATM   18  S1  UNL     1      27.849   8.841  46.945  1.00  0.00     0.109 SA
BRANCH  18  19
HETATM   19  C8  UNL     1      27.182   7.264  47.452  1.00  0.00     0.107 C 
HETATM   20  C9  UNL     1      26.956   6.988  48.711  1.00  0.00     0.044 C 
BRANCH  20  21
HETATM   21  N2  UNL     1      27.255   7.970  49.666  1.00  0.00    -0.398 N 
HETATM   22  H8  UNL     1      27.438   8.768  50.272  1.00  0.00     0.156 HD
HETATM   23  H9  UNL     1      27.094   8.947  49.326  1.00  0.00     0.156 HD
ENDBRANCH  20  21
BRANCH  20  24
HETATM   24  C10 UNL     1      26.408   5.705  49.146  1.00  0.00    -0.009 A 
HETATM   25  C11 UNL     1      27.098   4.525  49.002  1.00  0.00     0.013 A 
HETATM   26  C12 UNL     1      26.546   3.338  49.423  1.00  0.00     0.001 A 
HETATM   27  C13 UNL     1      25.306   3.352  49.982  1.00  0.00     0.000 A 
HETATM   28  C14 UNL     1      24.578   4.493  50.149  1.00  0.00     0.001 A 
HETATM   29  C15 UNL     1      25.133   5.685  49.728  1.00  0.00     0.013 A 
ENDBRANCH  20  24
ENDBRANCH  18  19
ENDBRANCH   7  18
BRANCH   1  30
HETATM   30  O1  UNL     1      29.287  10.529  48.209  1.00  0.00    -0.354 OA
HETATM   31  C1  UNL     1      29.299  11.696  48.974  1.00  0.00     0.210 C 
ENDBRANCH   1  30
TORSDOF 5
ENDMDL
MODEL 9
REMARK VINA RESULT:      -7.2      4.660      5.550
REMARK  5 active torsions:
REMARK  status: ('A' for Active; 'I' for Inactive)
REMARK    1  A    between atoms: O1_2  and  C2_3 
REMARK    2  A    between atoms: N1_9  and  S1_10 
REMARK    3  A    between atoms: S1_10  and  C8_11 
REMARK    4  A    between atoms: C9_12  and  N2_13 
REMARK    5  A    between atoms: C9_12  and  C10_14 
ROOT
HETATM    1  C2  UNL     1      23.428   6.030  48.418  1.00  0.00     0.105 A 
HETATM    2  C3  UNL     1      22.255   5.564  47.874  1.00  0.00     0.040 A 
HETATM    3  C4  UNL     1      21.862   4.249  47.884  1.00  0.00     0.010 A 
HETATM    4  C5  UNL     1      22.785   3.463  48.498  1.00  0.00    -0.055 A 
HETATM    5  C6  UNL     1      24.000   3.709  49.085  1.00  0.00     0.050 A 
HETATM    6  C7  UNL     1      24.255   5.092  49.006  1.00  0.00     0.202 A 
HETATM    7  N1  UNL     1      25.479   5.061  49.881  1.00  0.00     0.099 N 
HETATM    8  N3  UNL     1      25.205   4.297  51.154  1.00  0.00    -0.083 NA
HETATM    9  C16 UNL     1      23.891   3.882  51.454  1.00  0.00     0.021 C 
HETATM   10  C17 UNL     1      22.991   2.907  51.154  1.00  0.00    -0.057 C 
HETATM   11  C18 UNL     1      21.689   3.087  51.889  1.00  0.00     0.062 C 
HETATM   12  C19 UNL     1      21.144   4.470  51.666  1.00  0.00    -0.026 C 
HETATM   13  C20 UNL     1      22.075   5.365  51.937  1.00  0.00    -0.025 C 
HETATM   14  C21 UNL     1      23.449   4.922  52.399  1.00  0.00     0.080 C 
HETATM   15  C22 UNL     1      23.069   1.747  50.236  1.00  0.00     0.040 C 
HETATM   16  C23 UNL     1      22.387   2.067  48.897  1.00  0.00     0.043 C 
HETATM   17  H15 UNL     1      25.798   4.752  50.550  1.00  0.00     0.447 HD
ENDROOT
BRANCH   7  18
HETATM   18  S1  UNL     1      26.333   6.029  48.624  1.00  0.00     0.109 SA
BRANCH  18  19
HETATM   19  C8  UNL     1      28.012   5.420  48.578  1.00  0.00     0.107 C 
HETATM   20  C9  UNL     1      29.012   6.193  48.240  1.00  0.00     0.044 C 
BRANCH  20  21
HETATM   21  N2  UNL     1      28.733   7.527  47.908  1.00  0.00    -0.398 N 
HETATM   22  H8  UNL     1      28.424   8.481  47.735  1.00  0.00     0.156 HD
HETATM   23  H9  UNL     1      27.827   7.874  48.301  1.00  0.00     0.156 HD
ENDBRANCH  20  21
BRANCH  20  24
HETATM   24  C10 UNL     1      30.393   5.716  48.198  1.00  0.00    -0.009 A 
HETATM   25  C11 UNL     1      30.789   4.683  47.382  1.00  0.00     0.013 A 
HETATM   26  C12 UNL     1      32.097   4.262  47.374  1.00  0.00     0.001 A 
HETATM   27  C13 UNL     1      32.992   4.884  48.188  1.00  0.00     0.000 A 
HETATM   28  C14 UNL     1      32.654   5.913  49.017  1.00  0.00     0.001 A 
HETATM   29  C15 UNL     1      31.340   6.337  49.024  1.00  0.00     0.013 A 
ENDBRANCH  20  24
ENDBRANCH  18  19
ENDBRANCH   7  18
BRANCH   1  30
HETATM   30  O1  UNL     1      24.082   7.228  48.566  1.00  0.00    -0.354 OA
HETATM   31  C1  UNL     1      23.432   8.242  49.271  1.00  0.00     0.210 C 
ENDBRANCH   1  30
TORSDOF 5
ENDMDL
