MODEL 1
REMARK VINA RESULT:      -9.0      0.000      0.000
REMARK  1 active torsions:
REMARK  status: ('A' for Active; 'I' for Inactive)
REMARK    1  A    between atoms: N3_12  and  C10_13 
ROOT
HETATM    1  C1  UNL     1      20.447   0.865  53.396  1.00  0.00     0.057 C 
HETATM    2  C2  UNL     1      21.308   1.157  52.158  1.00  0.00     0.198 C 
HETATM    3  N1  UNL     1      22.659   1.236  52.712  1.00  0.00    -0.278 NA
HETATM    4  C3  UNL     1      23.716   1.002  52.083  1.00  0.00     0.117 C 
HETATM    5  C4  UNL     1      24.880   1.205  53.023  1.00  0.00     0.170 C 
HETATM    6  C5  UNL     1      24.694   2.631  53.512  1.00  0.00     0.123 C 
HETATM    7  N2  UNL     1      24.375   3.728  52.825  1.00  0.00    -0.245 NA
HETATM    8  C6  UNL     1      24.157   3.877  51.388  1.00  0.00     0.122 C 
HETATM    9  C7  UNL     1      25.090   3.660  50.441  1.00  0.00     0.051 C 
HETATM   10  C8  UNL     1      26.266   2.751  50.359  1.00  0.00     0.021 C 
HETATM   11  C9  UNL     1      26.707   1.774  51.178  1.00  0.00     0.092 C 
HETATM   12  N3  UNL     1      26.151   1.099  52.329  1.00  0.00    -0.343 N 
HETATM   13  N5  UNL     1      22.973   4.227  50.690  1.00  0.00    -0.373 N 
HETATM   14  C15 UNL     1      21.741   4.693  51.324  1.00  0.00     0.141 C 
HETATM   15  C16 UNL     1      21.164   3.577  52.181  1.00  0.00     0.138 C 
HETATM   16  N6  UNL     1      20.965   2.369  51.529  1.00  0.00    -0.394 N 
HETATM   17  C17 UNL     1      19.946   2.324  50.581  1.00  0.00     0.145 C 
HETATM   18  H15 UNL     1      23.027   4.133  49.674  1.00  0.00     0.161 HD
ENDROOT
BRANCH  12  19
HETATM   19  C10 UNL     1      27.189   0.186  52.742  1.00  0.00     0.050 A 
HETATM   20  C11 UNL     1      28.303   0.572  53.343  1.00  0.00     0.105 A 
HETATM   21 BR1  UNL     1      28.656   2.392  53.730  1.00  0.00    -0.029 Br
HETATM   22  N4  UNL     1      29.191  -0.491  53.665  1.00  0.00    -0.326 N 
HETATM   23  C12 UNL     1      28.810  -1.807  53.323  1.00  0.00     0.185 A 
HETATM   24  H11 UNL     1      30.076  -0.286  54.132  1.00  0.00     0.169 HD
HETATM   25  F1  UNL     1      29.642  -2.848  53.621  1.00  0.00    -0.186 F 
HETATM   26  C13 UNL     1      27.690  -2.165  52.722  1.00  0.00     0.041 A 
HETATM   27  C14 UNL     1      26.683  -1.146  52.337  1.00  0.00     0.092 A 
ENDBRANCH  12  19
TORSDOF 1
ENDMDL
MODEL 2
REMARK VINA RESULT:      -8.1      3.602      6.723
REMARK  1 active torsions:
REMARK  status: ('A' for Active; 'I' for Inactive)
REMARK    1  A    between atoms: N3_12  and  C10_13 
ROOT
HETATM    1  C1  UNL     1      26.647  -0.443  51.956  1.00  0.00     0.057 C 
HETATM    2  C2  UNL     1      25.892   0.742  52.575  1.00  0.00     0.198 C 
HETATM    3  N1  UNL     1      24.537   0.577  52.048  1.00  0.00    -0.278 NA
HETATM    4  C3  UNL     1      23.490   0.990  52.595  1.00  0.00     0.117 C 
HETATM    5  C4  UNL     1      22.319   0.616  51.718  1.00  0.00     0.170 C 
HETATM    6  C5  UNL     1      22.667   1.244  50.379  1.00  0.00     0.123 C 
HETATM    7  N2  UNL     1      23.159   2.454  50.112  1.00  0.00    -0.245 NA
HETATM    8  C6  UNL     1      23.463   3.543  51.038  1.00  0.00     0.122 C 
HETATM    9  C7  UNL     1      22.556   4.176  51.806  1.00  0.00     0.051 C 
HETATM   10  C8  UNL     1      21.276   3.747  52.434  1.00  0.00     0.021 C 
HETATM   11  C9  UNL     1      20.672   2.544  52.516  1.00  0.00     0.092 C 
HETATM   12  N3  UNL     1      21.080   1.192  52.209  1.00  0.00    -0.343 N 
HETATM   13  N5  UNL     1      24.714   4.130  51.356  1.00  0.00    -0.373 N 
HETATM   14  C15 UNL     1      25.965   3.853  50.651  1.00  0.00     0.141 C 
HETATM   15  C16 UNL     1      26.350   2.397  50.864  1.00  0.00     0.138 C 
HETATM   16  N6  UNL     1      26.420   1.988  52.188  1.00  0.00    -0.394 N 
HETATM   17  C17 UNL     1      27.468   2.496  52.951  1.00  0.00     0.145 C 
HETATM   18  H15 UNL     1      24.697   4.787  52.137  1.00  0.00     0.161 HD
ENDROOT
BRANCH  12  19
HETATM   19  C10 UNL     1      19.913   0.394  52.498  1.00  0.00     0.050 A 
HETATM   20  C11 UNL     1      19.824  -0.417  53.539  1.00  0.00     0.105 A 
HETATM   21 BR1  UNL     1      21.241  -0.621  54.778  1.00  0.00    -0.029 Br
HETATM   22  N4  UNL     1      18.584  -1.108  53.636  1.00  0.00    -0.326 N 
HETATM   23  C12 UNL     1      17.606  -0.868  52.647  1.00  0.00     0.185 A 
HETATM   24  H11 UNL     1      18.426  -1.756  54.410  1.00  0.00     0.169 HD
HETATM   25  F1  UNL     1      16.406  -1.516  52.715  1.00  0.00    -0.186 F 
HETATM   26  C13 UNL     1      17.721  -0.050  51.617  1.00  0.00     0.041 A 
HETATM   27  C14 UNL     1      18.967   0.727  51.408  1.00  0.00     0.092 A 
ENDBRANCH  12  19
TORSDOF 1
ENDMDL
MODEL 3
REMARK VINA RESULT:      -8.0      2.402      3.624
REMARK  1 active torsions:
REMARK  status: ('A' for Active; 'I' for Inactive)
REMARK    1  A    between atoms: N3_12  and  C10_13 
ROOT
HETATM    1  C1  UNL     1      22.039   2.858  46.862  1.00  0.00     0.057 C 
HETATM    2  C2  UNL     1      22.657   3.732  47.963  1.00  0.00     0.198 C 
HETATM    3  N1  UNL     1      22.805   2.797  49.077  1.00  0.00    -0.278 NA
HETATM    4  C3  UNL     1      23.645   2.894  50.000  1.00  0.00     0.117 C 
HETATM    5  C4  UNL     1      23.451   1.729  50.941  1.00  0.00     0.170 C 
HETATM    6  C5  UNL     1      21.993   1.846  51.350  1.00  0.00     0.123 C 
HETATM    7  N2  UNL     1      21.293   2.926  51.698  1.00  0.00    -0.245 NA
HETATM    8  C6  UNL     1      21.749   4.309  51.829  1.00  0.00     0.122 C 
HETATM    9  C7  UNL     1      22.678   4.733  52.707  1.00  0.00     0.051 C 
HETATM   10  C8  UNL     1      23.866   4.083  53.327  1.00  0.00     0.021 C 
HETATM   11  C9  UNL     1      24.448   2.885  53.117  1.00  0.00     0.092 C 
HETATM   12  N3  UNL     1      24.290   1.851  52.120  1.00  0.00    -0.343 N 
HETATM   13  N5  UNL     1      21.372   5.454  51.083  1.00  0.00    -0.373 N 
HETATM   14  C15 UNL     1      20.278   5.492  50.114  1.00  0.00     0.141 C 
HETATM   15  C16 UNL     1      20.608   4.574  48.948  1.00  0.00     0.138 C 
HETATM   16  N6  UNL     1      21.829   4.809  48.333  1.00  0.00    -0.394 N 
HETATM   17  C17 UNL     1      21.947   5.982  47.592  1.00  0.00     0.145 C 
HETATM   18  H15 UNL     1      21.929   6.291  51.265  1.00  0.00     0.161 HD
ENDROOT
BRANCH  12  19
HETATM   19  C10 UNL     1      25.209   0.817  52.530  1.00  0.00     0.050 A 
HETATM   20  C11 UNL     1      24.851  -0.232  53.252  1.00  0.00     0.105 A 
HETATM   21 BR1  UNL     1      23.067  -0.491  53.833  1.00  0.00    -0.029 Br
HETATM   22  N4  UNL     1      25.915  -1.130  53.545  1.00  0.00    -0.326 N 
HETATM   23  C12 UNL     1      27.202  -0.824  53.053  1.00  0.00     0.185 A 
HETATM   24  H11 UNL     1      25.731  -1.969  54.097  1.00  0.00     0.169 HD
HETATM   25  F1  UNL     1      28.243  -1.668  53.317  1.00  0.00    -0.186 F 
HETATM   26  C13 UNL     1      27.532   0.233  52.333  1.00  0.00     0.041 A 
HETATM   27  C14 UNL     1      26.509   1.241  51.962  1.00  0.00     0.092 A 
ENDBRANCH  12  19
TORSDOF 1
ENDMDL
MODEL 4
REMARK VINA RESULT:      -7.9      3.480      5.423
REMARK  1 active torsions:
REMARK  status: ('A' for Active; 'I' for Inactive)
REMARK    1  A    between atoms: N3_12  and  C10_13 
ROOT
HETATM    1  C1  UNL     1      25.016   0.059  54.452  1.00  0.00     0.057 C 
HETATM    2  C2  UNL     1      24.352   0.147  53.070  1.00  0.00     0.198 C 
HETATM    3  N1  UNL     1      24.528   1.554  52.714  1.00  0.00    -0.278 NA
HETATM    4  C3  UNL     1      24.577   2.008  51.547  1.00  0.00     0.117 C 
HETATM    5  C4  UNL     1      24.761   3.504  51.629  1.00  0.00     0.170 C 
HETATM    6  C5  UNL     1      23.584   3.959  52.475  1.00  0.00     0.123 C 
HETATM    7  N2  UNL     1      22.305   3.589  52.417  1.00  0.00    -0.245 NA
HETATM    8  C6  UNL     1      21.660   2.666  51.485  1.00  0.00     0.122 C 
HETATM    9  C7  UNL     1      21.578   2.850  50.153  1.00  0.00     0.051 C 
HETATM   10  C8  UNL     1      22.453   3.536  49.163  1.00  0.00     0.021 C 
HETATM   11  C9  UNL     1      23.670   4.105  49.280  1.00  0.00     0.092 C 
HETATM   12  N3  UNL     1      24.676   4.123  50.318  1.00  0.00    -0.343 N 
HETATM   13  N5  UNL     1      21.040   1.417  51.741  1.00  0.00    -0.373 N 
HETATM   14  C15 UNL     1      20.768   0.881  53.074  1.00  0.00     0.141 C 
HETATM   15  C16 UNL     1      22.085   0.618  53.788  1.00  0.00     0.138 C 
HETATM   16  N6  UNL     1      22.984  -0.184  53.100  1.00  0.00    -0.394 N 
HETATM   17  C17 UNL     1      22.655  -1.530  52.967  1.00  0.00     0.145 C 
HETATM   18  H15 UNL     1      20.779   0.885  50.909  1.00  0.00     0.161 HD
ENDROOT
BRANCH  12  19
HETATM   19  C10 UNL     1      25.719   4.967  49.787  1.00  0.00     0.050 A 
HETATM   20  C11 UNL     1      25.725   6.284  49.911  1.00  0.00     0.105 A 
HETATM   21 BR1  UNL     1      24.344   7.215  50.812  1.00  0.00    -0.029 Br
HETATM   22  N4  UNL     1      26.849   6.921  49.315  1.00  0.00    -0.326 N 
HETATM   23  C12 UNL     1      27.812   6.113  48.673  1.00  0.00     0.185 A 
HETATM   24  H11 UNL     1      26.938   7.937  49.362  1.00  0.00     0.169 HD
HETATM   25  F1  UNL     1      28.902   6.697  48.092  1.00  0.00    -0.186 F 
HETATM   26  C13 UNL     1      27.781   4.798  48.564  1.00  0.00     0.041 A 
HETATM   27  C14 UNL     1      26.660   4.019  49.146  1.00  0.00     0.092 A 
ENDBRANCH  12  19
TORSDOF 1
ENDMDL
MODEL 5
REMARK VINA RESULT:      -7.8      2.035      2.324
REMARK  1 active torsions:
REMARK  status: ('A' for Active; 'I' for Inactive)
REMARK    1  A    between atoms: N3_12  and  C10_13 
ROOT
HETATM    1  C1  UNL     1      19.563   2.353  51.959  1.00  0.00     0.057 C 
HETATM    2  C2  UNL     1      20.694   2.285  50.922  1.00  0.00     0.198 C 
HETATM    3  N1  UNL     1      21.894   2.480  51.736  1.00  0.00    -0.278 NA
HETATM    4  C3  UNL     1      23.040   2.064  51.451  1.00  0.00     0.117 C 
HETATM    5  C4  UNL     1      23.984   2.487  52.552  1.00  0.00     0.170 C 
HETATM    6  C5  UNL     1      23.813   3.996  52.602  1.00  0.00     0.123 C 
HETATM    7  N2  UNL     1      23.743   4.875  51.603  1.00  0.00    -0.245 NA
HETATM    8  C6  UNL     1      23.856   4.638  50.165  1.00  0.00     0.122 C 
HETATM    9  C7  UNL     1      24.952   4.155  49.549  1.00  0.00     0.051 C 
HETATM   10  C8  UNL     1      26.040   3.232  49.978  1.00  0.00     0.021 C 
HETATM   11  C9  UNL     1      26.210   2.502  51.099  1.00  0.00     0.092 C 
HETATM   12  N3  UNL     1      25.362   2.172  52.222  1.00  0.00    -0.343 N 
HETATM   13  N5  UNL     1      22.886   4.812  49.145  1.00  0.00    -0.373 N 
HETATM   14  C15 UNL     1      21.588   5.458  49.335  1.00  0.00     0.141 C 
HETATM   15  C16 UNL     1      20.748   4.625  50.291  1.00  0.00     0.138 C 
HETATM   16  N6  UNL     1      20.598   3.290  49.942  1.00  0.00    -0.394 N 
HETATM   17  C17 UNL     1      19.810   3.014  48.827  1.00  0.00     0.145 C 
HETATM   18  H15 UNL     1      23.152   4.449  48.229  1.00  0.00     0.161 HD
ENDROOT
BRANCH  12  19
HETATM   19  C10 UNL     1      26.207   1.381  53.085  1.00  0.00     0.050 A 
HETATM   20  C11 UNL     1      25.804   0.270  53.679  1.00  0.00     0.105 A 
HETATM   21 BR1  UNL     1      24.051  -0.411  53.457  1.00  0.00    -0.029 Br
HETATM   22  N4  UNL     1      26.797  -0.354  54.484  1.00  0.00    -0.326 N 
HETATM   23  C12 UNL     1      28.069   0.254  54.567  1.00  0.00     0.185 A 
HETATM   24  H11 UNL     1      26.576  -1.218  54.981  1.00  0.00     0.169 HD
HETATM   25  F1  UNL     1      29.043  -0.322  55.332  1.00  0.00    -0.186 F 
HETATM   26  C13 UNL     1      28.444   1.366  53.962  1.00  0.00     0.041 A 
HETATM   27  C14 UNL     1      27.497   2.107  53.093  1.00  0.00     0.092 A 
ENDBRANCH  12  19
TORSDOF 1
ENDMDL
MODEL 6
REMARK VINA RESULT:      -7.6      4.225      6.277
REMARK  1 active torsions:
REMARK  status: ('A' for Active; 'I' for Inactive)
REMARK    1  A    between atoms: N3_12  and  C10_13 
ROOT
HETATM    1  C1  UNL     1      21.906   8.310  47.422  1.00  0.00     0.057 C 
HETATM    2  C2  UNL     1      23.055   7.344  47.099  1.00  0.00     0.198 C 
HETATM    3  N1  UNL     1      23.271   6.656  48.372  1.00  0.00    -0.278 NA
HETATM    4  C3  UNL     1      23.752   5.508  48.505  1.00  0.00     0.117 C 
HETATM    5  C4  UNL     1      23.806   5.186  49.980  1.00  0.00     0.170 C 
HETATM    6  C5  UNL     1      24.626   6.327  50.559  1.00  0.00     0.123 C 
HETATM    7  N2  UNL     1      25.746   6.885  50.101  1.00  0.00    -0.245 NA
HETATM    8  C6  UNL     1      26.534   6.523  48.924  1.00  0.00     0.122 C 
HETATM    9  C7  UNL     1      27.152   5.340  48.746  1.00  0.00     0.051 C 
HETATM   10  C8  UNL     1      26.855   3.955  49.206  1.00  0.00     0.021 C 
HETATM   11  C9  UNL     1      25.802   3.433  49.867  1.00  0.00     0.092 C 
HETATM   12  N3  UNL     1      24.493   3.930  50.226  1.00  0.00    -0.343 N 
HETATM   13  N5  UNL     1      26.787   7.272  47.747  1.00  0.00    -0.373 N 
HETATM   14  C15 UNL     1      26.430   8.677  47.563  1.00  0.00     0.141 C 
HETATM   15  C16 UNL     1      24.916   8.819  47.587  1.00  0.00     0.138 C 
HETATM   16  N6  UNL     1      24.229   8.007  46.695  1.00  0.00    -0.394 N 
HETATM   17  C17 UNL     1      24.351   8.311  45.342  1.00  0.00     0.145 C 
HETATM   18  H15 UNL     1      27.254   6.756  46.999  1.00  0.00     0.161 HD
ENDROOT
BRANCH  12  19
HETATM   19  C10 UNL     1      23.893   2.849  50.969  1.00  0.00     0.050 A 
HETATM   20  C11 UNL     1      23.003   2.017  50.454  1.00  0.00     0.105 A 
HETATM   21 BR1  UNL     1      22.413   2.159  48.660  1.00  0.00    -0.029 Br
HETATM   22  N4  UNL     1      22.541   1.023  51.361  1.00  0.00    -0.326 N 
HETATM   23  C12 UNL     1      23.060   1.023  52.674  1.00  0.00     0.185 A 
HETATM   24  H11 UNL     1      21.852   0.335  51.050  1.00  0.00     0.169 HD
HETATM   25  F1  UNL     1      22.635   0.080  53.566  1.00  0.00    -0.186 F 
HETATM   26  C13 UNL     1      23.949   1.867  53.162  1.00  0.00     0.041 A 
HETATM   27  C14 UNL     1      24.507   2.948  52.313  1.00  0.00     0.092 A 
ENDBRANCH  12  19
TORSDOF 1
ENDMDL
MODEL 7
REMARK VINA RESULT:      -7.6      4.143      5.525
REMARK  1 active torsions:
REMARK  status: ('A' for Active; 'I' for Inactive)
REMARK    1  A    between atoms: N3_12  and  C10_13 
ROOT
HETATM    1  C1  UNL     1      18.545   4.036  48.651  1.00  0.00     0.057 C 
HETATM    2  C2  UNL     1      19.243   4.009  50.019  1.00  0.00     0.198 C 
HETATM    3  N1  UNL     1      20.645   3.790  49.665  1.00  0.00    -0.278 NA
HETATM    4  C3  UNL     1      21.631   4.140  50.353  1.00  0.00     0.117 C 
HETATM    5  C4  UNL     1      22.886   3.717  49.629  1.00  0.00     0.170 C 
HETATM    6  C5  UNL     1      22.699   2.221  49.442  1.00  0.00     0.123 C 
HETATM    7  N2  UNL     1      22.256   1.307  50.305  1.00  0.00    -0.245 NA
HETATM    8  C6  UNL     1      21.866   1.481  51.703  1.00  0.00     0.122 C 
HETATM    9  C7  UNL     1      22.691   1.887  52.687  1.00  0.00     0.051 C 
HETATM   10  C8  UNL     1      23.887   2.773  52.713  1.00  0.00     0.021 C 
HETATM   11  C9  UNL     1      24.461   3.539  51.763  1.00  0.00     0.092 C 
HETATM   12  N3  UNL     1      24.071   3.954  50.435  1.00  0.00    -0.343 N 
HETATM   13  N5  UNL     1      20.596   1.312  52.309  1.00  0.00    -0.373 N 
HETATM   14  C15 UNL     1      19.428   0.737  51.645  1.00  0.00     0.141 C 
HETATM   15  C16 UNL     1      19.001   1.646  50.503  1.00  0.00     0.138 C 
HETATM   16  N6  UNL     1      18.778   2.971  50.849  1.00  0.00    -0.394 N 
HETATM   17  C17 UNL     1      17.659   3.239  51.632  1.00  0.00     0.145 C 
HETATM   18  H15 UNL     1      20.535   1.626  53.279  1.00  0.00     0.161 HD
ENDROOT
BRANCH  12  19
HETATM   19  C10 UNL     1      25.188   4.737  49.964  1.00  0.00     0.050 A 
HETATM   20  C11 UNL     1      25.269   6.050  50.109  1.00  0.00     0.105 A 
HETATM   21 BR1  UNL     1      23.909   7.054  50.962  1.00  0.00    -0.029 Br
HETATM   22  N4  UNL     1      26.456   6.623  49.574  1.00  0.00    -0.326 N 
HETATM   23  C12 UNL     1      27.396   5.765  48.963  1.00  0.00     0.185 A 
HETATM   24  H11 UNL     1      26.605   7.631  49.641  1.00  0.00     0.169 HD
HETATM   25  F1  UNL     1      28.545   6.287  48.441  1.00  0.00    -0.186 F 
HETATM   26  C13 UNL     1      27.289   4.456  48.832  1.00  0.00     0.041 A 
HETATM   27  C14 UNL     1      26.097   3.742  49.351  1.00  0.00     0.092 A 
ENDBRANCH  12  19
TORSDOF 1
ENDMDL
MODEL 8
REMARK VINA RESULT:      -7.5      3.293      5.695
REMARK  1 active torsions:
REMARK  status: ('A' for Active; 'I' for Inactive)
REMARK    1  A    between atoms: N3_12  and  C10_13 
ROOT
HETATM    1  C1  UNL     1      27.530   5.129  48.499  1.00  0.00     0.057 C 
HETATM    2  C2  UNL     1      26.522   5.672  49.522  1.00  0.00     0.198 C 
HETATM    3  N1  UNL     1      25.550   4.585  49.630  1.00  0.00    -0.278 NA
HETATM    4  C3  UNL     1      24.829   4.351  50.627  1.00  0.00     0.117 C 
HETATM    5  C4  UNL     1      23.970   3.148  50.318  1.00  0.00     0.170 C 
HETATM    6  C5  UNL     1      23.242   3.553  49.047  1.00  0.00     0.123 C 
HETATM    7  N2  UNL     1      22.659   4.710  48.735  1.00  0.00    -0.245 NA
HETATM    8  C6  UNL     1      22.516   5.913  49.553  1.00  0.00     0.122 C 
HETATM    9  C7  UNL     1      21.831   5.978  50.711  1.00  0.00     0.051 C 
HETATM   10  C8  UNL     1      21.544   4.986  51.783  1.00  0.00     0.021 C 
HETATM   11  C9  UNL     1      21.977   3.724  51.980  1.00  0.00     0.092 C 
HETATM   12  N3  UNL     1      22.998   2.904  51.369  1.00  0.00    -0.343 N 
HETATM   13  N5  UNL     1      23.062   7.206  49.354  1.00  0.00    -0.373 N 
HETATM   14  C15 UNL     1      23.760   7.636  48.144  1.00  0.00     0.141 C 
HETATM   15  C16 UNL     1      25.044   6.835  47.992  1.00  0.00     0.138 C 
HETATM   16  N6  UNL     1      25.890   6.854  49.092  1.00  0.00    -0.394 N 
HETATM   17  C17 UNL     1      26.537   8.055  49.369  1.00  0.00     0.145 C 
HETATM   18  H15 UNL     1      22.937   7.853  50.135  1.00  0.00     0.161 HD
ENDROOT
BRANCH  12  19
HETATM   19  C10 UNL     1      22.888   1.635  52.046  1.00  0.00     0.050 A 
HETATM   20  C11 UNL     1      23.761   1.210  52.944  1.00  0.00     0.105 A 
HETATM   21 BR1  UNL     1      25.271   2.238  53.443  1.00  0.00    -0.029 Br
HETATM   22  N4  UNL     1      23.462  -0.070  53.490  1.00  0.00    -0.326 N 
HETATM   23  C12 UNL     1      22.303  -0.735  53.035  1.00  0.00     0.185 A 
HETATM   24  H11 UNL     1      24.081  -0.478  54.192  1.00  0.00     0.169 HD
HETATM   25  F1  UNL     1      21.990  -1.965  53.541  1.00  0.00    -0.186 F 
HETATM   26  C13 UNL     1      21.447  -0.287  52.136  1.00  0.00     0.041 A 
HETATM   27  C14 UNL     1      21.650   1.036  51.495  1.00  0.00     0.092 A 
ENDBRANCH  12  19
TORSDOF 1
ENDMDL
MODEL 9
REMARK VINA RESULT:      -7.5      2.871      4.641
REMARK  1 active torsions:
REMARK  status: ('A' for Active; 'I' for Inactive)
REMARK    1  A    between atoms: N3_12  and  C10_13 
ROOT
HETATM    1  C1  UNL     1      17.100  -0.500  52.701  1.00  0.00     0.057 C 
HETATM    2  C2  UNL     1      17.991  -0.376  51.456  1.00  0.00     0.198 C 
HETATM    3  N1  UNL     1      19.020   0.570  51.885  1.00  0.00    -0.278 NA
HETATM    4  C3  UNL     1      20.181   0.640  51.422  1.00  0.00     0.117 C 
HETATM    5  C4  UNL     1      20.910   1.753  52.136  1.00  0.00     0.170 C 
HETATM    6  C5  UNL     1      20.022   2.963  51.900  1.00  0.00     0.123 C 
HETATM    7  N2  UNL     1      19.413   3.364  50.784  1.00  0.00    -0.245 NA
HETATM    8  C6  UNL     1      19.466   2.771  49.449  1.00  0.00     0.122 C 
HETATM    9  C7  UNL     1      20.579   2.660  48.700  1.00  0.00     0.051 C 
HETATM   10  C8  UNL     1      22.021   2.497  49.035  1.00  0.00     0.021 C 
HETATM   11  C9  UNL     1      22.656   2.303  50.209  1.00  0.00     0.092 C 
HETATM   12  N3  UNL     1      22.216   1.996  51.551  1.00  0.00    -0.343 N 
HETATM   13  N5  UNL     1      18.428   2.174  48.689  1.00  0.00    -0.373 N 
HETATM   14  C15 UNL     1      17.012   2.201  49.051  1.00  0.00     0.141 C 
HETATM   15  C16 UNL     1      16.808   1.423  50.342  1.00  0.00     0.138 C 
HETATM   16  N6  UNL     1      17.299   0.125  50.337  1.00  0.00    -0.394 N 
HETATM   17  C17 UNL     1      16.631  -0.800  49.540  1.00  0.00     0.145 C 
HETATM   18  H15 UNL     1      18.733   1.703  47.836  1.00  0.00     0.161 HD
ENDROOT
BRANCH  12  19
HETATM   19  C10 UNL     1      23.433   1.971  52.327  1.00  0.00     0.050 A 
HETATM   20  C11 UNL     1      24.014   3.058  52.807  1.00  0.00     0.105 A 
HETATM   21 BR1  UNL     1      23.300   4.788  52.522  1.00  0.00    -0.029 Br
HETATM   22  N4  UNL     1      25.203   2.806  53.544  1.00  0.00    -0.326 N 
HETATM   23  C12 UNL     1      25.631   1.469  53.686  1.00  0.00     0.185 A 
HETATM   24  H11 UNL     1      25.719   3.587  53.953  1.00  0.00     0.169 HD
HETATM   25  F1  UNL     1      26.770   1.196  54.390  1.00  0.00    -0.186 F 
HETATM   26  C13 UNL     1      25.031   0.400  53.196  1.00  0.00     0.041 A 
HETATM   27  C14 UNL     1      23.780   0.533  52.409  1.00  0.00     0.092 A 
ENDBRANCH  12  19
TORSDOF 1
ENDMDL
