MODEL 1
REMARK VINA RESULT:      -7.9      0.000      0.000
REMARK  4 active torsions:
REMARK  status: ('A' for Active; 'I' for Inactive)
REMARK    1  A    between atoms: N1_1  and  C1_2 
REMARK    2  A    between atoms: C4_6  and  C5_7 
REMARK       I    between atoms: C5_7  and  N3_9 
REMARK    3  A    between atoms: N3_9  and  S1_10 
REMARK    4  A    between atoms: S1_10  and  C6_13 
ROOT
HETATM    1  C5  UNL     1      26.342   1.157  52.558  1.00  0.00     0.266 C 
HETATM    2  O1  UNL     1      26.393   2.282  51.954  1.00  0.00    -0.267 OA
HETATM    3  N3  UNL     1      25.008   0.734  52.800  1.00  0.00    -0.246 N 
HETATM    4  H5  UNL     1      24.864  -0.182  53.293  1.00  0.00     0.182 HD
ENDROOT
BRANCH   3   5
HETATM    5  S1  UNL     1      23.643   1.682  52.304  1.00  0.00     0.265 S 
HETATM    6  O2  UNL     1      23.673   1.865  50.802  1.00  0.00    -0.200 OA
HETATM    7  O3  UNL     1      23.642   3.037  52.922  1.00  0.00    -0.200 OA
BRANCH   5   8
HETATM    8  C6  UNL     1      22.167   0.797  52.697  1.00  0.00     0.080 A 
HETATM    9  C7  UNL     1      21.993   0.027  53.830  1.00  0.00     0.027 A 
HETATM   10  C8  UNL     1      20.795  -0.625  54.039  1.00  0.00     0.020 A 
HETATM   11  C9  UNL     1      19.797  -0.482  53.095  1.00  0.00     0.011 A 
HETATM   12 BR1  UNL     1      18.136  -1.374  53.365  1.00  0.00    -0.051 Br
HETATM   13  C10 UNL     1      19.935   0.275  51.956  1.00  0.00     0.020 A 
HETATM   14  C11 UNL     1      21.138   0.909  51.779  1.00  0.00     0.027 A 
ENDBRANCH   5   8
ENDBRANCH   3   5
BRANCH   1  15
HETATM   15  C4  UNL     1      27.534   0.411  52.948  1.00  0.00     0.052 A 
HETATM   16  C3  UNL     1      28.698   1.012  53.395  1.00  0.00     0.133 A 
HETATM   17  N2  UNL     1      29.749   0.239  53.733  1.00  0.00    -0.270 NA
HETATM   18  C2  UNL     1      29.671  -1.102  53.637  1.00  0.00     0.145 A 
HETATM   19  C1  UNL     1      28.534  -1.779  53.196  1.00  0.00     0.044 A 
HETATM   20  C12 UNL     1      27.466  -0.957  52.854  1.00  0.00     0.049 A 
BRANCH  19  21
HETATM   21  N1  UNL     1      28.478  -3.197  53.105  1.00  0.00    -0.398 N 
HETATM   22  H1  UNL     1      29.274  -3.272  52.456  1.00  0.00     0.156 HD
HETATM   23  H2  UNL     1      27.850  -3.921  53.544  1.00  0.00     0.156 HD
ENDBRANCH  19  21
ENDBRANCH   1  15
TORSDOF 4
ENDMDL
MODEL 2
REMARK VINA RESULT:      -7.7      4.335      5.105
REMARK  4 active torsions:
REMARK  status: ('A' for Active; 'I' for Inactive)
REMARK    1  A    between atoms: N1_1  and  C1_2 
REMARK    2  A    between atoms: C4_6  and  C5_7 
REMARK       I    between atoms: C5_7  and  N3_9 
REMARK    3  A    between atoms: N3_9  and  S1_10 
REMARK    4  A    between atoms: S1_10  and  C6_13 
ROOT
HETATM    1  C5  UNL     1      26.744   1.279  52.852  1.00  0.00     0.266 C 
HETATM    2  O1  UNL     1      26.556   2.388  53.457  1.00  0.00    -0.267 OA
HETATM    3  N3  UNL     1      25.741   1.017  51.882  1.00  0.00    -0.246 N 
HETATM    4  H5  UNL     1      25.810   0.124  51.331  1.00  0.00     0.182 HD
ENDROOT
BRANCH   3   5
HETATM    5  S1  UNL     1      24.433   2.120  51.596  1.00  0.00     0.265 S 
HETATM    6  O2  UNL     1      23.903   2.629  52.918  1.00  0.00    -0.200 OA
HETATM    7  O3  UNL     1      23.300   1.478  50.874  1.00  0.00    -0.200 OA
BRANCH   5   8
HETATM    8  C6  UNL     1      25.053   3.513  50.706  1.00  0.00     0.080 A 
HETATM    9  C7  UNL     1      24.490   4.774  50.735  1.00  0.00     0.027 A 
HETATM   10  C8  UNL     1      25.058   5.794  49.999  1.00  0.00     0.020 A 
HETATM   11  C9  UNL     1      26.184   5.515  49.250  1.00  0.00     0.011 A 
HETATM   12 BR1  UNL     1      26.982   6.910  48.227  1.00  0.00    -0.051 Br
HETATM   13  C10 UNL     1      26.770   4.273  49.198  1.00  0.00     0.020 A 
HETATM   14  C11 UNL     1      26.182   3.282  49.941  1.00  0.00     0.027 A 
ENDBRANCH   5   8
ENDBRANCH   3   5
BRANCH   1  15
HETATM   15  C4  UNL     1      27.869   0.396  53.143  1.00  0.00     0.052 A 
HETATM   16  C3  UNL     1      29.110   0.853  53.552  1.00  0.00     0.133 A 
HETATM   17  N2  UNL     1      30.091  -0.039  53.797  1.00  0.00    -0.270 NA
HETATM   18  C2  UNL     1      29.868  -1.359  53.648  1.00  0.00     0.145 A 
HETATM   19  C1  UNL     1      28.646  -1.893  53.240  1.00  0.00     0.044 A 
HETATM   20  C12 UNL     1      27.655  -0.951  52.993  1.00  0.00     0.049 A 
BRANCH  19  21
HETATM   21  N1  UNL     1      28.438  -3.293  53.090  1.00  0.00    -0.398 N 
HETATM   22  H1  UNL     1      27.458  -3.201  52.789  1.00  0.00     0.156 HD
HETATM   23  H2  UNL     1      29.061  -4.130  53.233  1.00  0.00     0.156 HD
ENDBRANCH  19  21
ENDBRANCH   1  15
TORSDOF 4
ENDMDL
MODEL 3
REMARK VINA RESULT:      -7.5      5.429      7.069
REMARK  4 active torsions:
REMARK  status: ('A' for Active; 'I' for Inactive)
REMARK    1  A    between atoms: N1_1  and  C1_2 
REMARK    2  A    between atoms: C4_6  and  C5_7 
REMARK       I    between atoms: C5_7  and  N3_9 
REMARK    3  A    between atoms: N3_9  and  S1_10 
REMARK    4  A    between atoms: S1_10  and  C6_13 
ROOT
HETATM    1  C5  UNL     1      26.179   2.156  51.815  1.00  0.00     0.266 C 
HETATM    2  O1  UNL     1      24.975   1.816  51.557  1.00  0.00    -0.267 OA
HETATM    3  N3  UNL     1      26.575   3.319  51.103  1.00  0.00    -0.246 N 
HETATM    4  H5  UNL     1      27.552   3.678  51.250  1.00  0.00     0.182 HD
ENDROOT
BRANCH   3   5
HETATM    5  S1  UNL     1      25.497   4.141  50.020  1.00  0.00     0.265 S 
HETATM    6  O2  UNL     1      24.473   4.917  50.818  1.00  0.00    -0.200 OA
HETATM    7  O3  UNL     1      24.758   3.198  49.135  1.00  0.00    -0.200 OA
BRANCH   5   8
HETATM    8  C6  UNL     1      26.426   5.310  49.077  1.00  0.00     0.080 A 
HETATM    9  C7  UNL     1      25.926   6.506  48.601  1.00  0.00     0.027 A 
HETATM   10  C8  UNL     1      26.741   7.348  47.873  1.00  0.00     0.020 A 
HETATM   11  C9  UNL     1      28.047   6.960  47.643  1.00  0.00     0.011 A 
HETATM   12 BR1  UNL     1      29.188   8.109  46.640  1.00  0.00    -0.051 Br
HETATM   13  C10 UNL     1      28.578   5.778  48.101  1.00  0.00     0.020 A 
HETATM   14  C11 UNL     1      27.741   4.965  48.822  1.00  0.00     0.027 A 
ENDBRANCH   5   8
ENDBRANCH   3   5
BRANCH   1  15
HETATM   15  C4  UNL     1      27.033   1.417  52.739  1.00  0.00     0.052 A 
HETATM   16  C3  UNL     1      26.847   0.080  53.045  1.00  0.00     0.133 A 
HETATM   17  N2  UNL     1      27.687  -0.519  53.912  1.00  0.00    -0.270 NA
HETATM   18  C2  UNL     1      28.697   0.173  54.475  1.00  0.00     0.145 A 
HETATM   19  C1  UNL     1      28.946   1.521  54.217  1.00  0.00     0.044 A 
HETATM   20  C12 UNL     1      28.064   2.112  53.321  1.00  0.00     0.049 A 
BRANCH  19  21
HETATM   21  N1  UNL     1      30.020   2.228  54.826  1.00  0.00    -0.398 N 
HETATM   22  H1  UNL     1      30.260   2.763  53.980  1.00  0.00     0.156 HD
HETATM   23  H2  UNL     1      30.428   2.215  55.797  1.00  0.00     0.156 HD
ENDBRANCH  19  21
ENDBRANCH   1  15
TORSDOF 4
ENDMDL
MODEL 4
REMARK VINA RESULT:      -7.4      5.570      6.991
REMARK  4 active torsions:
REMARK  status: ('A' for Active; 'I' for Inactive)
REMARK    1  A    between atoms: N1_1  and  C1_2 
REMARK    2  A    between atoms: C4_6  and  C5_7 
REMARK       I    between atoms: C5_7  and  N3_9 
REMARK    3  A    between atoms: N3_9  and  S1_10 
REMARK    4  A    between atoms: S1_10  and  C6_13 
ROOT
HETATM    1  C5  UNL     1      26.177   2.343  51.742  1.00  0.00     0.266 C 
HETATM    2  O1  UNL     1      24.912   2.215  51.621  1.00  0.00    -0.267 OA
HETATM    3  N3  UNL     1      26.695   3.380  50.922  1.00  0.00    -0.246 N 
HETATM    4  H5  UNL     1      27.730   3.562  50.953  1.00  0.00     0.182 HD
ENDROOT
BRANCH   3   5
HETATM    5  S1  UNL     1      25.673   4.332  49.895  1.00  0.00     0.265 S 
HETATM    6  O2  UNL     1      24.763   5.193  50.744  1.00  0.00    -0.200 OA
HETATM    7  O3  UNL     1      24.809   3.491  49.021  1.00  0.00    -0.200 OA
BRANCH   5   8
HETATM    8  C6  UNL     1      26.685   5.419  48.940  1.00  0.00     0.080 A 
HETATM    9  C7  UNL     1      28.012   5.188  48.635  1.00  0.00     0.027 A 
HETATM   10  C8  UNL     1      28.711   6.106  47.879  1.00  0.00     0.020 A 
HETATM   11  C9  UNL     1      28.051   7.240  47.448  1.00  0.00     0.011 A 
HETATM   12 BR1  UNL     1      28.999   8.521  46.404  1.00  0.00    -0.051 Br
HETATM   13  C10 UNL     1      26.732   7.503  47.733  1.00  0.00     0.020 A 
HETATM   14  C11 UNL     1      26.066   6.570  48.486  1.00  0.00     0.027 A 
ENDBRANCH   5   8
ENDBRANCH   3   5
BRANCH   1  15
HETATM   15  C4  UNL     1      26.979   1.505  52.628  1.00  0.00     0.052 A 
HETATM   16  C3  UNL     1      27.790   2.013  53.629  1.00  0.00     0.133 A 
HETATM   17  N2  UNL     1      28.495   1.161  54.399  1.00  0.00    -0.270 NA
HETATM   18  C2  UNL     1      28.415  -0.169  54.199  1.00  0.00     0.145 A 
HETATM   19  C1  UNL     1      27.621  -0.753  53.211  1.00  0.00     0.044 A 
HETATM   20  C12 UNL     1      26.906   0.149  52.433  1.00  0.00     0.049 A 
BRANCH  19  21
HETATM   21  N1  UNL     1      27.555  -2.161  53.021  1.00  0.00    -0.398 N 
HETATM   22  H1  UNL     1      26.732  -2.125  52.403  1.00  0.00     0.156 HD
HETATM   23  H2  UNL     1      28.137  -2.963  53.381  1.00  0.00     0.156 HD
ENDBRANCH  19  21
ENDBRANCH   1  15
TORSDOF 4
ENDMDL
MODEL 5
REMARK VINA RESULT:      -7.3      5.107      6.404
REMARK  4 active torsions:
REMARK  status: ('A' for Active; 'I' for Inactive)
REMARK    1  A    between atoms: N1_1  and  C1_2 
REMARK    2  A    between atoms: C4_6  and  C5_7 
REMARK       I    between atoms: C5_7  and  N3_9 
REMARK    3  A    between atoms: N3_9  and  S1_10 
REMARK    4  A    between atoms: S1_10  and  C6_13 
ROOT
HETATM    1  C5  UNL     1      26.620   2.457  51.513  1.00  0.00     0.266 C 
HETATM    2  O1  UNL     1      26.867   2.348  50.264  1.00  0.00    -0.267 OA
HETATM    3  N3  UNL     1      25.524   3.323  51.771  1.00  0.00    -0.246 N 
HETATM    4  H5  UNL     1      25.244   3.477  52.773  1.00  0.00     0.182 HD
ENDROOT
BRANCH   3   5
HETATM    5  S1  UNL     1      24.659   4.112  50.492  1.00  0.00     0.265 S 
HETATM    6  O2  UNL     1      23.398   4.739  51.046  1.00  0.00    -0.200 OA
HETATM    7  O3  UNL     1      24.256   3.166  49.415  1.00  0.00    -0.200 OA
BRANCH   5   8
HETATM    8  C6  UNL     1      25.660   5.421  49.855  1.00  0.00     0.080 A 
HETATM    9  C7  UNL     1      26.645   5.259  48.901  1.00  0.00     0.027 A 
HETATM   10  C8  UNL     1      27.370   6.353  48.473  1.00  0.00     0.020 A 
HETATM   11  C9  UNL     1      27.080   7.587  49.021  1.00  0.00     0.011 A 
HETATM   12 BR1  UNL     1      28.070   9.109  48.443  1.00  0.00    -0.051 Br
HETATM   13  C10 UNL     1      26.108   7.784  49.972  1.00  0.00     0.020 A 
HETATM   14  C11 UNL     1      25.406   6.677  50.375  1.00  0.00     0.027 A 
ENDBRANCH   5   8
ENDBRANCH   3   5
BRANCH   1  15
HETATM   15  C4  UNL     1      27.390   1.763  52.539  1.00  0.00     0.052 A 
HETATM   16  C3  UNL     1      28.156   2.416  53.489  1.00  0.00     0.133 A 
HETATM   17  N2  UNL     1      28.835   1.689  54.399  1.00  0.00    -0.270 NA
HETATM   18  C2  UNL     1      28.770   0.344  54.387  1.00  0.00     0.145 A 
HETATM   19  C1  UNL     1      28.021  -0.383  53.461  1.00  0.00     0.044 A 
HETATM   20  C12 UNL     1      27.332   0.391  52.536  1.00  0.00     0.049 A 
BRANCH  19  21
HETATM   21  N1  UNL     1      27.970  -1.805  53.471  1.00  0.00    -0.398 N 
HETATM   22  H1  UNL     1      27.153  -1.865  52.846  1.00  0.00     0.156 HD
HETATM   23  H2  UNL     1      28.556  -2.541  53.944  1.00  0.00     0.156 HD
ENDBRANCH  19  21
ENDBRANCH   1  15
TORSDOF 4
ENDMDL
MODEL 6
REMARK VINA RESULT:      -7.2      1.176      2.210
REMARK  4 active torsions:
REMARK  status: ('A' for Active; 'I' for Inactive)
REMARK    1  A    between atoms: N1_1  and  C1_2 
REMARK    2  A    between atoms: C4_6  and  C5_7 
REMARK       I    between atoms: C5_7  and  N3_9 
REMARK    3  A    between atoms: N3_9  and  S1_10 
REMARK    4  A    between atoms: S1_10  and  C6_13 
ROOT
HETATM    1  C5  UNL     1      25.549   1.492  52.260  1.00  0.00     0.266 C 
HETATM    2  O1  UNL     1      25.650   2.432  51.402  1.00  0.00    -0.267 OA
HETATM    3  N3  UNL     1      24.199   1.114  52.490  1.00  0.00    -0.246 N 
HETATM    4  H5  UNL     1      24.014   0.345  53.183  1.00  0.00     0.182 HD
ENDROOT
BRANCH   3   5
HETATM    5  S1  UNL     1      22.881   1.881  51.665  1.00  0.00     0.265 S 
HETATM    6  O2  UNL     1      23.107   1.808  50.171  1.00  0.00    -0.200 OA
HETATM    7  O3  UNL     1      22.745   3.319  52.029  1.00  0.00    -0.200 OA
BRANCH   5   8
HETATM    8  C6  UNL     1      21.398   0.988  52.016  1.00  0.00     0.080 A 
HETATM    9  C7  UNL     1      20.347   0.838  51.133  1.00  0.00     0.027 A 
HETATM   10  C8  UNL     1      19.232   0.118  51.511  1.00  0.00     0.020 A 
HETATM   11  C9  UNL     1      19.206  -0.435  52.776  1.00  0.00     0.011 A 
HETATM   12 BR1  UNL     1      17.676  -1.432  53.317  1.00  0.00    -0.051 Br
HETATM   13  C10 UNL     1      20.233  -0.306  53.680  1.00  0.00     0.020 A 
HETATM   14  C11 UNL     1      21.326   0.415  53.273  1.00  0.00     0.027 A 
ENDBRANCH   5   8
ENDBRANCH   3   5
BRANCH   1  15
HETATM   15  C4  UNL     1      26.703   0.889  52.919  1.00  0.00     0.052 A 
HETATM   16  C3  UNL     1      26.893  -0.478  53.025  1.00  0.00     0.133 A 
HETATM   17  N2  UNL     1      27.992  -0.943  53.652  1.00  0.00    -0.270 NA
HETATM   18  C2  UNL     1      28.896  -0.089  54.170  1.00  0.00     0.145 A 
HETATM   19  C1  UNL     1      28.773   1.299  54.103  1.00  0.00     0.044 A 
HETATM   20  C12 UNL     1      27.631   1.749  53.452  1.00  0.00     0.049 A 
BRANCH  19  21
HETATM   21  N1  UNL     1      29.744   2.178  54.659  1.00  0.00    -0.398 N 
HETATM   22  H1  UNL     1      29.680   2.868  53.897  1.00  0.00     0.156 HD
HETATM   23  H2  UNL     1      30.324   2.142  55.538  1.00  0.00     0.156 HD
ENDBRANCH  19  21
ENDBRANCH   1  15
TORSDOF 4
ENDMDL
MODEL 7
REMARK VINA RESULT:      -7.2      5.201      7.057
REMARK  4 active torsions:
REMARK  status: ('A' for Active; 'I' for Inactive)
REMARK    1  A    between atoms: N1_1  and  C1_2 
REMARK    2  A    between atoms: C4_6  and  C5_7 
REMARK       I    between atoms: C5_7  and  N3_9 
REMARK    3  A    between atoms: N3_9  and  S1_10 
REMARK    4  A    between atoms: S1_10  and  C6_13 
ROOT
HETATM    1  C5  UNL     1      26.268   4.083  49.745  1.00  0.00     0.266 C 
HETATM    2  O1  UNL     1      26.436   2.864  49.401  1.00  0.00    -0.267 OA
HETATM    3  N3  UNL     1      25.485   4.208  50.923  1.00  0.00    -0.246 N 
HETATM    4  H5  UNL     1      25.291   5.176  51.285  1.00  0.00     0.182 HD
ENDROOT
BRANCH   3   5
HETATM    5  S1  UNL     1      24.858   2.823  51.757  1.00  0.00     0.265 S 
HETATM    6  O2  UNL     1      24.033   1.988  50.802  1.00  0.00    -0.200 OA
HETATM    7  O3  UNL     1      23.979   3.201  52.898  1.00  0.00    -0.200 OA
BRANCH   5   8
HETATM    8  C6  UNL     1      26.212   1.824  52.293  1.00  0.00     0.080 A 
HETATM    9  C7  UNL     1      27.366   2.315  52.872  1.00  0.00     0.027 A 
HETATM   10  C8  UNL     1      28.364   1.443  53.255  1.00  0.00     0.020 A 
HETATM   11  C9  UNL     1      28.172   0.092  53.044  1.00  0.00     0.011 A 
HETATM   12 BR1  UNL     1      29.539  -1.128  53.566  1.00  0.00    -0.051 Br
HETATM   13  C10 UNL     1      27.038  -0.431  52.471  1.00  0.00     0.020 A 
HETATM   14  C11 UNL     1      26.065   0.462  52.102  1.00  0.00     0.027 A 
ENDBRANCH   5   8
ENDBRANCH   3   5
BRANCH   1  15
HETATM   15  C4  UNL     1      26.826   5.204  48.995  1.00  0.00     0.052 A 
HETATM   16  C3  UNL     1      26.086   6.312  48.619  1.00  0.00     0.133 A 
HETATM   17  N2  UNL     1      26.688   7.300  47.927  1.00  0.00    -0.270 NA
HETATM   18  C2  UNL     1      27.993   7.213  47.605  1.00  0.00     0.145 A 
HETATM   19  C1  UNL     1      28.801   6.129  47.949  1.00  0.00     0.044 A 
HETATM   20  C12 UNL     1      28.154   5.126  48.660  1.00  0.00     0.049 A 
BRANCH  19  21
HETATM   21  N1  UNL     1      30.177   6.063  47.595  1.00  0.00    -0.398 N 
HETATM   22  H1  UNL     1      30.077   6.644  46.751  1.00  0.00     0.156 HD
HETATM   23  H2  UNL     1      31.010   5.590  48.036  1.00  0.00     0.156 HD
ENDBRANCH  19  21
ENDBRANCH   1  15
TORSDOF 4
ENDMDL
MODEL 8
REMARK VINA RESULT:      -7.0      4.691      6.457
REMARK  4 active torsions:
REMARK  status: ('A' for Active; 'I' for Inactive)
REMARK    1  A    between atoms: N1_1  and  C1_2 
REMARK    2  A    between atoms: C4_6  and  C5_7 
REMARK       I    between atoms: C5_7  and  N3_9 
REMARK    3  A    between atoms: N3_9  and  S1_10 
REMARK    4  A    between atoms: S1_10  and  C6_13 
ROOT
HETATM    1  C5  UNL     1      23.173   1.194  52.025  1.00  0.00     0.266 C 
HETATM    2  O1  UNL     1      22.010   1.203  51.496  1.00  0.00    -0.267 OA
HETATM    3  N3  UNL     1      24.062   2.100  51.390  1.00  0.00    -0.246 N 
HETATM    4  H5  UNL     1      25.046   2.164  51.755  1.00  0.00     0.182 HD
ENDROOT
BRANCH   3   5
HETATM    5  S1  UNL     1      23.565   3.083  50.050  1.00  0.00     0.265 S 
HETATM    6  O2  UNL     1      22.494   4.051  50.503  1.00  0.00    -0.200 OA
HETATM    7  O3  UNL     1      22.998   2.274  48.935  1.00  0.00    -0.200 OA
BRANCH   5   8
HETATM    8  C6  UNL     1      24.945   4.042  49.508  1.00  0.00     0.080 A 
HETATM    9  C7  UNL     1      26.247   3.584  49.462  1.00  0.00     0.027 A 
HETATM   10  C8  UNL     1      27.252   4.420  49.021  1.00  0.00     0.020 A 
HETATM   11  C9  UNL     1      26.917   5.703  48.635  1.00  0.00     0.011 A 
HETATM   12 BR1  UNL     1      28.290   6.872  48.023  1.00  0.00    -0.051 Br
HETATM   13  C10 UNL     1      25.633   6.192  48.669  1.00  0.00     0.020 A 
HETATM   14  C11 UNL     1      24.658   5.336  49.112  1.00  0.00     0.027 A 
ENDBRANCH   5   8
ENDBRANCH   3   5
BRANCH   1  15
HETATM   15  C4  UNL     1      23.525   0.339  53.154  1.00  0.00     0.052 A 
HETATM   16  C3  UNL     1      22.599  -0.402  53.868  1.00  0.00     0.133 A 
HETATM   17  N2  UNL     1      23.018  -1.164  54.897  1.00  0.00    -0.270 NA
HETATM   18  C2  UNL     1      24.323  -1.206  55.230  1.00  0.00     0.145 A 
HETATM   19  C1  UNL     1      25.313  -0.488  54.560  1.00  0.00     0.044 A 
HETATM   20  C12 UNL     1      24.852   0.289  53.504  1.00  0.00     0.049 A 
BRANCH  19  21
HETATM   21  N1  UNL     1      26.684  -0.551  54.932  1.00  0.00    -0.398 N 
HETATM   22  H1  UNL     1      26.993  -0.980  54.049  1.00  0.00     0.156 HD
HETATM   23  H2  UNL     1      27.206  -0.262  55.801  1.00  0.00     0.156 HD
ENDBRANCH  19  21
ENDBRANCH   1  15
TORSDOF 4
ENDMDL
MODEL 9
REMARK VINA RESULT:      -6.5      5.683      6.761
REMARK  4 active torsions:
REMARK  status: ('A' for Active; 'I' for Inactive)
REMARK    1  A    between atoms: N1_1  and  C1_2 
REMARK    2  A    between atoms: C4_6  and  C5_7 
REMARK       I    between atoms: C5_7  and  N3_9 
REMARK    3  A    between atoms: N3_9  and  S1_10 
REMARK    4  A    between atoms: S1_10  and  C6_13 
ROOT
HETATM    1  C5  UNL     1      26.608   5.830  48.796  1.00  0.00     0.266 C 
HETATM    2  O1  UNL     1      25.481   6.258  48.372  1.00  0.00    -0.267 OA
HETATM    3  N3  UNL     1      26.464   4.795  49.757  1.00  0.00    -0.246 N 
HETATM    4  H5  UNL     1      27.338   4.377  50.166  1.00  0.00     0.182 HD
ENDROOT
BRANCH   3   5
HETATM    5  S1  UNL     1      24.907   4.218  50.257  1.00  0.00     0.265 S 
HETATM    6  O2  UNL     1      24.142   3.717  49.051  1.00  0.00    -0.200 OA
HETATM    7  O3  UNL     1      24.088   5.285  50.897  1.00  0.00    -0.200 OA
BRANCH   5   8
HETATM    8  C6  UNL     1      25.133   2.845  51.343  1.00  0.00     0.080 A 
HETATM    9  C7  UNL     1      26.266   2.056  51.382  1.00  0.00     0.027 A 
HETATM   10  C8  UNL     1      26.339   1.005  52.273  1.00  0.00     0.020 A 
HETATM   11  C9  UNL     1      25.261   0.775  53.106  1.00  0.00     0.011 A 
HETATM   12 BR1  UNL     1      25.342  -0.671  54.343  1.00  0.00    -0.051 Br
HETATM   13  C10 UNL     1      24.119   1.539  53.094  1.00  0.00     0.020 A 
HETATM   14  C11 UNL     1      24.079   2.576  52.198  1.00  0.00     0.027 A 
ENDBRANCH   5   8
ENDBRANCH   3   5
BRANCH   1  15
HETATM   15  C4  UNL     1      27.885   6.361  48.332  1.00  0.00     0.052 A 
HETATM   16  C3  UNL     1      28.073   7.683  47.967  1.00  0.00     0.133 A 
HETATM   17  N2  UNL     1      29.290   8.084  47.550  1.00  0.00    -0.270 NA
HETATM   18  C2  UNL     1      30.314   7.210  47.488  1.00  0.00     0.145 A 
HETATM   19  C1  UNL     1      30.201   5.864  47.838  1.00  0.00     0.044 A 
HETATM   20  C12 UNL     1      28.935   5.480  48.264  1.00  0.00     0.049 A 
BRANCH  19  21
HETATM   21  N1  UNL     1      31.299   4.963  47.763  1.00  0.00    -0.398 N 
HETATM   22  H1  UNL     1      31.547   5.048  48.759  1.00  0.00     0.156 HD
HETATM   23  H2  UNL     1      31.714   4.402  46.974  1.00  0.00     0.156 HD
ENDBRANCH  19  21
ENDBRANCH   1  15
TORSDOF 4
ENDMDL
