MODEL 1
REMARK VINA RESULT:      -8.4      0.000      0.000
REMARK  3 active torsions:
REMARK  status: ('A' for Active; 'I' for Inactive)
REMARK    1  A    between atoms: O1_2  and  C2_3 
REMARK    2  A    between atoms: C3_4  and  O2_5 
REMARK    3  A    between atoms: C7_10  and  C8_11 
ROOT
HETATM    1  C2  UNL     1      27.091   1.349  53.695  1.00  0.00     0.128 A 
HETATM    2  C3  UNL     1      26.688   1.926  52.577  1.00  0.00     0.213 A 
HETATM    3  O3  UNL     1      25.492   1.767  51.916  1.00  0.00    -0.313 OA
HETATM    4  C4  UNL     1      24.518   0.908  52.432  1.00  0.00     0.206 A 
HETATM    5  C5  UNL     1      23.176   1.500  52.480  1.00  0.00     0.014 C 
HETATM    6  C6  UNL     1      21.941   1.172  52.816  1.00  0.00     0.031 C 
HETATM    7  C7  UNL     1      21.396  -0.062  53.330  1.00  0.00     0.068 C 
HETATM    8  N1  UNL     1      21.931  -0.983  54.096  1.00  0.00    -0.241 NA
HETATM    9  C15 UNL     1      23.202  -1.154  54.714  1.00  0.00     0.234 C 
HETATM   10  N2  UNL     1      24.373  -0.644  54.521  1.00  0.00    -0.243 NA
HETATM   11  C16 UNL     1      25.015   0.297  53.662  1.00  0.00     0.071 A 
HETATM   12  C17 UNL     1      26.159   0.424  54.322  1.00  0.00     0.072 A 
ENDROOT
BRANCH   7  13
HETATM   13  C8  UNL     1      20.021  -0.354  52.949  1.00  0.00    -0.007 A 
HETATM   14  C9  UNL     1      19.099  -1.153  53.582  1.00  0.00     0.014 A 
HETATM   15  C10 UNL     1      17.822  -1.346  53.102  1.00  0.00     0.001 A 
HETATM   16  C11 UNL     1      17.394  -0.746  51.954  1.00  0.00     0.007 A 
HETATM   17  C12 UNL     1      18.276   0.063  51.283  1.00  0.00    -0.061 A 
HETATM   18  C13 UNL     1      17.813   0.715  50.036  1.00  0.00     0.048 C 
HETATM   19  C14 UNL     1      19.549   0.245  51.778  1.00  0.00     0.020 A 
ENDBRANCH   7  13
BRANCH   2  20
HETATM   20  O2  UNL     1      27.549   2.833  51.925  1.00  0.00    -0.339 OA
HETATM   21  H4  UNL     1      28.511   2.853  52.163  1.00  0.00     0.220 HD
ENDBRANCH   2  20
BRANCH   1  22
HETATM   22  O1  UNL     1      28.327   1.591  54.265  1.00  0.00    -0.351 OA
HETATM   23  C1  UNL     1      29.404   0.686  54.179  1.00  0.00     0.210 C 
ENDBRANCH   1  22
TORSDOF 3
ENDMDL
MODEL 2
REMARK VINA RESULT:      -8.2      4.302      7.975
REMARK  3 active torsions:
REMARK  status: ('A' for Active; 'I' for Inactive)
REMARK    1  A    between atoms: O1_2  and  C2_3 
REMARK    2  A    between atoms: C3_4  and  O2_5 
REMARK    3  A    between atoms: C7_10  and  C8_11 
ROOT
HETATM    1  C2  UNL     1      22.662   0.118  53.068  1.00  0.00     0.128 A 
HETATM    2  C3  UNL     1      21.834   1.102  52.768  1.00  0.00     0.213 A 
HETATM    3  O3  UNL     1      22.123   2.318  52.192  1.00  0.00    -0.313 OA
HETATM    4  C4  UNL     1      23.440   2.628  51.841  1.00  0.00     0.206 A 
HETATM    5  C5  UNL     1      23.576   3.170  50.484  1.00  0.00     0.014 C 
HETATM    6  C6  UNL     1      24.509   3.641  49.675  1.00  0.00     0.031 C 
HETATM    7  C7  UNL     1      25.929   3.810  49.867  1.00  0.00     0.068 C 
HETATM    8  N1  UNL     1      26.788   3.121  50.581  1.00  0.00    -0.241 NA
HETATM    9  C15 UNL     1      26.695   1.978  51.425  1.00  0.00     0.234 C 
HETATM   10  N2  UNL     1      25.722   1.384  52.032  1.00  0.00    -0.243 NA
HETATM   11  C16 UNL     1      24.311   1.510  52.197  1.00  0.00     0.071 A 
HETATM   12  C17 UNL     1      24.067   0.331  52.753  1.00  0.00     0.072 A 
ENDROOT
BRANCH   7  13
HETATM   13  C8  UNL     1      26.535   4.927  49.154  1.00  0.00    -0.007 A 
HETATM   14  C9  UNL     1      25.959   6.102  48.739  1.00  0.00     0.014 A 
HETATM   15  C10 UNL     1      26.657   7.080  48.062  1.00  0.00     0.001 A 
HETATM   16  C11 UNL     1      27.980   6.932  47.762  1.00  0.00     0.007 A 
HETATM   17  C12 UNL     1      28.604   5.775  48.155  1.00  0.00    -0.061 A 
HETATM   18  C13 UNL     1      30.040   5.613  47.830  1.00  0.00     0.048 C 
HETATM   19  C14 UNL     1      27.890   4.809  48.832  1.00  0.00     0.020 A 
ENDBRANCH   7  13
BRANCH   2  20
HETATM   20  O2  UNL     1      20.460   0.951  53.049  1.00  0.00    -0.339 OA
HETATM   21  H4  UNL     1      20.135   1.059  53.980  1.00  0.00     0.220 HD
ENDBRANCH   2  20
BRANCH   1  22
HETATM   22  O1  UNL     1      22.247  -1.065  53.650  1.00  0.00    -0.351 OA
HETATM   23  C1  UNL     1      22.350  -1.320  55.033  1.00  0.00     0.210 C 
ENDBRANCH   1  22
TORSDOF 3
ENDMDL
MODEL 3
REMARK VINA RESULT:      -7.9      3.388      4.876
REMARK  3 active torsions:
REMARK  status: ('A' for Active; 'I' for Inactive)
REMARK    1  A    between atoms: O1_2  and  C2_3 
REMARK    2  A    between atoms: C3_4  and  O2_5 
REMARK    3  A    between atoms: C7_10  and  C8_11 
ROOT
HETATM    1  C2  UNL     1      26.423   5.288  48.973  1.00  0.00     0.128 A 
HETATM    2  C3  UNL     1      25.120   5.484  48.885  1.00  0.00     0.213 A 
HETATM    3  O3  UNL     1      24.103   4.704  49.384  1.00  0.00    -0.313 OA
HETATM    4  C4  UNL     1      24.402   3.539  50.097  1.00  0.00     0.206 A 
HETATM    5  C5  UNL     1      23.662   3.415  51.358  1.00  0.00     0.014 C 
HETATM    6  C6  UNL     1      23.519   2.569  52.364  1.00  0.00     0.031 C 
HETATM    7  C7  UNL     1      24.128   1.285  52.614  1.00  0.00     0.068 C 
HETATM    8  N1  UNL     1      25.310   0.817  52.288  1.00  0.00    -0.241 NA
HETATM    9  C15 UNL     1      26.434   1.342  51.591  1.00  0.00     0.234 C 
HETATM   10  N2  UNL     1      26.607   2.329  50.777  1.00  0.00    -0.243 NA
HETATM   11  C16 UNL     1      25.852   3.370  50.161  1.00  0.00     0.071 A 
HETATM   12  C17 UNL     1      26.856   4.098  49.690  1.00  0.00     0.072 A 
ENDROOT
BRANCH   7  13
HETATM   13  C8  UNL     1      23.312   0.331  53.353  1.00  0.00    -0.007 A 
HETATM   14  C9  UNL     1      23.695  -0.572  54.314  1.00  0.00     0.014 A 
HETATM   15  C10 UNL     1      22.809  -1.428  54.933  1.00  0.00     0.001 A 
HETATM   16  C11 UNL     1      21.481  -1.426  54.621  1.00  0.00     0.007 A 
HETATM   17  C12 UNL     1      21.045  -0.542  53.665  1.00  0.00    -0.061 A 
HETATM   18  C13 UNL     1      19.604  -0.540  53.325  1.00  0.00     0.048 C 
HETATM   19  C14 UNL     1      21.946   0.306  53.058  1.00  0.00     0.020 A 
ENDBRANCH   7  13
BRANCH   2  20
HETATM   20  O2  UNL     1      24.643   6.622  48.202  1.00  0.00    -0.339 OA
HETATM   21  H4  UNL     1      24.312   6.532  47.272  1.00  0.00     0.220 HD
ENDBRANCH   2  20
BRANCH   1  22
HETATM   22  O1  UNL     1      27.354   6.151  48.424  1.00  0.00    -0.351 OA
HETATM   23  C1  UNL     1      28.709   5.807  48.240  1.00  0.00     0.210 C 
ENDBRANCH   1  22
TORSDOF 3
ENDMDL
MODEL 4
REMARK VINA RESULT:      -7.8      4.098      7.594
REMARK  3 active torsions:
REMARK  status: ('A' for Active; 'I' for Inactive)
REMARK    1  A    between atoms: O1_2  and  C2_3 
REMARK    2  A    between atoms: C3_4  and  O2_5 
REMARK    3  A    between atoms: C7_10  and  C8_11 
ROOT
HETATM    1  C2  UNL     1      20.834  -0.455  53.263  1.00  0.00     0.128 A 
HETATM    2  C3  UNL     1      21.939  -0.381  53.982  1.00  0.00     0.213 A 
HETATM    3  O3  UNL     1      23.139   0.202  53.646  1.00  0.00    -0.313 OA
HETATM    4  C4  UNL     1      23.289   0.827  52.405  1.00  0.00     0.206 A 
HETATM    5  C5  UNL     1      23.897   2.160  52.486  1.00  0.00     0.014 C 
HETATM    6  C6  UNL     1      24.288   3.140  51.689  1.00  0.00     0.031 C 
HETATM    7  C7  UNL     1      24.248   3.263  50.252  1.00  0.00     0.068 C 
HETATM    8  N1  UNL     1      23.402   2.782  49.371  1.00  0.00    -0.241 NA
HETATM    9  C15 UNL     1      22.229   1.979  49.449  1.00  0.00     0.234 C 
HETATM   10  N2  UNL     1      21.735   1.192  50.345  1.00  0.00    -0.243 NA
HETATM   11  C16 UNL     1      22.041   0.713  51.653  1.00  0.00     0.071 A 
HETATM   12  C17 UNL     1      20.872   0.157  51.943  1.00  0.00     0.072 A 
ENDROOT
BRANCH   7  13
HETATM   13  C8  UNL     1      25.317   4.053  49.655  1.00  0.00    -0.007 A 
HETATM   14  C9  UNL     1      26.628   3.709  49.435  1.00  0.00     0.014 A 
HETATM   15  C10 UNL     1      27.541   4.567  48.860  1.00  0.00     0.001 A 
HETATM   16  C11 UNL     1      27.188   5.826  48.472  1.00  0.00     0.007 A 
HETATM   17  C12 UNL     1      25.889   6.221  48.670  1.00  0.00    -0.061 A 
HETATM   18  C13 UNL     1      25.505   7.588  48.249  1.00  0.00     0.048 C 
HETATM   19  C14 UNL     1      24.990   5.349  49.245  1.00  0.00     0.020 A 
ENDBRANCH   7  13
BRANCH   2  20
HETATM   20  O2  UNL     1      21.959  -0.955  55.270  1.00  0.00    -0.339 OA
HETATM   21  H4  UNL     1      22.003  -1.941  55.366  1.00  0.00     0.220 HD
ENDBRANCH   2  20
BRANCH   1  22
HETATM   22  O1  UNL     1      19.682  -1.073  53.714  1.00  0.00    -0.351 OA
HETATM   23  C1  UNL     1      18.442  -0.969  53.051  1.00  0.00     0.210 C 
ENDBRANCH   1  22
TORSDOF 3
ENDMDL
MODEL 5
REMARK VINA RESULT:      -7.7      1.594      2.240
REMARK  3 active torsions:
REMARK  status: ('A' for Active; 'I' for Inactive)
REMARK    1  A    between atoms: O1_2  and  C2_3 
REMARK    2  A    between atoms: C3_4  and  O2_5 
REMARK    3  A    between atoms: C7_10  and  C8_11 
ROOT
HETATM    1  C2  UNL     1      27.071   1.048  53.328  1.00  0.00     0.128 A 
HETATM    2  C3  UNL     1      26.709   0.180  54.254  1.00  0.00     0.213 A 
HETATM    3  O3  UNL     1      25.441  -0.236  54.587  1.00  0.00    -0.313 OA
HETATM    4  C4  UNL     1      24.336   0.272  53.898  1.00  0.00     0.206 A 
HETATM    5  C5  UNL     1      23.392  -0.760  53.455  1.00  0.00     0.014 C 
HETATM    6  C6  UNL     1      22.232  -0.865  52.831  1.00  0.00     0.031 C 
HETATM    7  C7  UNL     1      21.357   0.145  52.284  1.00  0.00     0.068 C 
HETATM    8  N1  UNL     1      21.624   1.317  51.756  1.00  0.00    -0.241 NA
HETATM    9  C15 UNL     1      22.816   2.053  51.509  1.00  0.00     0.234 C 
HETATM   10  N2  UNL     1      24.023   1.992  51.965  1.00  0.00    -0.243 NA
HETATM   11  C16 UNL     1      24.793   1.227  52.890  1.00  0.00     0.071 A 
HETATM   12  C17 UNL     1      26.002   1.652  52.547  1.00  0.00     0.072 A 
ENDROOT
BRANCH   7  13
HETATM   13  C8  UNL     1      19.935  -0.168  52.310  1.00  0.00    -0.007 A 
HETATM   14  C9  UNL     1      19.208  -0.807  53.284  1.00  0.00     0.014 A 
HETATM   15  C10 UNL     1      17.854  -1.044  53.173  1.00  0.00     0.001 A 
HETATM   16  C11 UNL     1      17.150  -0.651  52.072  1.00  0.00     0.007 A 
HETATM   17  C12 UNL     1      17.830  -0.008  51.069  1.00  0.00    -0.061 A 
HETATM   18  C13 UNL     1      17.067   0.418  49.873  1.00  0.00     0.048 C 
HETATM   19  C14 UNL     1      19.183   0.221  51.198  1.00  0.00     0.020 A 
ENDBRANCH   7  13
BRANCH   2  20
HETATM   20  O2  UNL     1      27.704  -0.438  55.041  1.00  0.00    -0.339 OA
HETATM   21  H4  UNL     1      27.847  -0.136  55.975  1.00  0.00     0.220 HD
ENDBRANCH   2  20
BRANCH   1  22
HETATM   22  O1  UNL     1      28.390   1.387  53.087  1.00  0.00    -0.351 OA
HETATM   23  C1  UNL     1      29.030   2.479  53.709  1.00  0.00     0.210 C 
ENDBRANCH   1  22
TORSDOF 3
ENDMDL
MODEL 6
REMARK VINA RESULT:      -7.6      4.090      7.418
REMARK  3 active torsions:
REMARK  status: ('A' for Active; 'I' for Inactive)
REMARK    1  A    between atoms: O1_2  and  C2_3 
REMARK    2  A    between atoms: C3_4  and  O2_5 
REMARK    3  A    between atoms: C7_10  and  C8_11 
ROOT
HETATM    1  C2  UNL     1      23.338  -0.637  53.741  1.00  0.00     0.128 A 
HETATM    2  C3  UNL     1      24.630  -0.477  53.964  1.00  0.00     0.213 A 
HETATM    3  O3  UNL     1      25.523   0.317  53.283  1.00  0.00    -0.313 OA
HETATM    4  C4  UNL     1      25.087   1.094  52.206  1.00  0.00     0.206 A 
HETATM    5  C5  UNL     1      25.546   2.486  52.260  1.00  0.00     0.014 C 
HETATM    6  C6  UNL     1      25.479   3.598  51.549  1.00  0.00     0.031 C 
HETATM    7  C7  UNL     1      24.837   3.877  50.287  1.00  0.00     0.068 C 
HETATM    8  N1  UNL     1      23.751   3.376  49.747  1.00  0.00    -0.241 NA
HETATM    9  C15 UNL     1      22.795   2.400  50.148  1.00  0.00     0.234 C 
HETATM   10  N2  UNL     1      22.792   1.449  51.022  1.00  0.00    -0.243 NA
HETATM   11  C16 UNL     1      23.656   0.877  52.002  1.00  0.00     0.071 A 
HETATM   12  C17 UNL     1      22.769   0.120  52.635  1.00  0.00     0.072 A 
ENDROOT
BRANCH   7  13
HETATM   13  C8  UNL     1      25.483   4.884  49.456  1.00  0.00    -0.007 A 
HETATM   14  C9  UNL     1      24.932   5.981  48.840  1.00  0.00     0.014 A 
HETATM   15  C10 UNL     1      25.669   6.856  48.071  1.00  0.00     0.001 A 
HETATM   16  C11 UNL     1      27.007   6.679  47.874  1.00  0.00     0.007 A 
HETATM   17  C12 UNL     1      27.608   5.597  48.468  1.00  0.00    -0.061 A 
HETATM   18  C13 UNL     1      29.060   5.403  48.255  1.00  0.00     0.048 C 
HETATM   19  C14 UNL     1      26.855   4.733  49.235  1.00  0.00     0.020 A 
ENDBRANCH   7  13
BRANCH   2  20
HETATM   20  O2  UNL     1      25.235  -1.185  55.024  1.00  0.00    -0.339 OA
HETATM   21  H4  UNL     1      25.236  -0.795  55.935  1.00  0.00     0.220 HD
ENDBRANCH   2  20
BRANCH   1  22
HETATM   22  O1  UNL     1      22.539  -1.471  54.501  1.00  0.00    -0.351 OA
HETATM   23  C1  UNL     1      21.135  -1.505  54.388  1.00  0.00     0.210 C 
ENDBRANCH   1  22
TORSDOF 3
ENDMDL
MODEL 7
REMARK VINA RESULT:      -7.5      4.118      5.590
REMARK  3 active torsions:
REMARK  status: ('A' for Active; 'I' for Inactive)
REMARK    1  A    between atoms: O1_2  and  C2_3 
REMARK    2  A    between atoms: C3_4  and  O2_5 
REMARK    3  A    between atoms: C7_10  and  C8_11 
ROOT
HETATM    1  C2  UNL     1      27.126  -0.078  53.675  1.00  0.00     0.128 A 
HETATM    2  C3  UNL     1      25.888  -0.121  54.131  1.00  0.00     0.213 A 
HETATM    3  O3  UNL     1      24.806   0.634  53.740  1.00  0.00    -0.313 OA
HETATM    4  C4  UNL     1      24.949   1.589  52.729  1.00  0.00     0.206 A 
HETATM    5  C5  UNL     1      23.905   1.519  51.701  1.00  0.00     0.014 C 
HETATM    6  C6  UNL     1      23.532   2.145  50.598  1.00  0.00     0.031 C 
HETATM    7  C7  UNL     1      24.103   3.282  49.917  1.00  0.00     0.068 C 
HETATM    8  N1  UNL     1      25.347   3.688  49.818  1.00  0.00    -0.241 NA
HETATM    9  C15 UNL     1      26.595   3.212  50.311  1.00  0.00     0.234 C 
HETATM   10  N2  UNL     1      26.940   2.405  51.257  1.00  0.00    -0.243 NA
HETATM   11  C16 UNL     1      26.335   1.596  52.264  1.00  0.00     0.071 A 
HETATM   12  C17 UNL     1      27.399   0.887  52.620  1.00  0.00     0.072 A 
ENDROOT
BRANCH   7  13
HETATM   13  C8  UNL     1      23.158   4.136  49.210  1.00  0.00    -0.007 A 
HETATM   14  C9  UNL     1      21.790   4.041  49.141  1.00  0.00     0.014 A 
HETATM   15  C10 UNL     1      21.013   4.925  48.422  1.00  0.00     0.001 A 
HETATM   16  C11 UNL     1      21.569   5.959  47.727  1.00  0.00     0.007 A 
HETATM   17  C12 UNL     1      22.933   6.099  47.763  1.00  0.00    -0.061 A 
HETATM   18  C13 UNL     1      23.538   7.221  47.008  1.00  0.00     0.048 C 
HETATM   19  C14 UNL     1      23.694   5.206  48.488  1.00  0.00     0.020 A 
ENDBRANCH   7  13
BRANCH   2  20
HETATM   20  O2  UNL     1      25.565  -1.038  55.153  1.00  0.00    -0.339 OA
HETATM   21  H4  UNL     1      26.284  -1.397  55.734  1.00  0.00     0.220 HD
ENDBRANCH   2  20
BRANCH   1  22
HETATM   22  O1  UNL     1      28.134  -0.894  54.153  1.00  0.00    -0.351 OA
HETATM   23  C1  UNL     1      29.501  -0.654  53.908  1.00  0.00     0.210 C 
ENDBRANCH   1  22
TORSDOF 3
ENDMDL
MODEL 8
REMARK VINA RESULT:      -7.3      4.918      8.060
REMARK  3 active torsions:
REMARK  status: ('A' for Active; 'I' for Inactive)
REMARK    1  A    between atoms: O1_2  and  C2_3 
REMARK    2  A    between atoms: C3_4  and  O2_5 
REMARK    3  A    between atoms: C7_10  and  C8_11 
ROOT
HETATM    1  C2  UNL     1      23.586   6.700  47.840  1.00  0.00     0.128 A 
HETATM    2  C3  UNL     1      24.879   6.964  47.819  1.00  0.00     0.213 A 
HETATM    3  O3  UNL     1      25.880   6.399  48.575  1.00  0.00    -0.313 OA
HETATM    4  C4  UNL     1      25.573   5.402  49.505  1.00  0.00     0.206 A 
HETATM    5  C5  UNL     1      26.452   4.229  49.423  1.00  0.00     0.014 C 
HETATM    6  C6  UNL     1      26.646   3.071  50.028  1.00  0.00     0.031 C 
HETATM    7  C7  UNL     1      25.964   2.460  51.144  1.00  0.00     0.068 C 
HETATM    8  N1  UNL     1      24.714   2.542  51.536  1.00  0.00    -0.241 NA
HETATM    9  C15 UNL     1      23.561   3.227  51.059  1.00  0.00     0.234 C 
HETATM   10  N2  UNL     1      23.373   4.232  50.270  1.00  0.00    -0.243 NA
HETATM   11  C16 UNL     1      24.133   5.152  49.489  1.00  0.00     0.071 A 
HETATM   12  C17 UNL     1      23.144   5.679  48.779  1.00  0.00     0.072 A 
ENDROOT
BRANCH   7  13
HETATM   13  C8  UNL     1      26.780   1.601  51.991  1.00  0.00    -0.007 A 
HETATM   14  C9  UNL     1      27.774   1.948  52.873  1.00  0.00     0.014 A 
HETATM   15  C10 UNL     1      28.476   1.021  53.614  1.00  0.00     0.001 A 
HETATM   16  C11 UNL     1      28.218  -0.315  53.510  1.00  0.00     0.007 A 
HETATM   17  C12 UNL     1      27.233  -0.716  52.643  1.00  0.00    -0.061 A 
HETATM   18  C13 UNL     1      26.954  -2.166  52.529  1.00  0.00     0.048 C 
HETATM   19  C14 UNL     1      26.542   0.226  51.911  1.00  0.00     0.020 A 
ENDBRANCH   7  13
BRANCH   2  20
HETATM   20  O2  UNL     1      25.364   7.945  46.928  1.00  0.00    -0.339 OA
HETATM   21  H4  UNL     1      25.076   7.930  45.979  1.00  0.00     0.220 HD
ENDBRANCH   2  20
BRANCH   1  22
HETATM   22  O1  UNL     1      22.672   7.342  47.024  1.00  0.00    -0.351 OA
HETATM   23  C1  UNL     1      21.710   6.655  46.256  1.00  0.00     0.210 C 
ENDBRANCH   1  22
TORSDOF 3
ENDMDL
MODEL 9
REMARK VINA RESULT:      -7.2      5.301      7.666
REMARK  3 active torsions:
REMARK  status: ('A' for Active; 'I' for Inactive)
REMARK    1  A    between atoms: O1_2  and  C2_3 
REMARK    2  A    between atoms: C3_4  and  O2_5 
REMARK    3  A    between atoms: C7_10  and  C8_11 
ROOT
HETATM    1  C2  UNL     1      25.432   7.734  47.443  1.00  0.00     0.128 A 
HETATM    2  C3  UNL     1      26.704   7.443  47.652  1.00  0.00     0.213 A 
HETATM    3  O3  UNL     1      27.236   6.503  48.503  1.00  0.00    -0.313 OA
HETATM    4  C4  UNL     1      26.391   5.702  49.277  1.00  0.00     0.206 A 
HETATM    5  C5  UNL     1      26.724   4.274  49.228  1.00  0.00     0.014 C 
HETATM    6  C6  UNL     1      26.323   3.127  49.747  1.00  0.00     0.031 C 
HETATM    7  C7  UNL     1      25.262   2.830  50.679  1.00  0.00     0.068 C 
HETATM    8  N1  UNL     1      24.101   3.411  50.873  1.00  0.00    -0.241 NA
HETATM    9  C15 UNL     1      23.429   4.519  50.283  1.00  0.00     0.234 C 
HETATM   10  N2  UNL     1      23.807   5.526  49.570  1.00  0.00    -0.243 NA
HETATM   11  C16 UNL     1      25.001   6.067  49.008  1.00  0.00     0.071 A 
HETATM   12  C17 UNL     1      24.455   6.967  48.201  1.00  0.00     0.072 A 
ENDROOT
BRANCH   7  13
HETATM   13  C8  UNL     1      25.495   1.696  51.562  1.00  0.00    -0.007 A 
HETATM   14  C9  UNL     1      26.671   1.045  51.843  1.00  0.00     0.014 A 
HETATM   15  C10 UNL     1      26.746  -0.030  52.703  1.00  0.00     0.001 A 
HETATM   16  C11 UNL     1      25.638  -0.515  53.335  1.00  0.00     0.007 A 
HETATM   17  C12 UNL     1      24.436   0.100  53.089  1.00  0.00    -0.061 A 
HETATM   18  C13 UNL     1      23.233  -0.426  53.774  1.00  0.00     0.048 C 
HETATM   19  C14 UNL     1      24.381   1.174  52.226  1.00  0.00     0.020 A 
ENDBRANCH   7  13
BRANCH   2  20
HETATM   20  O2  UNL     1      27.695   8.154  46.944  1.00  0.00    -0.339 OA
HETATM   21  H4  UNL     1      27.691   9.146  46.958  1.00  0.00     0.220 HD
ENDBRANCH   2  20
BRANCH   1  22
HETATM   22  O1  UNL     1      25.019   8.710  46.555  1.00  0.00    -0.351 OA
HETATM   23  C1  UNL     1      23.960   8.523  45.643  1.00  0.00     0.210 C 
ENDBRANCH   1  22
TORSDOF 3
ENDMDL
