MODEL 1
REMARK VINA RESULT:      -7.5      0.000      0.000
REMARK  6 active torsions:
REMARK  status: ('A' for Active; 'I' for Inactive)
REMARK    1  A    between atoms: C2_2  and  C3_3 
REMARK    2  A    between atoms: C3_3  and  N1_5 
REMARK    3  A    between atoms: N1_5  and  C5_6 
REMARK    4  A    between atoms: C6_7  and  C7_8 
REMARK    5  A    between atoms: C9_10  and  N2_11 
REMARK    6  A    between atoms: N2_11  and  C10_12 
ROOT
HETATM    1  C7  UNL     1      25.217   1.871  53.449  1.00  0.00     0.140 A 
HETATM    2  C8  UNL     1      25.181   2.090  51.974  1.00  0.00     0.110 A 
HETATM    3  C9  UNL     1      26.506   2.434  51.388  1.00  0.00     0.108 A 
HETATM    4  N3  UNL     1      27.612   2.553  52.079  1.00  0.00    -0.229 NA
HETATM    5  C16 UNL     1      27.589   2.343  53.498  1.00  0.00     0.229 A 
HETATM    6  N4  UNL     1      26.492   2.038  54.081  1.00  0.00    -0.273 NA
ENDROOT
BRANCH   3   7
HETATM    7  N2  UNL     1      26.505   2.613  49.971  1.00  0.00    -0.344 N 
HETATM    8  H16 UNL     1      26.606   1.880  49.250  1.00  0.00     0.167 HD
BRANCH   7   9
HETATM    9  C10 UNL     1      26.351   3.945  49.431  1.00  0.00     0.034 A 
HETATM   10  C11 UNL     1      25.161   4.638  49.389  1.00  0.00     0.029 A 
HETATM   11  C12 UNL     1      25.137   5.901  48.865  1.00  0.00     0.004 A 
HETATM   12  C13 UNL     1      26.284   6.528  48.363  1.00  0.00     0.019 A 
HETATM   13  C14 UNL     1      27.473   5.788  48.425  1.00  0.00     0.013 A 
HETATM   14 BR1  UNL     1      28.992   6.743  47.711  1.00  0.00    -0.051 Br
HETATM   15  C15 UNL     1      27.542   4.505  48.949  1.00  0.00     0.048 A 
ENDBRANCH   7   9
ENDBRANCH   3   7
BRANCH   1  16
HETATM   16  C6  UNL     1      24.710   0.501  53.751  1.00  0.00     0.017 C 
HETATM   17  C5  UNL     1      25.341  -0.638  53.956  1.00  0.00     0.081 C 
BRANCH  17  18
HETATM   18  N1  UNL     1      26.738  -0.807  53.928  1.00  0.00    -0.395 N 
HETATM   19  H10 UNL     1      27.189  -0.515  54.850  1.00  0.00     0.159 HD
BRANCH  18  20
HETATM   20  C3  UNL     1      27.610  -1.287  52.896  1.00  0.00     0.076 C 
HETATM   21  C4  UNL     1      26.928  -2.437  52.165  1.00  0.00     0.032 C 
BRANCH  20  22
HETATM   22  C2  UNL     1      28.991  -1.654  53.320  1.00  0.00     0.020 C 
HETATM   23  C1  UNL     1      29.878  -0.482  53.662  1.00  0.00     0.007 C 
ENDBRANCH  20  22
ENDBRANCH  18  20
ENDBRANCH  17  18
ENDBRANCH   1  16
TORSDOF 6
ENDMDL
MODEL 2
REMARK VINA RESULT:      -7.1      2.813      6.676
REMARK  6 active torsions:
REMARK  status: ('A' for Active; 'I' for Inactive)
REMARK    1  A    between atoms: C2_2  and  C3_3 
REMARK    2  A    between atoms: C3_3  and  N1_5 
REMARK    3  A    between atoms: N1_5  and  C5_6 
REMARK    4  A    between atoms: C6_7  and  C7_8 
REMARK    5  A    between atoms: C9_10  and  N2_11 
REMARK    6  A    between atoms: N2_11  and  C10_12 
ROOT
HETATM    1  C7  UNL     1      22.955   5.446  51.214  1.00  0.00     0.140 A 
HETATM    2  C8  UNL     1      23.547   4.910  52.474  1.00  0.00     0.110 A 
HETATM    3  C9  UNL     1      24.086   3.528  52.340  1.00  0.00     0.108 A 
HETATM    4  N3  UNL     1      24.046   2.823  51.238  1.00  0.00    -0.229 NA
HETATM    5  C16 UNL     1      23.455   3.382  50.057  1.00  0.00     0.229 A 
HETATM    6  N4  UNL     1      22.973   4.566  50.083  1.00  0.00    -0.273 NA
ENDROOT
BRANCH   3   7
HETATM    7  N2  UNL     1      24.691   3.005  53.523  1.00  0.00    -0.344 N 
HETATM    8  H16 UNL     1      24.737   3.456  54.451  1.00  0.00     0.167 HD
BRANCH   7   9
HETATM    9  C10 UNL     1      25.324   1.706  53.473  1.00  0.00     0.034 A 
HETATM   10  C11 UNL     1      24.652   0.516  53.293  1.00  0.00     0.029 A 
HETATM   11  C12 UNL     1      25.358  -0.654  53.250  1.00  0.00     0.004 A 
HETATM   12  C13 UNL     1      26.752  -0.696  53.383  1.00  0.00     0.019 A 
HETATM   13  C14 UNL     1      27.395   0.536  53.565  1.00  0.00     0.013 A 
HETATM   14 BR1  UNL     1      29.310   0.366  53.736  1.00  0.00    -0.051 Br
HETATM   15  C15 UNL     1      26.717   1.745  53.614  1.00  0.00     0.048 A 
ENDBRANCH   7   9
ENDBRANCH   3   7
BRANCH   1  16
HETATM   16  C6  UNL     1      23.656   6.710  50.846  1.00  0.00     0.017 C 
HETATM   17  C5  UNL     1      24.886   6.938  50.429  1.00  0.00     0.081 C 
BRANCH  17  18
HETATM   18  N1  UNL     1      25.869   5.951  50.231  1.00  0.00    -0.395 N 
HETATM   19  H10 UNL     1      26.242   5.574  51.157  1.00  0.00     0.159 HD
BRANCH  18  20
HETATM   20  C3  UNL     1      26.425   5.399  49.029  1.00  0.00     0.076 C 
HETATM   21  C4  UNL     1      26.910   3.982  49.310  1.00  0.00     0.032 C 
BRANCH  20  22
HETATM   22  C2  UNL     1      27.479   6.213  48.358  1.00  0.00     0.020 C 
HETATM   23  C1  UNL     1      28.828   5.543  48.263  1.00  0.00     0.007 C 
ENDBRANCH  20  22
ENDBRANCH  18  20
ENDBRANCH  17  18
ENDBRANCH   1  16
TORSDOF 6
ENDMDL
MODEL 3
REMARK VINA RESULT:      -7.0      4.844      6.602
REMARK  6 active torsions:
REMARK  status: ('A' for Active; 'I' for Inactive)
REMARK    1  A    between atoms: C2_2  and  C3_3 
REMARK    2  A    between atoms: C3_3  and  N1_5 
REMARK    3  A    between atoms: N1_5  and  C5_6 
REMARK    4  A    between atoms: C6_7  and  C7_8 
REMARK    5  A    between atoms: C9_10  and  N2_11 
REMARK    6  A    between atoms: N2_11  and  C10_12 
ROOT
HETATM    1  C7  UNL     1      24.439  -0.526  53.518  1.00  0.00     0.140 A 
HETATM    2  C8  UNL     1      23.003  -0.583  53.114  1.00  0.00     0.110 A 
HETATM    3  C9  UNL     1      22.095  -1.039  54.203  1.00  0.00     0.108 A 
HETATM    4  N3  UNL     1      22.492  -1.377  55.404  1.00  0.00    -0.229 NA
HETATM    5  C16 UNL     1      23.886  -1.315  55.736  1.00  0.00     0.229 A 
HETATM    6  N4  UNL     1      24.734  -0.927  54.860  1.00  0.00    -0.273 NA
ENDROOT
BRANCH   3   7
HETATM    7  N2  UNL     1      20.711  -1.068  53.854  1.00  0.00    -0.344 N 
HETATM    8  H16 UNL     1      20.024  -1.803  54.089  1.00  0.00     0.167 HD
BRANCH   7   9
HETATM    9  C10 UNL     1      20.156   0.025  53.087  1.00  0.00     0.034 A 
HETATM   10  C11 UNL     1      20.544   1.342  53.210  1.00  0.00     0.029 A 
HETATM   11  C12 UNL     1      19.958   2.292  52.422  1.00  0.00     0.004 A 
HETATM   12  C13 UNL     1      18.966   1.981  51.483  1.00  0.00     0.019 A 
HETATM   13  C14 UNL     1      18.601   0.631  51.390  1.00  0.00     0.013 A 
HETATM   14 BR1  UNL     1      17.232   0.312  50.067  1.00  0.00    -0.051 Br
HETATM   15  C15 UNL     1      19.171  -0.364  52.169  1.00  0.00     0.048 A 
ENDBRANCH   7   9
ENDBRANCH   3   7
BRANCH   1  16
HETATM   16  C6  UNL     1      24.948   0.861  53.311  1.00  0.00     0.017 C 
HETATM   17  C5  UNL     1      25.988   1.494  53.817  1.00  0.00     0.081 C 
BRANCH  17  18
HETATM   18  N1  UNL     1      26.904   0.944  54.733  1.00  0.00    -0.395 N 
HETATM   19  H10 UNL     1      26.498   0.900  55.718  1.00  0.00     0.159 HD
BRANCH  18  20
HETATM   20  C3  UNL     1      28.241   0.458  54.553  1.00  0.00     0.076 C 
HETATM   21  C4  UNL     1      29.158   1.632  54.233  1.00  0.00     0.032 C 
BRANCH  20  22
HETATM   22  C2  UNL     1      28.412  -0.651  53.571  1.00  0.00     0.020 C 
HETATM   23  C1  UNL     1      29.829  -1.143  53.416  1.00  0.00     0.007 C 
ENDBRANCH  20  22
ENDBRANCH  18  20
ENDBRANCH  17  18
ENDBRANCH   1  16
TORSDOF 6
ENDMDL
MODEL 4
REMARK VINA RESULT:      -6.9      2.448      3.955
REMARK  6 active torsions:
REMARK  status: ('A' for Active; 'I' for Inactive)
REMARK    1  A    between atoms: C2_2  and  C3_3 
REMARK    2  A    between atoms: C3_3  and  N1_5 
REMARK    3  A    between atoms: N1_5  and  C5_6 
REMARK    4  A    between atoms: C6_7  and  C7_8 
REMARK    5  A    between atoms: C9_10  and  N2_11 
REMARK    6  A    between atoms: N2_11  and  C10_12 
ROOT
HETATM    1  C7  UNL     1      25.362   1.562  53.385  1.00  0.00     0.140 A 
HETATM    2  C8  UNL     1      25.242   1.936  51.945  1.00  0.00     0.110 A 
HETATM    3  C9  UNL     1      26.512   2.439  51.351  1.00  0.00     0.108 A 
HETATM    4  N3  UNL     1      27.637   2.565  52.009  1.00  0.00    -0.229 NA
HETATM    5  C16 UNL     1      27.694   2.203  53.396  1.00  0.00     0.229 A 
HETATM    6  N4  UNL     1      26.649   1.755  53.982  1.00  0.00    -0.273 NA
ENDROOT
BRANCH   3   7
HETATM    7  N2  UNL     1      26.434   2.769  49.964  1.00  0.00    -0.344 N 
HETATM    8  H16 UNL     1      26.289   2.118  49.176  1.00  0.00     0.167 HD
BRANCH   7   9
HETATM    9  C10 UNL     1      26.565   4.152  49.562  1.00  0.00     0.034 A 
HETATM   10  C11 UNL     1      27.561   4.636  48.743  1.00  0.00     0.029 A 
HETATM   11  C12 UNL     1      27.579   5.964  48.419  1.00  0.00     0.004 A 
HETATM   12  C13 UNL     1      26.616   6.865  48.890  1.00  0.00     0.019 A 
HETATM   13  C14 UNL     1      25.621   6.331  49.720  1.00  0.00     0.013 A 
HETATM   14 BR1  UNL     1      24.345   7.654  50.311  1.00  0.00    -0.051 Br
HETATM   15  C15 UNL     1      25.565   4.991  50.073  1.00  0.00     0.048 A 
ENDBRANCH   7   9
ENDBRANCH   3   7
BRANCH   1  16
HETATM   16  C6  UNL     1      24.966   0.134  53.551  1.00  0.00     0.017 C 
HETATM   17  C5  UNL     1      23.784  -0.449  53.569  1.00  0.00     0.081 C 
BRANCH  17  18
HETATM   18  N1  UNL     1      22.552   0.215  53.425  1.00  0.00    -0.395 N 
HETATM   19  H10 UNL     1      22.659   1.136  52.897  1.00  0.00     0.159 HD
BRANCH  18  20
HETATM   20  C3  UNL     1      21.232  -0.138  53.862  1.00  0.00     0.076 C 
HETATM   21  C4  UNL     1      21.270  -1.531  54.480  1.00  0.00     0.032 C 
BRANCH  20  22
HETATM   22  C2  UNL     1      20.149  -0.024  52.844  1.00  0.00     0.020 C 
HETATM   23  C1  UNL     1      20.620   0.371  51.465  1.00  0.00     0.007 C 
ENDBRANCH  20  22
ENDBRANCH  18  20
ENDBRANCH  17  18
ENDBRANCH   1  16
TORSDOF 6
ENDMDL
MODEL 5
REMARK VINA RESULT:      -6.9      3.587      5.997
REMARK  6 active torsions:
REMARK  status: ('A' for Active; 'I' for Inactive)
REMARK    1  A    between atoms: C2_2  and  C3_3 
REMARK    2  A    between atoms: C3_3  and  N1_5 
REMARK    3  A    between atoms: N1_5  and  C5_6 
REMARK    4  A    between atoms: C6_7  and  C7_8 
REMARK    5  A    between atoms: C9_10  and  N2_11 
REMARK    6  A    between atoms: N2_11  and  C10_12 
ROOT
HETATM    1  C7  UNL     1      22.716   3.177  50.063  1.00  0.00     0.140 A 
HETATM    2  C8  UNL     1      24.143   2.863  50.365  1.00  0.00     0.110 A 
HETATM    3  C9  UNL     1      24.552   3.217  51.753  1.00  0.00     0.108 A 
HETATM    4  N3  UNL     1      23.759   3.766  52.639  1.00  0.00    -0.229 NA
HETATM    5  C16 UNL     1      22.399   4.059  52.293  1.00  0.00     0.229 A 
HETATM    6  N4  UNL     1      21.964   3.780  51.123  1.00  0.00    -0.273 NA
ENDROOT
BRANCH   3   7
HETATM    7  N2  UNL     1      25.903   2.893  52.079  1.00  0.00    -0.344 N 
HETATM    8  H16 UNL     1      26.718   3.527  52.061  1.00  0.00     0.167 HD
BRANCH   7   9
HETATM    9  C10 UNL     1      26.224   1.543  52.486  1.00  0.00     0.034 A 
HETATM   10  C11 UNL     1      25.307   0.519  52.585  1.00  0.00     0.029 A 
HETATM   11  C12 UNL     1      25.728  -0.724  52.969  1.00  0.00     0.004 A 
HETATM   12  C13 UNL     1      27.066  -1.005  53.270  1.00  0.00     0.019 A 
HETATM   13  C14 UNL     1      27.965   0.065  53.157  1.00  0.00     0.013 A 
HETATM   14 BR1  UNL     1      29.780  -0.428  53.591  1.00  0.00    -0.051 Br
HETATM   15  C15 UNL     1      27.581   1.340  52.770  1.00  0.00     0.048 A 
ENDBRANCH   7   9
ENDBRANCH   3   7
BRANCH   1  16
HETATM   16  C6  UNL     1      22.022   1.928  49.636  1.00  0.00     0.017 C 
HETATM   17  C5  UNL     1      21.703   0.835  50.300  1.00  0.00     0.081 C 
BRANCH  17  18
HETATM   18  N1  UNL     1      21.978   0.605  51.661  1.00  0.00    -0.395 N 
HETATM   19  H10 UNL     1      22.900   1.053  51.958  1.00  0.00     0.159 HD
BRANCH  18  20
HETATM   20  C3  UNL     1      21.244  -0.108  52.666  1.00  0.00     0.076 C 
HETATM   21  C4  UNL     1      20.604   0.895  53.618  1.00  0.00     0.032 C 
BRANCH  20  22
HETATM   22  C2  UNL     1      21.996  -1.160  53.407  1.00  0.00     0.020 C 
HETATM   23  C1  UNL     1      22.158  -0.897  54.884  1.00  0.00     0.007 C 
ENDBRANCH  20  22
ENDBRANCH  18  20
ENDBRANCH  17  18
ENDBRANCH   1  16
TORSDOF 6
ENDMDL
MODEL 6
REMARK VINA RESULT:      -6.9      4.336      6.406
REMARK  6 active torsions:
REMARK  status: ('A' for Active; 'I' for Inactive)
REMARK    1  A    between atoms: C2_2  and  C3_3 
REMARK    2  A    between atoms: C3_3  and  N1_5 
REMARK    3  A    between atoms: N1_5  and  C5_6 
REMARK    4  A    between atoms: C6_7  and  C7_8 
REMARK    5  A    between atoms: C9_10  and  N2_11 
REMARK    6  A    between atoms: N2_11  and  C10_12 
ROOT
HETATM    1  C7  UNL     1      24.445  -0.494  53.521  1.00  0.00     0.140 A 
HETATM    2  C8  UNL     1      22.956  -0.530  53.440  1.00  0.00     0.110 A 
HETATM    3  C9  UNL     1      22.302  -1.029  54.682  1.00  0.00     0.108 A 
HETATM    4  N3  UNL     1      22.948  -1.419  55.752  1.00  0.00    -0.229 NA
HETATM    5  C16 UNL     1      24.381  -1.376  55.773  1.00  0.00     0.229 A 
HETATM    6  N4  UNL     1      25.022  -0.954  54.749  1.00  0.00    -0.273 NA
ENDROOT
BRANCH   3   7
HETATM    7  N2  UNL     1      20.874  -1.038  54.644  1.00  0.00    -0.344 N 
HETATM    8  H16 UNL     1      20.237  -1.530  55.291  1.00  0.00     0.167 HD
BRANCH   7   9
HETATM    9  C10 UNL     1      20.194  -0.296  53.606  1.00  0.00     0.034 A 
HETATM   10  C11 UNL     1      19.146  -0.783  52.856  1.00  0.00     0.029 A 
HETATM   11  C12 UNL     1      18.569   0.015  51.908  1.00  0.00     0.004 A 
HETATM   12  C13 UNL     1      19.004   1.323  51.662  1.00  0.00     0.019 A 
HETATM   13  C14 UNL     1      20.073   1.779  52.447  1.00  0.00     0.013 A 
HETATM   14 BR1  UNL     1      20.592   3.592  52.030  1.00  0.00    -0.051 Br
HETATM   15  C15 UNL     1      20.685   1.003  53.419  1.00  0.00     0.048 A 
ENDBRANCH   7   9
ENDBRANCH   3   7
BRANCH   1  16
HETATM   16  C6  UNL     1      24.914   0.898  53.265  1.00  0.00     0.017 C 
HETATM   17  C5  UNL     1      25.932   1.581  53.750  1.00  0.00     0.081 C 
BRANCH  17  18
HETATM   18  N1  UNL     1      26.860   1.092  54.689  1.00  0.00    -0.395 N 
HETATM   19  H10 UNL     1      26.378   0.731  55.569  1.00  0.00     0.159 HD
BRANCH  18  20
HETATM   20  C3  UNL     1      28.292   1.011  54.647  1.00  0.00     0.076 C 
HETATM   21  C4  UNL     1      28.821   2.072  53.689  1.00  0.00     0.032 C 
BRANCH  20  22
HETATM   22  C2  UNL     1      28.866  -0.331  54.345  1.00  0.00     0.020 C 
HETATM   23  C1  UNL     1      30.058  -0.314  53.420  1.00  0.00     0.007 C 
ENDBRANCH  20  22
ENDBRANCH  18  20
ENDBRANCH  17  18
ENDBRANCH   1  16
TORSDOF 6
ENDMDL
MODEL 7
REMARK VINA RESULT:      -6.6      4.305      6.984
REMARK  6 active torsions:
REMARK  status: ('A' for Active; 'I' for Inactive)
REMARK    1  A    between atoms: C2_2  and  C3_3 
REMARK    2  A    between atoms: C3_3  and  N1_5 
REMARK    3  A    between atoms: N1_5  and  C5_6 
REMARK    4  A    between atoms: C6_7  and  C7_8 
REMARK    5  A    between atoms: C9_10  and  N2_11 
REMARK    6  A    between atoms: N2_11  and  C10_12 
ROOT
HETATM    1  C7  UNL     1      23.006   3.462  48.828  1.00  0.00     0.140 A 
HETATM    2  C8  UNL     1      24.198   3.069  49.635  1.00  0.00     0.110 A 
HETATM    3  C9  UNL     1      24.193   3.624  51.017  1.00  0.00     0.108 A 
HETATM    4  N3  UNL     1      23.252   4.397  51.500  1.00  0.00    -0.229 NA
HETATM    5  C16 UNL     1      22.133   4.754  50.677  1.00  0.00     0.229 A 
HETATM    6  N4  UNL     1      22.056   4.315  49.478  1.00  0.00    -0.273 NA
ENDROOT
BRANCH   3   7
HETATM    7  N2  UNL     1      25.305   3.233  51.823  1.00  0.00    -0.344 N 
HETATM    8  H16 UNL     1      26.062   3.840  52.176  1.00  0.00     0.167 HD
BRANCH   7   9
HETATM    9  C10 UNL     1      25.436   1.848  52.215  1.00  0.00     0.034 A 
HETATM   10  C11 UNL     1      26.555   1.075  51.994  1.00  0.00     0.029 A 
HETATM   11  C12 UNL     1      26.572  -0.223  52.421  1.00  0.00     0.004 A 
HETATM   12  C13 UNL     1      25.485  -0.810  53.082  1.00  0.00     0.019 A 
HETATM   13  C14 UNL     1      24.368   0.011  53.288  1.00  0.00     0.013 A 
HETATM   14 BR1  UNL     1      22.931  -0.892  54.208  1.00  0.00    -0.051 Br
HETATM   15  C15 UNL     1      24.310   1.332  52.871  1.00  0.00     0.048 A 
ENDBRANCH   7   9
ENDBRANCH   3   7
BRANCH   1  16
HETATM   16  C6  UNL     1      22.304   2.231  48.365  1.00  0.00     0.017 C 
HETATM   17  C5  UNL     1      21.648   1.298  49.027  1.00  0.00     0.081 C 
BRANCH  17  18
HETATM   18  N1  UNL     1      21.465   1.272  50.422  1.00  0.00    -0.395 N 
HETATM   19  H10 UNL     1      22.385   1.108  50.938  1.00  0.00     0.159 HD
BRANCH  18  20
HETATM   20  C3  UNL     1      20.284   1.424  51.223  1.00  0.00     0.076 C 
HETATM   21  C4  UNL     1      20.683   1.927  52.605  1.00  0.00     0.032 C 
BRANCH  20  22
HETATM   22  C2  UNL     1      19.393   0.232  51.312  1.00  0.00     0.020 C 
HETATM   23  C1  UNL     1      19.203  -0.309  52.708  1.00  0.00     0.007 C 
ENDBRANCH  20  22
ENDBRANCH  18  20
ENDBRANCH  17  18
ENDBRANCH   1  16
TORSDOF 6
ENDMDL
MODEL 8
REMARK VINA RESULT:      -6.5      3.942      6.584
REMARK  6 active torsions:
REMARK  status: ('A' for Active; 'I' for Inactive)
REMARK    1  A    between atoms: C2_2  and  C3_3 
REMARK    2  A    between atoms: C3_3  and  N1_5 
REMARK    3  A    between atoms: N1_5  and  C5_6 
REMARK    4  A    between atoms: C6_7  and  C7_8 
REMARK    5  A    between atoms: C9_10  and  N2_11 
REMARK    6  A    between atoms: N2_11  and  C10_12 
ROOT
HETATM    1  C7  UNL     1      23.096   3.605  49.289  1.00  0.00     0.140 A 
HETATM    2  C8  UNL     1      24.431   3.178  49.803  1.00  0.00     0.110 A 
HETATM    3  C9  UNL     1      24.617   3.425  51.260  1.00  0.00     0.108 A 
HETATM    4  N3  UNL     1      23.718   3.974  52.037  1.00  0.00    -0.229 NA
HETATM    5  C16 UNL     1      22.455   4.376  51.490  1.00  0.00     0.229 A 
HETATM    6  N4  UNL     1      22.210   4.195  50.248  1.00  0.00    -0.273 NA
ENDROOT
BRANCH   3   7
HETATM    7  N2  UNL     1      25.873   2.993  51.784  1.00  0.00    -0.344 N 
HETATM    8  H16 UNL     1      26.751   3.535  51.824  1.00  0.00     0.167 HD
BRANCH   7   9
HETATM    9  C10 UNL     1      25.985   1.659  52.330  1.00  0.00     0.034 A 
HETATM   10  C11 UNL     1      24.918   0.825  52.580  1.00  0.00     0.029 A 
HETATM   11  C12 UNL     1      25.145  -0.424  53.087  1.00  0.00     0.004 A 
HETATM   12  C13 UNL     1      26.432  -0.899  53.368  1.00  0.00     0.019 A 
HETATM   13  C14 UNL     1      27.490  -0.018  53.098  1.00  0.00     0.013 A 
HETATM   14 BR1  UNL     1      29.218  -0.769  53.518  1.00  0.00    -0.051 Br
HETATM   15  C15 UNL     1      27.303   1.256  52.583  1.00  0.00     0.048 A 
ENDBRANCH   7   9
ENDBRANCH   3   7
BRANCH   1  16
HETATM   16  C6  UNL     1      22.416   2.431  48.669  1.00  0.00     0.017 C 
HETATM   17  C5  UNL     1      21.903   1.338  49.199  1.00  0.00     0.081 C 
BRANCH  17  18
HETATM   18  N1  UNL     1      21.895   1.031  50.572  1.00  0.00    -0.395 N 
HETATM   19  H10 UNL     1      22.874   0.808  50.932  1.00  0.00     0.159 HD
BRANCH  18  20
HETATM   20  C3  UNL     1      20.820   0.972  51.520  1.00  0.00     0.076 C 
HETATM   21  C4  UNL     1      21.201   0.015  52.643  1.00  0.00     0.032 C 
BRANCH  20  22
HETATM   22  C2  UNL     1      19.472   0.655  50.968  1.00  0.00     0.020 C 
HETATM   23  C1  UNL     1      18.613  -0.210  51.857  1.00  0.00     0.007 C 
ENDBRANCH  20  22
ENDBRANCH  18  20
ENDBRANCH  17  18
ENDBRANCH   1  16
TORSDOF 6
ENDMDL
MODEL 9
REMARK VINA RESULT:      -6.4      2.126      3.187
REMARK  6 active torsions:
REMARK  status: ('A' for Active; 'I' for Inactive)
REMARK    1  A    between atoms: C2_2  and  C3_3 
REMARK    2  A    between atoms: C3_3  and  N1_5 
REMARK    3  A    between atoms: N1_5  and  C5_6 
REMARK    4  A    between atoms: C6_7  and  C7_8 
REMARK    5  A    between atoms: C9_10  and  N2_11 
REMARK    6  A    between atoms: N2_11  and  C10_12 
ROOT
HETATM    1  C7  UNL     1      22.559   2.805  50.574  1.00  0.00     0.140 A 
HETATM    2  C8  UNL     1      23.823   2.782  49.781  1.00  0.00     0.110 A 
HETATM    3  C9  UNL     1      24.841   3.762  50.251  1.00  0.00     0.108 A 
HETATM    4  N3  UNL     1      24.665   4.587  51.252  1.00  0.00    -0.229 NA
HETATM    5  C16 UNL     1      23.426   4.576  51.974  1.00  0.00     0.229 A 
HETATM    6  N4  UNL     1      22.500   3.760  51.640  1.00  0.00    -0.273 NA
ENDROOT
BRANCH   3   7
HETATM    7  N2  UNL     1      26.074   3.735  49.531  1.00  0.00    -0.344 N 
HETATM    8  H16 UNL     1      26.687   2.919  49.377  1.00  0.00     0.167 HD
BRANCH   7   9
HETATM    9  C10 UNL     1      26.565   4.956  48.932  1.00  0.00     0.034 A 
HETATM   10  C11 UNL     1      25.780   6.047  48.626  1.00  0.00     0.029 A 
HETATM   11  C12 UNL     1      26.357   7.155  48.072  1.00  0.00     0.004 A 
HETATM   12  C13 UNL     1      27.728   7.232  47.799  1.00  0.00     0.019 A 
HETATM   13  C14 UNL     1      28.490   6.101  48.126  1.00  0.00     0.013 A 
HETATM   14 BR1  UNL     1      30.364   6.311  47.712  1.00  0.00    -0.051 Br
HETATM   15  C15 UNL     1      27.945   4.957  48.689  1.00  0.00     0.048 A 
ENDBRANCH   7   9
ENDBRANCH   3   7
BRANCH   1  16
HETATM   16  C6  UNL     1      22.312   1.446  51.137  1.00  0.00     0.017 C 
HETATM   17  C5  UNL     1      22.822   0.828  52.184  1.00  0.00     0.081 C 
BRANCH  17  18
HETATM   18  N1  UNL     1      23.784   1.371  53.055  1.00  0.00    -0.395 N 
HETATM   19  H10 UNL     1      23.373   2.145  53.664  1.00  0.00     0.159 HD
BRANCH  18  20
HETATM   20  C3  UNL     1      25.172   1.061  53.241  1.00  0.00     0.076 C 
HETATM   21  C4  UNL     1      25.878   2.276  53.830  1.00  0.00     0.032 C 
BRANCH  20  22
HETATM   22  C2  UNL     1      25.894   0.536  52.047  1.00  0.00     0.020 C 
HETATM   23  C1  UNL     1      26.709  -0.709  52.300  1.00  0.00     0.007 C 
ENDBRANCH  20  22
ENDBRANCH  18  20
ENDBRANCH  17  18
ENDBRANCH   1  16
TORSDOF 6
ENDMDL
