MODEL 1
REMARK VINA RESULT:      -8.3      0.000      0.000
REMARK  0 active torsions:
REMARK  status: ('A' for Active; 'I' for Inactive)
ROOT
HETATM    1  C1  UNL     1      21.548  -0.714  54.672  1.00  0.00     0.093 C 
HETATM    2  C2  UNL     1      22.769  -0.376  53.898  1.00  0.00     0.120 C 
HETATM    3  N1  UNL     1      22.641   0.405  52.882  1.00  0.00    -0.256 NA
HETATM    4  C3  UNL     1      21.408   0.970  52.446  1.00  0.00     0.275 C 
HETATM    5  N2  UNL     1      21.687   1.911  51.380  1.00  0.00    -0.359 N 
HETATM    6  C4  UNL     1      22.057   1.354  50.125  1.00  0.00     0.112 C 
HETATM    7  C5  UNL     1      22.088   2.167  49.090  1.00  0.00     0.052 C 
HETATM    8 CL1  UNL     1      22.499   1.756  47.443  1.00  0.00    -0.083 Cl
HETATM    9  C6  UNL     1      21.819   3.576  49.251  1.00  0.00     0.065 C 
HETATM   10  C7  UNL     1      21.531   4.152  50.425  1.00  0.00     0.118 C 
HETATM   11  F1  UNL     1      21.245   5.449  50.777  1.00  0.00    -0.208 F 
HETATM   12  C8  UNL     1      21.553   3.301  51.666  1.00  0.00     0.151 C 
HETATM   13  C9  UNL     1      22.577   3.874  52.604  1.00  0.00     0.066 C 
HETATM   14  C10 UNL     1      23.969   3.538  52.326  1.00  0.00    -0.076 C 
HETATM   15  C11 UNL     1      24.412   4.100  51.186  1.00  0.00     0.003 C 
HETATM   16  C12 UNL     1      25.509   3.797  50.242  1.00  0.00    -0.004 C 
HETATM   17  C13 UNL     1      26.547   3.017  50.539  1.00  0.00    -0.025 C 
HETATM   18  C14 UNL     1      26.766   2.007  51.606  1.00  0.00     0.052 C 
HETATM   19  C15 UNL     1      25.393   1.606  52.107  1.00  0.00     0.089 C 
HETATM   20  C16 UNL     1      24.976   2.695  53.075  1.00  0.00     0.059 C 
HETATM   21  N3  UNL     1      25.413   0.294  52.666  1.00  0.00    -0.379 N 
HETATM   22  C17 UNL     1      25.127  -0.591  53.735  1.00  0.00     0.205 C 
HETATM   23  N4  UNL     1      24.024  -0.902  54.287  1.00  0.00    -0.230 NA
HETATM   24  H19 UNL     1      25.856  -0.331  51.928  1.00  0.00     0.160 HD
ENDROOT
TORSDOF 0
ENDMDL
MODEL 2
REMARK VINA RESULT:      -7.2      2.514      4.476
REMARK  0 active torsions:
REMARK  status: ('A' for Active; 'I' for Inactive)
ROOT
HETATM    1  C1  UNL     1      19.246   3.365  47.820  1.00  0.00     0.093 C 
HETATM    2  C2  UNL     1      20.150   2.661  48.764  1.00  0.00     0.120 C 
HETATM    3  N1  UNL     1      21.251   3.244  49.091  1.00  0.00    -0.256 NA
HETATM    4  C3  UNL     1      21.665   4.521  48.612  1.00  0.00     0.275 C 
HETATM    5  N2  UNL     1      22.868   4.908  49.321  1.00  0.00    -0.359 N 
HETATM    6  C4  UNL     1      24.060   4.215  48.970  1.00  0.00     0.112 C 
HETATM    7  C5  UNL     1      25.196   4.701  49.425  1.00  0.00     0.052 C 
HETATM    8 CL1  UNL     1      26.797   4.062  49.147  1.00  0.00    -0.083 Cl
HETATM    9  C6  UNL     1      25.209   5.852  50.295  1.00  0.00     0.065 C 
HETATM   10  C7  UNL     1      24.106   6.493  50.702  1.00  0.00     0.118 C 
HETATM   11  F1  UNL     1      23.914   7.589  51.510  1.00  0.00    -0.208 F 
HETATM   12  C8  UNL     1      22.765   5.950  50.288  1.00  0.00     0.151 C 
HETATM   13  C9  UNL     1      21.997   5.611  51.533  1.00  0.00     0.066 C 
HETATM   14  C10 UNL     1      22.332   4.345  52.175  1.00  0.00    -0.076 C 
HETATM   15  C11 UNL     1      23.569   4.353  52.705  1.00  0.00     0.003 C 
HETATM   16  C12 UNL     1      24.544   3.305  53.073  1.00  0.00    -0.004 C 
HETATM   17  C13 UNL     1      24.223   2.023  53.244  1.00  0.00    -0.025 C 
HETATM   18  C14 UNL     1      23.048   1.221  52.817  1.00  0.00     0.052 C 
HETATM   19  C15 UNL     1      22.393   1.985  51.686  1.00  0.00     0.089 C 
HETATM   20  C16 UNL     1      21.554   3.059  52.348  1.00  0.00     0.059 C 
HETATM   21  N3  UNL     1      21.663   1.109  50.828  1.00  0.00    -0.379 N 
HETATM   22  C17 UNL     1      20.463   0.765  50.157  1.00  0.00     0.205 C 
HETATM   23  N4  UNL     1      19.791   1.393  49.278  1.00  0.00    -0.230 NA
HETATM   24  H19 UNL     1      22.340   0.336  50.556  1.00  0.00     0.160 HD
ENDROOT
TORSDOF 0
ENDMDL
MODEL 3
REMARK VINA RESULT:      -7.1      2.252      4.432
REMARK  0 active torsions:
REMARK  status: ('A' for Active; 'I' for Inactive)
ROOT
HETATM    1  C1  UNL     1      26.264   0.835  51.877  1.00  0.00     0.093 C 
HETATM    2  C2  UNL     1      24.829   1.025  52.207  1.00  0.00     0.120 C 
HETATM    3  N1  UNL     1      24.188   1.954  51.586  1.00  0.00    -0.256 NA
HETATM    4  C3  UNL     1      24.757   2.814  50.604  1.00  0.00     0.275 C 
HETATM    5  N2  UNL     1      23.697   3.613  50.024  1.00  0.00    -0.359 N 
HETATM    6  C4  UNL     1      23.161   4.645  50.844  1.00  0.00     0.112 C 
HETATM    7  C5  UNL     1      22.369   5.524  50.266  1.00  0.00     0.052 C 
HETATM    8 CL1  UNL     1      21.584   6.887  51.024  1.00  0.00    -0.083 Cl
HETATM    9  C6  UNL     1      22.017   5.395  48.873  1.00  0.00     0.065 C 
HETATM   10  C7  UNL     1      22.447   4.403  48.082  1.00  0.00     0.118 C 
HETATM   11  F1  UNL     1      22.232   4.114  46.756  1.00  0.00    -0.208 F 
HETATM   12  C8  UNL     1      23.292   3.316  48.689  1.00  0.00     0.151 C 
HETATM   13  C9  UNL     1      22.575   2.010  48.502  1.00  0.00     0.066 C 
HETATM   14  C10 UNL     1      21.497   1.723  49.442  1.00  0.00    -0.076 C 
HETATM   15  C11 UNL     1      20.446   2.548  49.281  1.00  0.00     0.003 C 
HETATM   16  C12 UNL     1      19.332   2.985  50.149  1.00  0.00    -0.004 C 
HETATM   17  C13 UNL     1      18.962   2.345  51.257  1.00  0.00    -0.025 C 
HETATM   18  C14 UNL     1      19.653   1.349  52.115  1.00  0.00     0.052 C 
HETATM   19  C15 UNL     1      21.132   1.471  51.811  1.00  0.00     0.089 C 
HETATM   20  C16 UNL     1      21.355   0.687  50.534  1.00  0.00     0.059 C 
HETATM   21  N3  UNL     1      21.922   1.039  52.917  1.00  0.00    -0.379 N 
HETATM   22  C17 UNL     1      22.964   0.235  53.443  1.00  0.00     0.205 C 
HETATM   23  N4  UNL     1      24.205   0.198  53.170  1.00  0.00    -0.230 NA
HETATM   24  H19 UNL     1      21.559   1.573  53.762  1.00  0.00     0.160 HD
ENDROOT
TORSDOF 0
ENDMDL
MODEL 4
REMARK VINA RESULT:      -7.0      9.395     12.000
REMARK  0 active torsions:
REMARK  status: ('A' for Active; 'I' for Inactive)
ROOT
HETATM    1  C1  UNL     1      28.067   6.018  48.308  1.00  0.00     0.093 C 
HETATM    2  C2  UNL     1      29.120   7.064  48.366  1.00  0.00     0.120 C 
HETATM    3  N1  UNL     1      30.339   6.702  48.161  1.00  0.00    -0.256 NA
HETATM    4  C3  UNL     1      30.752   5.367  47.883  1.00  0.00     0.275 C 
HETATM    5  N2  UNL     1      32.163   5.382  47.557  1.00  0.00    -0.359 N 
HETATM    6  C4  UNL     1      33.060   5.601  48.640  1.00  0.00     0.112 C 
HETATM    7  C5  UNL     1      34.340   5.390  48.414  1.00  0.00     0.052 C 
HETATM    8 CL1  UNL     1      35.651   5.572  49.553  1.00  0.00    -0.083 Cl
HETATM    9  C6  UNL     1      34.805   5.015  47.100  1.00  0.00     0.065 C 
HETATM   10  C7  UNL     1      34.002   4.863  46.039  1.00  0.00     0.118 C 
HETATM   11  F1  UNL     1      34.247   4.513  44.733  1.00  0.00    -0.208 F 
HETATM   12  C8  UNL     1      32.537   5.163  46.199  1.00  0.00     0.151 C 
HETATM   13  C9  UNL     1      32.180   6.262  45.240  1.00  0.00     0.066 C 
HETATM   14  C10 UNL     1      32.522   7.618  45.655  1.00  0.00    -0.076 C 
HETATM   15  C11 UNL     1      33.851   7.819  45.696  1.00  0.00     0.003 C 
HETATM   16  C12 UNL     1      34.731   8.777  46.399  1.00  0.00    -0.004 C 
HETATM   17  C13 UNL     1      34.304   9.919  46.935  1.00  0.00    -0.025 C 
HETATM   18  C14 UNL     1      32.951  10.400  47.317  1.00  0.00     0.052 C 
HETATM   19  C15 UNL     1      32.077   9.169  47.445  1.00  0.00     0.089 C 
HETATM   20  C16 UNL     1      31.667   8.807  46.032  1.00  0.00     0.059 C 
HETATM   21  N3  UNL     1      30.987   9.403  48.336  1.00  0.00    -0.379 N 
HETATM   22  C17 UNL     1      29.597   9.376  48.610  1.00  0.00     0.205 C 
HETATM   23  N4  UNL     1      28.772   8.408  48.633  1.00  0.00    -0.230 NA
HETATM   24  H19 UNL     1      31.418   9.781  49.231  1.00  0.00     0.160 HD
ENDROOT
TORSDOF 0
ENDMDL
MODEL 5
REMARK VINA RESULT:      -6.8      7.990     10.199
REMARK  0 active torsions:
REMARK  status: ('A' for Active; 'I' for Inactive)
ROOT
HETATM    1  C1  UNL     1      27.661  13.918  48.410  1.00  0.00     0.093 C 
HETATM    2  C2  UNL     1      28.391  12.674  48.763  1.00  0.00     0.120 C 
HETATM    3  N1  UNL     1      27.745  11.561  48.707  1.00  0.00    -0.256 NA
HETATM    4  C3  UNL     1      26.377  11.436  48.330  1.00  0.00     0.275 C 
HETATM    5  N2  UNL     1      26.055  10.027  48.232  1.00  0.00    -0.359 N 
HETATM    6  C4  UNL     1      25.943   9.318  49.461  1.00  0.00     0.112 C 
HETATM    7  C5  UNL     1      25.428   8.106  49.413  1.00  0.00     0.052 C 
HETATM    8 CL1  UNL     1      25.170   7.021  50.757  1.00  0.00    -0.083 Cl
HETATM    9  C6  UNL     1      25.058   7.513  48.151  1.00  0.00     0.065 C 
HETATM   10  C7  UNL     1      25.207   8.120  46.967  1.00  0.00     0.118 C 
HETATM   11  F1  UNL     1      24.917   7.731  45.681  1.00  0.00    -0.208 F 
HETATM   12  C8  UNL     1      25.861   9.475  46.933  1.00  0.00     0.151 C 
HETATM   13  C9  UNL     1      27.091   9.376  46.077  1.00  0.00     0.066 C 
HETATM   14  C10 UNL     1      28.273   8.801  46.709  1.00  0.00    -0.076 C 
HETATM   15  C11 UNL     1      28.121   7.493  46.983  1.00  0.00     0.003 C 
HETATM   16  C12 UNL     1      28.757   6.553  47.931  1.00  0.00    -0.004 C 
HETATM   17  C13 UNL     1      29.921   6.785  48.534  1.00  0.00    -0.025 C 
HETATM   18  C14 UNL     1      30.701   8.030  48.758  1.00  0.00     0.052 C 
HETATM   19  C15 UNL     1      29.731   9.181  48.591  1.00  0.00     0.089 C 
HETATM   20  C16 UNL     1      29.607   9.400  47.096  1.00  0.00     0.059 C 
HETATM   21  N3  UNL     1      30.162  10.327  49.322  1.00  0.00    -0.379 N 
HETATM   22  C17 UNL     1      30.472  11.709  49.371  1.00  0.00     0.205 C 
HETATM   23  N4  UNL     1      29.752  12.733  49.141  1.00  0.00    -0.230 NA
HETATM   24  H19 UNL     1      30.341   9.990  50.315  1.00  0.00     0.160 HD
ENDROOT
TORSDOF 0
ENDMDL
MODEL 6
REMARK VINA RESULT:      -6.8      9.260     11.589
REMARK  0 active torsions:
REMARK  status: ('A' for Active; 'I' for Inactive)
ROOT
HETATM    1  C1  UNL     1      34.740   3.432  47.768  1.00  0.00     0.093 C 
HETATM    2  C2  UNL     1      34.020   4.190  46.713  1.00  0.00     0.120 C 
HETATM    3  N1  UNL     1      33.073   4.981  47.082  1.00  0.00    -0.256 NA
HETATM    4  C3  UNL     1      32.664   5.183  48.432  1.00  0.00     0.275 C 
HETATM    5  N2  UNL     1      31.689   6.254  48.461  1.00  0.00    -0.359 N 
HETATM    6  C4  UNL     1      30.397   5.946  47.951  1.00  0.00     0.112 C 
HETATM    7  C5  UNL     1      29.437   6.818  48.177  1.00  0.00     0.052 C 
HETATM    8 CL1  UNL     1      27.768   6.695  47.677  1.00  0.00    -0.083 Cl
HETATM    9  C6  UNL     1      29.714   8.059  48.859  1.00  0.00     0.065 C 
HETATM   10  C7  UNL     1      30.928   8.416  49.297  1.00  0.00     0.118 C 
HETATM   11  F1  UNL     1      31.385   9.531  49.959  1.00  0.00    -0.208 F 
HETATM   12  C8  UNL     1      32.091   7.508  49.007  1.00  0.00     0.151 C 
HETATM   13  C9  UNL     1      33.093   8.279  48.196  1.00  0.00     0.066 C 
HETATM   14  C10 UNL     1      32.811   8.405  46.770  1.00  0.00    -0.076 C 
HETATM   15  C11 UNL     1      31.732   9.172  46.529  1.00  0.00     0.003 C 
HETATM   16  C12 UNL     1      30.785   9.299  45.400  1.00  0.00    -0.004 C 
HETATM   17  C13 UNL     1      31.032   8.847  44.172  1.00  0.00    -0.025 C 
HETATM   18  C14 UNL     1      32.012   7.860  43.648  1.00  0.00     0.052 C 
HETATM   19  C15 UNL     1      32.452   7.021  44.830  1.00  0.00     0.089 C 
HETATM   20  C16 UNL     1      33.503   7.844  45.548  1.00  0.00     0.059 C 
HETATM   21  N3  UNL     1      32.896   5.733  44.408  1.00  0.00    -0.379 N 
HETATM   22  C17 UNL     1      33.880   4.713  44.403  1.00  0.00     0.205 C 
HETATM   23  N4  UNL     1      34.383   4.036  45.355  1.00  0.00    -0.230 NA
HETATM   24  H19 UNL     1      32.116   5.338  43.804  1.00  0.00     0.160 HD
ENDROOT
TORSDOF 0
ENDMDL
MODEL 7
REMARK VINA RESULT:      -6.7      9.976     12.724
REMARK  0 active torsions:
REMARK  status: ('A' for Active; 'I' for Inactive)
ROOT
HETATM    1  C1  UNL     1      34.475   7.927  42.667  1.00  0.00     0.093 C 
HETATM    2  C2  UNL     1      33.252   7.795  43.498  1.00  0.00     0.120 C 
HETATM    3  N1  UNL     1      33.203   6.828  44.347  1.00  0.00    -0.256 NA
HETATM    4  C3  UNL     1      34.240   5.872  44.547  1.00  0.00     0.275 C 
HETATM    5  N2  UNL     1      33.889   5.046  45.684  1.00  0.00    -0.359 N 
HETATM    6  C4  UNL     1      32.844   4.102  45.482  1.00  0.00     0.112 C 
HETATM    7  C5  UNL     1      32.666   3.191  46.415  1.00  0.00     0.052 C 
HETATM    8 CL1  UNL     1      31.471   1.917  46.424  1.00  0.00    -0.083 Cl
HETATM    9  C6  UNL     1      33.463   3.201  47.618  1.00  0.00     0.065 C 
HETATM   10  C7  UNL     1      34.412   4.111  47.877  1.00  0.00     0.118 C 
HETATM   11  F1  UNL     1      35.265   4.285  48.940  1.00  0.00    -0.208 F 
HETATM   12  C8  UNL     1      34.621   5.230  46.894  1.00  0.00     0.151 C 
HETATM   13  C9  UNL     1      34.379   6.528  47.609  1.00  0.00     0.066 C 
HETATM   14  C10 UNL     1      32.985   6.919  47.787  1.00  0.00    -0.076 C 
HETATM   15  C11 UNL     1      32.331   6.105  48.634  1.00  0.00     0.003 C 
HETATM   16  C12 UNL     1      30.908   5.769  48.855  1.00  0.00    -0.004 C 
HETATM   17  C13 UNL     1      29.895   6.513  48.413  1.00  0.00    -0.025 C 
HETATM   18  C14 UNL     1      29.809   7.568  47.371  1.00  0.00     0.052 C 
HETATM   19  C15 UNL     1      31.018   7.389  46.476  1.00  0.00     0.089 C 
HETATM   20  C16 UNL     1      32.169   8.052  47.205  1.00  0.00     0.059 C 
HETATM   21  N3  UNL     1      30.771   7.903  45.169  1.00  0.00    -0.379 N 
HETATM   22  C17 UNL     1      31.150   8.730  44.082  1.00  0.00     0.205 C 
HETATM   23  N4  UNL     1      32.190   8.717  43.349  1.00  0.00    -0.230 NA
HETATM   24  H19 UNL     1      29.864   7.454  44.845  1.00  0.00     0.160 HD
ENDROOT
TORSDOF 0
ENDMDL
MODEL 8
REMARK VINA RESULT:      -6.7      3.609      5.980
REMARK  0 active torsions:
REMARK  status: ('A' for Active; 'I' for Inactive)
ROOT
HETATM    1  C1  UNL     1      19.707   8.083  49.958  1.00  0.00     0.093 C 
HETATM    2  C2  UNL     1      21.177   7.885  49.880  1.00  0.00     0.120 C 
HETATM    3  N1  UNL     1      21.656   6.766  50.302  1.00  0.00    -0.256 NA
HETATM    4  C3  UNL     1      20.877   5.702  50.839  1.00  0.00     0.275 C 
HETATM    5  N2  UNL     1      21.744   4.561  51.052  1.00  0.00    -0.359 N 
HETATM    6  C4  UNL     1      22.654   4.653  52.142  1.00  0.00     0.112 C 
HETATM    7  C5  UNL     1      23.283   3.552  52.497  1.00  0.00     0.052 C 
HETATM    8 CL1  UNL     1      24.441   3.376  53.792  1.00  0.00    -0.083 Cl
HETATM    9  C6  UNL     1      23.094   2.326  51.761  1.00  0.00     0.065 C 
HETATM   10  C7  UNL     1      22.297   2.212  50.691  1.00  0.00     0.118 C 
HETATM   11  F1  UNL     1      21.987   1.152  49.873  1.00  0.00    -0.208 F 
HETATM   12  C8  UNL     1      21.605   3.445  50.176  1.00  0.00     0.151 C 
HETATM   13  C9  UNL     1      22.050   3.671  48.760  1.00  0.00     0.066 C 
HETATM   14  C10 UNL     1      23.352   4.305  48.584  1.00  0.00    -0.076 C 
HETATM   15  C11 UNL     1      24.364   3.512  48.982  1.00  0.00     0.003 C 
HETATM   16  C12 UNL     1      25.758   3.752  49.412  1.00  0.00    -0.004 C 
HETATM   17  C13 UNL     1      26.424   4.879  49.169  1.00  0.00    -0.025 C 
HETATM   18  C14 UNL     1      25.975   6.244  48.791  1.00  0.00     0.052 C 
HETATM   19  C15 UNL     1      24.511   6.336  49.168  1.00  0.00     0.089 C 
HETATM   20  C16 UNL     1      23.754   5.658  48.043  1.00  0.00     0.059 C 
HETATM   21  N3  UNL     1      24.126   7.688  49.409  1.00  0.00    -0.379 N 
HETATM   22  C17 UNL     1      23.256   8.780  49.166  1.00  0.00     0.205 C 
HETATM   23  N4  UNL     1      22.003   8.904  49.351  1.00  0.00    -0.230 NA
HETATM   24  H19 UNL     1      24.827   8.070  50.111  1.00  0.00     0.160 HD
ENDROOT
TORSDOF 0
ENDMDL
MODEL 9
REMARK VINA RESULT:      -6.7      2.278      3.285
REMARK  0 active torsions:
REMARK  status: ('A' for Active; 'I' for Inactive)
ROOT
HETATM    1  C1  UNL     1      23.557   0.773  52.463  1.00  0.00     0.093 C 
HETATM    2  C2  UNL     1      24.331   1.676  51.574  1.00  0.00     0.120 C 
HETATM    3  N1  UNL     1      23.684   2.336  50.677  1.00  0.00    -0.256 NA
HETATM    4  C3  UNL     1      22.276   2.263  50.475  1.00  0.00     0.275 C 
HETATM    5  N2  UNL     1      21.901   3.259  49.493  1.00  0.00    -0.359 N 
HETATM    6  C4  UNL     1      22.267   2.987  48.145  1.00  0.00     0.112 C 
HETATM    7  C5  UNL     1      21.741   3.753  47.211  1.00  0.00     0.052 C 
HETATM    8 CL1  UNL     1      22.008   3.641  45.489  1.00  0.00    -0.083 Cl
HETATM    9  C6  UNL     1      20.883   4.858  47.562  1.00  0.00     0.065 C 
HETATM   10  C7  UNL     1      20.566   5.189  48.820  1.00  0.00     0.118 C 
HETATM   11  F1  UNL     1      19.777   6.182  49.349  1.00  0.00    -0.208 F 
HETATM   12  C8  UNL     1      21.191   4.409  49.946  1.00  0.00     0.151 C 
HETATM   13  C9  UNL     1      21.976   5.367  50.795  1.00  0.00     0.066 C 
HETATM   14  C10 UNL     1      23.295   5.741  50.296  1.00  0.00    -0.076 C 
HETATM   15  C11 UNL     1      23.226   6.484  49.177  1.00  0.00     0.003 C 
HETATM   16  C12 UNL     1      24.159   6.771  48.067  1.00  0.00    -0.004 C 
HETATM   17  C13 UNL     1      25.474   6.567  48.133  1.00  0.00    -0.025 C 
HETATM   18  C14 UNL     1      26.314   5.746  49.043  1.00  0.00     0.052 C 
HETATM   19  C15 UNL     1      25.391   4.725  49.677  1.00  0.00     0.089 C 
HETATM   20  C16 UNL     1      24.689   5.452  50.806  1.00  0.00     0.059 C 
HETATM   21  N3  UNL     1      26.111   3.561  50.079  1.00  0.00    -0.379 N 
HETATM   22  C17 UNL     1      26.454   2.611  51.073  1.00  0.00     0.205 C 
HETATM   23  N4  UNL     1      25.732   1.795  51.730  1.00  0.00    -0.230 NA
HETATM   24  H19 UNL     1      26.659   3.247  49.224  1.00  0.00     0.160 HD
ENDROOT
TORSDOF 0
ENDMDL
