MODEL 1
REMARK VINA RESULT:      -9.1      0.000      0.000
REMARK  7 active torsions:
REMARK  status: ('A' for Active; 'I' for Inactive)
REMARK    1  A    between atoms: C1_2  and  C2_3 
REMARK    2  A    between atoms: C2_3  and  C3_4 
REMARK    3  A    between atoms: C7_8  and  C8_9 
REMARK    4  A    between atoms: C9_10  and  C10_11 
REMARK    5  A    between atoms: C10_11  and  C11_12 
REMARK    6  A    between atoms: C11_12  and  C12_13 
REMARK    7  A    between atoms: C12_13  and  O3_15 
ROOT
HETATM    1  C3  UNL     1      28.580   0.710  54.419  1.00  0.00     0.039 A 
HETATM    2  C4  UNL     1      27.274   0.121  54.747  1.00  0.00    -0.017 A 
HETATM    3  C5  UNL     1      26.199   0.455  54.075  1.00  0.00     0.011 A 
HETATM    4  C6  UNL     1      26.128   1.398  52.971  1.00  0.00     0.007 A 
HETATM    5  C7  UNL     1      25.100   1.783  52.252  1.00  0.00     0.056 A 
HETATM    6  C19 UNL     1      25.709   2.728  51.326  1.00  0.00     0.258 A 
HETATM    7  O4  UNL     1      25.282   3.441  50.389  1.00  0.00    -0.267 OA
HETATM    8  N1  UNL     1      27.107   2.875  51.531  1.00  0.00    -0.322 N 
HETATM    9  C20 UNL     1      27.394   2.012  52.601  1.00  0.00     0.043 A 
HETATM   10  C21 UNL     1      28.447   1.651  53.300  1.00  0.00     0.012 A 
HETATM   11  H20 UNL     1      27.872   3.431  51.094  1.00  0.00     0.169 HD
ENDROOT
BRANCH   5  12
HETATM   12  C8  UNL     1      23.694   1.433  52.280  1.00  0.00    -0.006 A 
HETATM   13  C9  UNL     1      22.568   1.979  51.866  1.00  0.00    -0.039 A 
HETATM   14  C13 UNL     1      21.783   0.822  52.392  1.00  0.00    -0.044 A 
HETATM   15  C14 UNL     1      22.958   0.289  52.806  1.00  0.00    -0.039 A 
HETATM   16  C18 UNL     1      20.462   0.113  52.620  1.00  0.00     0.040 C 
HETATM   17  C15 UNL     1      22.601  -0.982  53.440  1.00  0.00     0.040 C 
HETATM   18  C16 UNL     1      21.655  -0.749  54.621  1.00  0.00     0.005 C 
HETATM   19  C17 UNL     1      20.332  -0.208  54.099  1.00  0.00     0.005 C 
BRANCH  13  20
HETATM   20  C10 UNL     1      21.969   3.135  51.190  1.00  0.00     0.050 C 
BRANCH  20  21
HETATM   21  C11 UNL     1      21.750   4.235  52.252  1.00  0.00     0.114 C 
BRANCH  21  22
HETATM   22  C12 UNL     1      22.943   5.118  52.304  1.00  0.00     0.139 C 
HETATM   23  O2  UNL     1      23.207   5.883  51.316  1.00  0.00    -0.650 OA
BRANCH  22  24
HETATM   24  O3  UNL     1      23.817   5.176  53.371  1.00  0.00    -0.776 OA
HETATM   25  H11 UNL     1      24.809   4.947  53.195  1.00  0.00     0.167 HD
ENDBRANCH  22  24
ENDBRANCH  21  22
ENDBRANCH  20  21
ENDBRANCH  13  20
ENDBRANCH   5  12
BRANCH   1  26
HETATM   26  C2  UNL     1      29.612  -0.371  54.100  1.00  0.00     0.082 C 
BRANCH  26  27
HETATM   27  C1  UNL     1      29.006  -1.442  53.267  1.00  0.00     0.232 C 
HETATM   28  O1  UNL     1      29.013  -2.648  53.430  1.00  0.00    -0.307 OA
ENDBRANCH  26  27
ENDBRANCH   1  26
TORSDOF 7
ENDMDL
MODEL 2
REMARK VINA RESULT:      -8.7      1.410      1.574
REMARK  7 active torsions:
REMARK  status: ('A' for Active; 'I' for Inactive)
REMARK    1  A    between atoms: C1_2  and  C2_3 
REMARK    2  A    between atoms: C2_3  and  C3_4 
REMARK    3  A    between atoms: C7_8  and  C8_9 
REMARK    4  A    between atoms: C9_10  and  C10_11 
REMARK    5  A    between atoms: C10_11  and  C11_12 
REMARK    6  A    between atoms: C11_12  and  C12_13 
REMARK    7  A    between atoms: C12_13  and  O3_15 
ROOT
HETATM    1  C3  UNL     1      28.604   0.671  54.422  1.00  0.00     0.039 A 
HETATM    2  C4  UNL     1      27.298   0.086  54.760  1.00  0.00    -0.017 A 
HETATM    3  C5  UNL     1      26.218   0.430  54.100  1.00  0.00     0.011 A 
HETATM    4  C6  UNL     1      26.141   1.379  53.002  1.00  0.00     0.007 A 
HETATM    5  C7  UNL     1      25.108   1.773  52.296  1.00  0.00     0.056 A 
HETATM    6  C19 UNL     1      25.711   2.720  51.370  1.00  0.00     0.258 A 
HETATM    7  O4  UNL     1      25.279   3.441  50.441  1.00  0.00    -0.267 OA
HETATM    8  N1  UNL     1      27.112   2.860  51.561  1.00  0.00    -0.322 N 
HETATM    9  C20 UNL     1      27.406   1.989  52.623  1.00  0.00     0.043 A 
HETATM   10  C21 UNL     1      28.464   1.619  53.310  1.00  0.00     0.012 A 
HETATM   11  H20 UNL     1      27.875   3.415  51.120  1.00  0.00     0.169 HD
ENDROOT
BRANCH   5  12
HETATM   12  C8  UNL     1      23.700   1.429  52.337  1.00  0.00    -0.006 A 
HETATM   13  C9  UNL     1      22.573   1.983  51.937  1.00  0.00    -0.039 A 
HETATM   14  C13 UNL     1      21.788   0.827  52.465  1.00  0.00    -0.044 A 
HETATM   15  C14 UNL     1      22.964   0.286  52.864  1.00  0.00    -0.039 A 
HETATM   16  C18 UNL     1      20.465   0.123  52.702  1.00  0.00     0.040 C 
HETATM   17  C15 UNL     1      22.607  -0.987  53.495  1.00  0.00     0.040 C 
HETATM   18  C16 UNL     1      21.674  -0.755  54.686  1.00  0.00     0.005 C 
HETATM   19  C17 UNL     1      20.349  -0.205  54.181  1.00  0.00     0.005 C 
BRANCH  13  20
HETATM   20  C10 UNL     1      21.972   3.145  51.272  1.00  0.00     0.050 C 
BRANCH  20  21
HETATM   21  C11 UNL     1      20.909   3.731  52.228  1.00  0.00     0.114 C 
BRANCH  21  22
HETATM   22  C12 UNL     1      19.622   3.880  51.505  1.00  0.00     0.139 C 
HETATM   23  O2  UNL     1      19.607   4.405  50.341  1.00  0.00    -0.650 OA
BRANCH  22  24
HETATM   24  O3  UNL     1      18.399   3.484  52.011  1.00  0.00    -0.776 OA
HETATM   25  H11 UNL     1      17.820   2.853  51.435  1.00  0.00     0.167 HD
ENDBRANCH  22  24
ENDBRANCH  21  22
ENDBRANCH  20  21
ENDBRANCH  13  20
ENDBRANCH   5  12
BRANCH   1  26
HETATM   26  C2  UNL     1      29.628  -0.413  54.087  1.00  0.00     0.082 C 
BRANCH  26  27
HETATM   27  C1  UNL     1      29.014  -1.465  53.235  1.00  0.00     0.232 C 
HETATM   28  O1  UNL     1      29.017  -2.673  53.374  1.00  0.00    -0.307 OA
ENDBRANCH  26  27
ENDBRANCH   1  26
TORSDOF 7
ENDMDL
MODEL 3
REMARK VINA RESULT:      -8.7      1.763      6.089
REMARK  7 active torsions:
REMARK  status: ('A' for Active; 'I' for Inactive)
REMARK    1  A    between atoms: C1_2  and  C2_3 
REMARK    2  A    between atoms: C2_3  and  C3_4 
REMARK    3  A    between atoms: C7_8  and  C8_9 
REMARK    4  A    between atoms: C9_10  and  C10_11 
REMARK    5  A    between atoms: C10_11  and  C11_12 
REMARK    6  A    between atoms: C11_12  and  C12_13 
REMARK    7  A    between atoms: C12_13  and  O3_15 
ROOT
HETATM    1  C3  UNL     1      23.710   4.401  48.756  1.00  0.00     0.039 A 
HETATM    2  C4  UNL     1      22.811   3.491  49.481  1.00  0.00    -0.017 A 
HETATM    3  C5  UNL     1      23.266   2.729  50.447  1.00  0.00     0.011 A 
HETATM    4  C6  UNL     1      24.636   2.664  50.926  1.00  0.00     0.007 A 
HETATM    5  C7  UNL     1      25.166   1.935  51.879  1.00  0.00     0.056 A 
HETATM    6  C19 UNL     1      26.561   2.349  51.844  1.00  0.00     0.258 A 
HETATM    7  O4  UNL     1      27.588   2.038  52.491  1.00  0.00    -0.267 OA
HETATM    8  N1  UNL     1      26.819   3.330  50.850  1.00  0.00    -0.322 N 
HETATM    9  C20 UNL     1      25.571   3.546  50.244  1.00  0.00     0.043 A 
HETATM   10  C21 UNL     1      25.076   4.292  49.281  1.00  0.00     0.012 A 
HETATM   11  H20 UNL     1      27.653   3.861  50.521  1.00  0.00     0.169 HD
ENDROOT
BRANCH   5  12
HETATM   12  C8  UNL     1      24.611   0.950  52.787  1.00  0.00    -0.006 A 
HETATM   13  C9  UNL     1      25.079  -0.049  53.509  1.00  0.00    -0.039 A 
HETATM   14  C13 UNL     1      23.708  -0.354  54.019  1.00  0.00    -0.044 A 
HETATM   15  C14 UNL     1      23.261   0.678  53.264  1.00  0.00    -0.039 A 
HETATM   16  C18 UNL     1      22.769  -1.184  54.874  1.00  0.00     0.040 C 
HETATM   17  C15 UNL     1      21.816   0.727  53.499  1.00  0.00     0.040 C 
HETATM   18  C16 UNL     1      21.156  -0.589  53.081  1.00  0.00     0.005 C 
HETATM   19  C17 UNL     1      21.644  -1.703  53.994  1.00  0.00     0.005 C 
BRANCH  13  20
HETATM   20  C10 UNL     1      26.280  -0.801  53.888  1.00  0.00     0.050 C 
BRANCH  20  21
HETATM   21  C11 UNL     1      26.897  -1.377  52.595  1.00  0.00     0.114 C 
BRANCH  21  22
HETATM   22  C12 UNL     1      28.200  -2.015  52.908  1.00  0.00     0.139 C 
HETATM   23  O2  UNL     1      29.201  -1.287  53.222  1.00  0.00    -0.650 OA
BRANCH  22  24
HETATM   24  O3  UNL     1      28.421  -3.378  52.884  1.00  0.00    -0.776 OA
HETATM   25  H11 UNL     1      27.878  -3.943  52.211  1.00  0.00     0.167 HD
ENDBRANCH  22  24
ENDBRANCH  21  22
ENDBRANCH  20  21
ENDBRANCH  13  20
ENDBRANCH   5  12
BRANCH   1  26
HETATM   26  C2  UNL     1      23.213   5.844  48.827  1.00  0.00     0.082 C 
BRANCH  26  27
HETATM   27  C1  UNL     1      22.820   6.193  50.217  1.00  0.00     0.232 C 
HETATM   28  O1  UNL     1      23.518   6.504  51.164  1.00  0.00    -0.307 OA
ENDBRANCH  26  27
ENDBRANCH   1  26
TORSDOF 7
ENDMDL
MODEL 4
REMARK VINA RESULT:      -8.7      2.750      4.328
REMARK  7 active torsions:
REMARK  status: ('A' for Active; 'I' for Inactive)
REMARK    1  A    between atoms: C1_2  and  C2_3 
REMARK    2  A    between atoms: C2_3  and  C3_4 
REMARK    3  A    between atoms: C7_8  and  C8_9 
REMARK    4  A    between atoms: C9_10  and  C10_11 
REMARK    5  A    between atoms: C10_11  and  C11_12 
REMARK    6  A    between atoms: C11_12  and  C12_13 
REMARK    7  A    between atoms: C12_13  and  O3_15 
ROOT
HETATM    1  C3  UNL     1      27.213  -0.381  53.714  1.00  0.00     0.039 A 
HETATM    2  C4  UNL     1      27.315   0.384  52.463  1.00  0.00    -0.017 A 
HETATM    3  C5  UNL     1      26.243   0.872  51.886  1.00  0.00     0.011 A 
HETATM    4  C6  UNL     1      24.874   0.745  52.356  1.00  0.00     0.007 A 
HETATM    5  C7  UNL     1      23.757   1.201  51.841  1.00  0.00     0.056 A 
HETATM    6  C19 UNL     1      22.763   0.729  52.794  1.00  0.00     0.258 A 
HETATM    7  O4  UNL     1      21.517   0.823  52.887  1.00  0.00    -0.267 OA
HETATM    8  N1  UNL     1      23.336  -0.007  53.866  1.00  0.00    -0.322 N 
HETATM    9  C20 UNL     1      24.713  -0.003  53.593  1.00  0.00     0.043 A 
HETATM   10  C21 UNL     1      25.811  -0.477  54.138  1.00  0.00     0.012 A 
HETATM   11  H20 UNL     1      22.977  -0.492  54.716  1.00  0.00     0.169 HD
ENDROOT
BRANCH   5  12
HETATM   12  C8  UNL     1      23.467   1.975  50.650  1.00  0.00    -0.006 A 
HETATM   13  C9  UNL     1      23.949   3.062  50.080  1.00  0.00    -0.039 A 
HETATM   14  C13 UNL     1      22.956   2.951  48.970  1.00  0.00    -0.044 A 
HETATM   15  C14 UNL     1      22.484   1.839  49.582  1.00  0.00    -0.039 A 
HETATM   16  C18 UNL     1      22.355   3.464  47.675  1.00  0.00     0.040 C 
HETATM   17  C15 UNL     1      21.387   1.369  48.732  1.00  0.00     0.040 C 
HETATM   18  C16 UNL     1      20.298   2.438  48.615  1.00  0.00     0.005 C 
HETATM   19  C17 UNL     1      20.859   3.639  47.870  1.00  0.00     0.005 C 
BRANCH  13  20
HETATM   20  C10 UNL     1      24.952   4.129  50.178  1.00  0.00     0.050 C 
BRANCH  20  21
HETATM   21  C11 UNL     1      26.215   3.651  49.430  1.00  0.00     0.114 C 
BRANCH  21  22
HETATM   22  C12 UNL     1      27.093   4.815  49.146  1.00  0.00     0.139 C 
HETATM   23  O2  UNL     1      28.191   4.641  48.519  1.00  0.00    -0.650 OA
BRANCH  22  24
HETATM   24  O3  UNL     1      26.804   6.112  49.521  1.00  0.00    -0.776 OA
HETATM   25  H11 UNL     1      27.519   6.630  50.057  1.00  0.00     0.167 HD
ENDBRANCH  22  24
ENDBRANCH  21  22
ENDBRANCH  20  21
ENDBRANCH  13  20
ENDBRANCH   5  12
BRANCH   1  26
HETATM   26  C2  UNL     1      28.074   0.236  54.814  1.00  0.00     0.082 C 
BRANCH  26  27
HETATM   27  C1  UNL     1      28.992   1.258  54.247  1.00  0.00     0.232 C 
HETATM   28  O1  UNL     1      29.090   2.442  54.508  1.00  0.00    -0.307 OA
ENDBRANCH  26  27
ENDBRANCH   1  26
TORSDOF 7
ENDMDL
MODEL 5
REMARK VINA RESULT:      -8.2      2.701      5.272
REMARK  7 active torsions:
REMARK  status: ('A' for Active; 'I' for Inactive)
REMARK    1  A    between atoms: C1_2  and  C2_3 
REMARK    2  A    between atoms: C2_3  and  C3_4 
REMARK    3  A    between atoms: C7_8  and  C8_9 
REMARK    4  A    between atoms: C9_10  and  C10_11 
REMARK    5  A    between atoms: C10_11  and  C11_12 
REMARK    6  A    between atoms: C11_12  and  C12_13 
REMARK    7  A    between atoms: C12_13  and  O3_15 
ROOT
HETATM    1  C3  UNL     1      24.417   5.639  49.470  1.00  0.00     0.039 A 
HETATM    2  C4  UNL     1      24.758   5.123  50.804  1.00  0.00    -0.017 A 
HETATM    3  C5  UNL     1      24.292   3.970  51.217  1.00  0.00     0.011 A 
HETATM    4  C6  UNL     1      23.422   3.073  50.475  1.00  0.00     0.007 A 
HETATM    5  C7  UNL     1      22.916   1.911  50.814  1.00  0.00     0.056 A 
HETATM    6  C19 UNL     1      22.146   1.553  49.632  1.00  0.00     0.258 A 
HETATM    7  O4  UNL     1      21.431   0.576  49.309  1.00  0.00    -0.267 OA
HETATM    8  N1  UNL     1      22.221   2.535  48.608  1.00  0.00    -0.322 N 
HETATM    9  C20 UNL     1      23.051   3.532  49.145  1.00  0.00     0.043 A 
HETATM   10  C21 UNL     1      23.539   4.694  48.770  1.00  0.00     0.012 A 
HETATM   11  H20 UNL     1      21.829   2.648  47.650  1.00  0.00     0.169 HD
ENDROOT
BRANCH   5  12
HETATM   12  C8  UNL     1      23.024   1.105  52.014  1.00  0.00    -0.006 A 
HETATM   13  C9  UNL     1      23.998   0.531  52.692  1.00  0.00    -0.039 A 
HETATM   14  C13 UNL     1      23.024  -0.004  53.690  1.00  0.00    -0.044 A 
HETATM   15  C14 UNL     1      22.047   0.597  52.970  1.00  0.00    -0.039 A 
HETATM   16  C18 UNL     1      22.717  -0.795  54.947  1.00  0.00     0.040 C 
HETATM   17  C15 UNL     1      20.802   0.287  53.678  1.00  0.00     0.040 C 
HETATM   18  C16 UNL     1      20.584  -1.226  53.750  1.00  0.00     0.005 C 
HETATM   19  C17 UNL     1      21.671  -1.845  54.616  1.00  0.00     0.005 C 
BRANCH  13  20
HETATM   20  C10 UNL     1      25.446   0.300  52.755  1.00  0.00     0.050 C 
BRANCH  20  21
HETATM   21  C11 UNL     1      26.018   1.230  53.848  1.00  0.00     0.114 C 
BRANCH  21  22
HETATM   22  C12 UNL     1      27.142   2.021  53.288  1.00  0.00     0.139 C 
HETATM   23  O2  UNL     1      27.369   1.995  52.031  1.00  0.00    -0.650 OA
BRANCH  22  24
HETATM   24  O3  UNL     1      27.990   2.806  54.044  1.00  0.00    -0.776 OA
HETATM   25  H11 UNL     1      27.612   3.683  54.438  1.00  0.00     0.167 HD
ENDBRANCH  22  24
ENDBRANCH  21  22
ENDBRANCH  20  21
ENDBRANCH  13  20
ENDBRANCH   5  12
BRANCH   1  26
HETATM   26  C2  UNL     1      25.673   5.926  48.648  1.00  0.00     0.082 C 
BRANCH  26  27
HETATM   27  C1  UNL     1      26.748   4.956  48.982  1.00  0.00     0.232 C 
HETATM   28  O1  UNL     1      27.912   4.937  48.629  1.00  0.00    -0.307 OA
ENDBRANCH  26  27
ENDBRANCH   1  26
TORSDOF 7
ENDMDL
MODEL 6
REMARK VINA RESULT:      -8.1      2.879      6.376
REMARK  7 active torsions:
REMARK  status: ('A' for Active; 'I' for Inactive)
REMARK    1  A    between atoms: C1_2  and  C2_3 
REMARK    2  A    between atoms: C2_3  and  C3_4 
REMARK    3  A    between atoms: C7_8  and  C8_9 
REMARK    4  A    between atoms: C9_10  and  C10_11 
REMARK    5  A    between atoms: C10_11  and  C11_12 
REMARK    6  A    between atoms: C11_12  and  C12_13 
REMARK    7  A    between atoms: C12_13  and  O3_15 
ROOT
HETATM    1  C3  UNL     1      22.350   2.986  47.407  1.00  0.00     0.039 A 
HETATM    2  C4  UNL     1      22.109   1.691  48.060  1.00  0.00    -0.017 A 
HETATM    3  C5  UNL     1      22.324   1.536  49.344  1.00  0.00     0.011 A 
HETATM    4  C6  UNL     1      22.804   2.550  50.269  1.00  0.00     0.007 A 
HETATM    5  C7  UNL     1      23.043   2.475  51.556  1.00  0.00     0.056 A 
HETATM    6  C19 UNL     1      23.494   3.825  51.865  1.00  0.00     0.258 A 
HETATM    7  O4  UNL     1      23.873   4.411  52.906  1.00  0.00    -0.267 OA
HETATM    8  N1  UNL     1      23.508   4.673  50.726  1.00  0.00    -0.322 N 
HETATM    9  C20 UNL     1      23.059   3.854  49.677  1.00  0.00     0.043 A 
HETATM   10  C21 UNL     1      22.832   3.967  48.387  1.00  0.00     0.012 A 
HETATM   11  H20 UNL     1      23.756   5.667  50.537  1.00  0.00     0.169 HD
ENDROOT
BRANCH   5  12
HETATM   12  C8  UNL     1      22.927   1.396  52.517  1.00  0.00    -0.006 A 
HETATM   13  C9  UNL     1      23.737   0.497  53.042  1.00  0.00    -0.039 A 
HETATM   14  C13 UNL     1      22.622  -0.066  53.861  1.00  0.00    -0.044 A 
HETATM   15  C14 UNL     1      21.817   0.869  53.301  1.00  0.00    -0.039 A 
HETATM   16  C18 UNL     1      22.099  -1.065  54.875  1.00  0.00     0.040 C 
HETATM   17  C15 UNL     1      20.496   0.642  53.892  1.00  0.00     0.040 C 
HETATM   18  C16 UNL     1      20.000  -0.772  53.579  1.00  0.00     0.005 C 
HETATM   19  C17 UNL     1      20.899  -1.781  54.277  1.00  0.00     0.005 C 
BRANCH  13  20
HETATM   20  C10 UNL     1      25.111  -0.017  53.066  1.00  0.00     0.050 C 
BRANCH  20  21
HETATM   21  C11 UNL     1      26.048   1.172  53.374  1.00  0.00     0.114 C 
BRANCH  21  22
HETATM   22  C12 UNL     1      27.191   0.702  54.195  1.00  0.00     0.139 C 
HETATM   23  O2  UNL     1      28.074   1.537  54.588  1.00  0.00    -0.650 OA
BRANCH  22  24
HETATM   24  O3  UNL     1      27.381  -0.611  54.579  1.00  0.00    -0.776 OA
HETATM   25  H11 UNL     1      27.357  -0.826  55.589  1.00  0.00     0.167 HD
ENDBRANCH  22  24
ENDBRANCH  21  22
ENDBRANCH  20  21
ENDBRANCH  13  20
ENDBRANCH   5  12
BRANCH   1  26
HETATM   26  C2  UNL     1      21.094   3.494  46.701  1.00  0.00     0.082 C 
BRANCH  26  27
HETATM   27  C1  UNL     1      21.433   4.035  45.359  1.00  0.00     0.232 C 
HETATM   28  O1  UNL     1      21.306   3.524  44.263  1.00  0.00    -0.307 OA
ENDBRANCH  26  27
ENDBRANCH   1  26
TORSDOF 7
ENDMDL
MODEL 7
REMARK VINA RESULT:      -7.7      2.552      6.457
REMARK  7 active torsions:
REMARK  status: ('A' for Active; 'I' for Inactive)
REMARK    1  A    between atoms: C1_2  and  C2_3 
REMARK    2  A    between atoms: C2_3  and  C3_4 
REMARK    3  A    between atoms: C7_8  and  C8_9 
REMARK    4  A    between atoms: C9_10  and  C10_11 
REMARK    5  A    between atoms: C10_11  and  C11_12 
REMARK    6  A    between atoms: C11_12  and  C12_13 
REMARK    7  A    between atoms: C12_13  and  O3_15 
ROOT
HETATM    1  C3  UNL     1      22.309   4.853  48.440  1.00  0.00     0.039 A 
HETATM    2  C4  UNL     1      21.694   3.844  49.315  1.00  0.00    -0.017 A 
HETATM    3  C5  UNL     1      22.430   3.121  50.125  1.00  0.00     0.011 A 
HETATM    4  C6  UNL     1      23.873   3.195  50.280  1.00  0.00     0.007 A 
HETATM    5  C7  UNL     1      24.676   2.513  51.062  1.00  0.00     0.056 A 
HETATM    6  C19 UNL     1      25.978   3.071  50.729  1.00  0.00     0.258 A 
HETATM    7  O4  UNL     1      27.152   2.861  51.116  1.00  0.00    -0.267 OA
HETATM    8  N1  UNL     1      25.904   4.087  49.739  1.00  0.00    -0.322 N 
HETATM    9  C20 UNL     1      24.536   4.179  49.438  1.00  0.00     0.043 A 
HETATM   10  C21 UNL     1      23.763   4.881  48.639  1.00  0.00     0.012 A 
HETATM   11  H20 UNL     1      26.584   4.706  49.251  1.00  0.00     0.169 HD
ENDROOT
BRANCH   5  12
HETATM   12  C8  UNL     1      24.443   1.463  52.035  1.00  0.00    -0.006 A 
HETATM   13  C9  UNL     1      25.156   0.500  52.586  1.00  0.00    -0.039 A 
HETATM   14  C13 UNL     1      23.979   0.056  53.392  1.00  0.00    -0.044 A 
HETATM   15  C14 UNL     1      23.275   1.054  52.806  1.00  0.00    -0.039 A 
HETATM   16  C18 UNL     1      23.348  -0.874  54.410  1.00  0.00     0.040 C 
HETATM   17  C15 UNL     1      21.929   0.961  53.376  1.00  0.00     0.040 C 
HETATM   18  C16 UNL     1      21.307  -0.404  53.073  1.00  0.00     0.005 C 
HETATM   19  C17 UNL     1      22.096  -1.483  53.800  1.00  0.00     0.005 C 
BRANCH  13  20
HETATM   20  C10 UNL     1      26.475  -0.140  52.640  1.00  0.00     0.050 C 
BRANCH  20  21
HETATM   21  C11 UNL     1      27.019   0.036  54.075  1.00  0.00     0.114 C 
BRANCH  21  22
HETATM   22  C12 UNL     1      28.207   0.926  54.049  1.00  0.00     0.139 C 
HETATM   23  O2  UNL     1      28.852   1.152  55.127  1.00  0.00    -0.650 OA
BRANCH  22  24
HETATM   24  O3  UNL     1      28.683   1.549  52.912  1.00  0.00    -0.776 OA
HETATM   25  H11 UNL     1      28.954   2.543  52.985  1.00  0.00     0.167 HD
ENDBRANCH  22  24
ENDBRANCH  21  22
ENDBRANCH  20  21
ENDBRANCH  13  20
ENDBRANCH   5  12
BRANCH   1  26
HETATM   26  C2  UNL     1      21.701   6.235  48.673  1.00  0.00     0.082 C 
BRANCH  26  27
HETATM   27  C1  UNL     1      20.422   6.375  47.929  1.00  0.00     0.232 C 
HETATM   28  O1  UNL     1      20.153   6.057  46.786  1.00  0.00    -0.307 OA
ENDBRANCH  26  27
ENDBRANCH   1  26
TORSDOF 7
ENDMDL
MODEL 8
REMARK VINA RESULT:      -7.7      7.242      9.018
REMARK  7 active torsions:
REMARK  status: ('A' for Active; 'I' for Inactive)
REMARK    1  A    between atoms: C1_2  and  C2_3 
REMARK    2  A    between atoms: C2_3  and  C3_4 
REMARK    3  A    between atoms: C7_8  and  C8_9 
REMARK    4  A    between atoms: C9_10  and  C10_11 
REMARK    5  A    between atoms: C10_11  and  C11_12 
REMARK    6  A    between atoms: C11_12  and  C12_13 
REMARK    7  A    between atoms: C12_13  and  O3_15 
ROOT
HETATM    1  C3  UNL     1      33.864   3.361  46.777  1.00  0.00     0.039 A 
HETATM    2  C4  UNL     1      32.441   3.275  46.418  1.00  0.00    -0.017 A 
HETATM    3  C5  UNL     1      31.566   4.100  46.942  1.00  0.00     0.011 A 
HETATM    4  C6  UNL     1      31.841   5.160  47.897  1.00  0.00     0.007 A 
HETATM    5  C7  UNL     1      31.029   6.021  48.463  1.00  0.00     0.056 A 
HETATM    6  C19 UNL     1      31.935   6.794  49.300  1.00  0.00     0.258 A 
HETATM    7  O4  UNL     1      31.798   7.758  50.089  1.00  0.00    -0.267 OA
HETATM    8  N1  UNL     1      33.283   6.357  49.202  1.00  0.00    -0.322 N 
HETATM    9  C20 UNL     1      33.237   5.292  48.288  1.00  0.00     0.043 A 
HETATM   10  C21 UNL     1      34.081   4.445  47.741  1.00  0.00     0.012 A 
HETATM   11  H20 UNL     1      34.193   6.639  49.623  1.00  0.00     0.169 HD
ENDROOT
BRANCH   5  12
HETATM   12  C8  UNL     1      29.599   6.237  48.361  1.00  0.00    -0.006 A 
HETATM   13  C9  UNL     1      28.805   7.267  48.143  1.00  0.00    -0.039 A 
HETATM   14  C13 UNL     1      27.600   6.391  48.246  1.00  0.00    -0.044 A 
HETATM   15  C14 UNL     1      28.444   5.355  48.468  1.00  0.00    -0.039 A 
HETATM   16  C18 UNL     1      26.095   6.202  48.212  1.00  0.00     0.040 C 
HETATM   17  C15 UNL     1      27.578   4.185  48.639  1.00  0.00     0.040 C 
HETATM   18  C16 UNL     1      26.627   4.385  49.821  1.00  0.00     0.005 C 
HETATM   19  C17 UNL     1      25.664   5.517  49.498  1.00  0.00     0.005 C 
BRANCH  13  20
HETATM   20  C10 UNL     1      28.750   8.711  47.886  1.00  0.00     0.050 C 
BRANCH  20  21
HETATM   21  C11 UNL     1      29.062   9.433  49.215  1.00  0.00     0.114 C 
BRANCH  21  22
HETATM   22  C12 UNL     1      27.792   9.810  49.884  1.00  0.00     0.139 C 
HETATM   23  O2  UNL     1      26.934  10.520  49.259  1.00  0.00    -0.650 OA
BRANCH  22  24
HETATM   24  O3  UNL     1      27.457   9.443  51.173  1.00  0.00    -0.776 OA
HETATM   25  H11 UNL     1      27.289   8.441  51.361  1.00  0.00     0.167 HD
ENDBRANCH  22  24
ENDBRANCH  21  22
ENDBRANCH  20  21
ENDBRANCH  13  20
ENDBRANCH   5  12
BRANCH   1  26
HETATM   26  C2  UNL     1      34.738   3.551  45.538  1.00  0.00     0.082 C 
BRANCH  26  27
HETATM   27  C1  UNL     1      34.061   4.434  44.553  1.00  0.00     0.232 C 
HETATM   28  O1  UNL     1      34.544   5.165  43.708  1.00  0.00    -0.307 OA
ENDBRANCH  26  27
ENDBRANCH   1  26
TORSDOF 7
ENDMDL
MODEL 9
REMARK VINA RESULT:      -7.6      3.901      5.512
REMARK  7 active torsions:
REMARK  status: ('A' for Active; 'I' for Inactive)
REMARK    1  A    between atoms: C1_2  and  C2_3 
REMARK    2  A    between atoms: C2_3  and  C3_4 
REMARK    3  A    between atoms: C7_8  and  C8_9 
REMARK    4  A    between atoms: C9_10  and  C10_11 
REMARK    5  A    between atoms: C10_11  and  C11_12 
REMARK    6  A    between atoms: C11_12  and  C12_13 
REMARK    7  A    between atoms: C12_13  and  O3_15 
ROOT
HETATM    1  C3  UNL     1      25.738   0.154  53.225  1.00  0.00     0.039 A 
HETATM    2  C4  UNL     1      25.054   1.198  52.446  1.00  0.00    -0.017 A 
HETATM    3  C5  UNL     1      23.746   1.223  52.361  1.00  0.00     0.011 A 
HETATM    4  C6  UNL     1      22.821   0.289  52.981  1.00  0.00     0.007 A 
HETATM    5  C7  UNL     1      21.511   0.246  52.945  1.00  0.00     0.056 A 
HETATM    6  C19 UNL     1      21.218  -0.921  53.764  1.00  0.00     0.258 A 
HETATM    7  O4  UNL     1      20.168  -1.502  54.126  1.00  0.00    -0.267 OA
HETATM    8  N1  UNL     1      22.389  -1.547  54.269  1.00  0.00    -0.322 N 
HETATM    9  C20 UNL     1      23.443  -0.767  53.766  1.00  0.00     0.043 A 
HETATM   10  C21 UNL     1      24.756  -0.757  53.825  1.00  0.00     0.012 A 
HETATM   11  H20 UNL     1      22.596  -2.372  54.869  1.00  0.00     0.169 HD
ENDROOT
BRANCH   5  12
HETATM   12  C8  UNL     1      20.517   1.080  52.298  1.00  0.00    -0.006 A 
HETATM   13  C9  UNL     1      19.382   0.886  51.656  1.00  0.00    -0.039 A 
HETATM   14  C13 UNL     1      19.225   2.355  51.438  1.00  0.00    -0.044 A 
HETATM   15  C14 UNL     1      20.394   2.519  52.101  1.00  0.00    -0.039 A 
HETATM   16  C18 UNL     1      18.447   3.535  50.886  1.00  0.00     0.040 C 
HETATM   17  C15 UNL     1      20.630   3.965  52.111  1.00  0.00     0.040 C 
HETATM   18  C16 UNL     1      20.724   4.507  50.682  1.00  0.00     0.005 C 
HETATM   19  C17 UNL     1      19.372   4.354  50.002  1.00  0.00     0.005 C 
BRANCH  13  20
HETATM   20  C10 UNL     1      18.423  -0.120  51.185  1.00  0.00     0.050 C 
BRANCH  20  21
HETATM   21  C11 UNL     1      17.110   0.085  51.971  1.00  0.00     0.114 C 
BRANCH  21  22
HETATM   22  C12 UNL     1      16.853  -1.103  52.824  1.00  0.00     0.139 C 
HETATM   23  O2  UNL     1      16.053  -2.012  52.419  1.00  0.00    -0.650 OA
BRANCH  22  24
HETATM   24  O3  UNL     1      17.430  -1.306  54.063  1.00  0.00    -0.776 OA
HETATM   25  H11 UNL     1      17.400  -2.260  54.458  1.00  0.00     0.167 HD
ENDBRANCH  22  24
ENDBRANCH  21  22
ENDBRANCH  20  21
ENDBRANCH  13  20
ENDBRANCH   5  12
BRANCH   1  26
HETATM   26  C2  UNL     1      26.641   0.764  54.297  1.00  0.00     0.082 C 
BRANCH  26  27
HETATM   27  C1  UNL     1      28.015   0.207  54.199  1.00  0.00     0.232 C 
HETATM   28  O1  UNL     1      28.692  -0.338  55.050  1.00  0.00    -0.307 OA
ENDBRANCH  26  27
ENDBRANCH   1  26
TORSDOF 7
ENDMDL
