MODEL 1
REMARK VINA RESULT:      -9.0      0.000      0.000
REMARK  6 active torsions:
REMARK  status: ('A' for Active; 'I' for Inactive)
REMARK    1  A    between atoms: N1_2  and  C2_3 
REMARK    2  A    between atoms: C7_8  and  N2_9 
REMARK    3  A    between atoms: N2_9  and  C8_10 
REMARK    4  A    between atoms: C12_17  and  C13_18 
REMARK    5  A    between atoms: C13_18  and  N6_19 
REMARK    6  A    between atoms: C16_22  and  N7_23 
ROOT
HETATM    1  C8  UNL     1      24.407  -0.397  53.820  1.00  0.00     0.159 A 
HETATM    2  N3  UNL     1      24.361  -1.122  54.916  1.00  0.00    -0.220 NA
HETATM    3  C9  UNL     1      23.283  -1.432  55.626  1.00  0.00     0.258 A 
HETATM    4  N4  UNL     1      22.119  -0.947  55.166  1.00  0.00    -0.161 NA
HETATM    5  N5  UNL     1      22.076  -0.198  54.054  1.00  0.00    -0.240 N 
HETATM    6  C10 UNL     1      20.980   0.337  53.499  1.00  0.00     0.119 A 
HETATM    7  C11 UNL     1      21.417   1.018  52.380  1.00  0.00     0.030 A 
HETATM    8  C12 UNL     1      22.807   0.861  52.303  1.00  0.00    -0.007 A 
HETATM    9  C19 UNL     1      23.201   0.088  53.371  1.00  0.00     0.112 A 
ENDROOT
BRANCH   1  10
HETATM   10  N2  UNL     1      25.574  -0.102  53.090  1.00  0.00    -0.337 N 
HETATM   11  H9  UNL     1      25.605   0.604  52.358  1.00  0.00     0.167 HD
BRANCH  10  12
HETATM   12  C7  UNL     1      26.861  -0.673  53.182  1.00  0.00     0.060 A 
HETATM   13  C2  UNL     1      27.998  -0.059  53.651  1.00  0.00     0.054 A 
HETATM   14  C3  UNL     1      29.221  -0.674  53.713  1.00  0.00     0.031 A 
HETATM   15  C4  UNL     1      29.399  -1.974  53.301  1.00  0.00     0.002 A 
HETATM   16  C5  UNL     1      28.274  -2.626  52.822  1.00  0.00     0.002 A 
HETATM   17  C6  UNL     1      27.066  -1.969  52.779  1.00  0.00     0.032 A 
BRANCH  13  18
HETATM   18  N1  UNL     1      27.917   1.306  54.108  1.00  0.00    -0.392 N 
HETATM   19  C1  UNL     1      28.653   2.481  53.694  1.00  0.00     0.146 C 
HETATM   20  H4  UNL     1      27.300   1.706  54.835  1.00  0.00     0.159 HD
ENDBRANCH  13  18
ENDBRANCH  10  12
ENDBRANCH   1  10
BRANCH   8  21
HETATM   21  C13 UNL     1      23.576   1.472  51.224  1.00  0.00     0.158 C 
BRANCH  21  22
HETATM   22  N6  UNL     1      23.781   2.886  51.384  1.00  0.00    -0.408 N 
HETATM   23  C14 UNL     1      23.946   3.404  52.665  1.00  0.00     0.119 C 
HETATM   24  C15 UNL     1      23.528   4.819  52.880  1.00  0.00     0.055 C 
HETATM   25  C16 UNL     1      23.690   5.692  51.664  1.00  0.00     0.221 C 
HETATM   26  C17 UNL     1      24.454   4.984  50.558  1.00  0.00     0.055 C 
HETATM   27  C18 UNL     1      23.646   3.711  50.266  1.00  0.00     0.119 C 
BRANCH  25  28
HETATM   28  N7  UNL     1      24.317   6.964  51.974  1.00  0.00     0.083 N 
HETATM   29  H20 UNL     1      25.367   6.840  51.897  1.00  0.00     0.313 HD
HETATM   30  H21 UNL     1      23.977   7.683  51.298  1.00  0.00     0.313 HD
ENDBRANCH  25  28
ENDBRANCH  21  22
ENDBRANCH   8  21
TORSDOF 6
ENDMDL
MODEL 2
REMARK VINA RESULT:      -8.8      0.802      1.896
REMARK  6 active torsions:
REMARK  status: ('A' for Active; 'I' for Inactive)
REMARK    1  A    between atoms: N1_2  and  C2_3 
REMARK    2  A    between atoms: C7_8  and  N2_9 
REMARK    3  A    between atoms: N2_9  and  C8_10 
REMARK    4  A    between atoms: C12_17  and  C13_18 
REMARK    5  A    between atoms: C13_18  and  N6_19 
REMARK    6  A    between atoms: C16_22  and  N7_23 
ROOT
HETATM    1  C8  UNL     1      24.470  -0.329  53.657  1.00  0.00     0.159 A 
HETATM    2  N3  UNL     1      24.558  -1.039  54.762  1.00  0.00    -0.220 NA
HETATM    3  C9  UNL     1      23.561  -1.419  55.551  1.00  0.00     0.258 A 
HETATM    4  N4  UNL     1      22.333  -1.030  55.172  1.00  0.00    -0.161 NA
HETATM    5  N5  UNL     1      22.154  -0.304  54.059  1.00  0.00    -0.240 N 
HETATM    6  C10 UNL     1      20.983   0.139  53.579  1.00  0.00     0.119 A 
HETATM    7  C11 UNL     1      21.285   0.833  52.425  1.00  0.00     0.030 A 
HETATM    8  C12 UNL     1      22.674   0.781  52.249  1.00  0.00    -0.007 A 
HETATM    9  C19 UNL     1      23.202   0.056  53.293  1.00  0.00     0.112 A 
ENDROOT
BRANCH   1  10
HETATM   10  N2  UNL     1      25.556   0.041  52.842  1.00  0.00    -0.337 N 
HETATM   11  H9  UNL     1      25.514   0.029  51.826  1.00  0.00     0.167 HD
BRANCH  10  12
HETATM   12  C7  UNL     1      26.850   0.469  53.207  1.00  0.00     0.060 A 
HETATM   13  C2  UNL     1      27.925  -0.335  53.505  1.00  0.00     0.054 A 
HETATM   14  C3  UNL     1      29.158   0.148  53.855  1.00  0.00     0.031 A 
HETATM   15  C4  UNL     1      29.412   1.498  53.933  1.00  0.00     0.002 A 
HETATM   16  C5  UNL     1      28.352   2.340  53.638  1.00  0.00     0.002 A 
HETATM   17  C6  UNL     1      27.129   1.810  53.291  1.00  0.00     0.032 A 
BRANCH  13  18
HETATM   18  N1  UNL     1      27.763  -1.766  53.452  1.00  0.00    -0.392 N 
HETATM   19  C1  UNL     1      28.702  -2.807  53.095  1.00  0.00     0.146 C 
HETATM   20  H4  UNL     1      26.920  -2.327  53.666  1.00  0.00     0.159 HD
ENDBRANCH  13  18
ENDBRANCH  10  12
ENDBRANCH   1  10
BRANCH   8  21
HETATM   21  C13 UNL     1      23.314   1.431  51.111  1.00  0.00     0.158 C 
BRANCH  21  22
HETATM   22  N6  UNL     1      23.583   2.829  51.314  1.00  0.00    -0.408 N 
HETATM   23  C14 UNL     1      23.799   3.293  52.609  1.00  0.00     0.119 C 
HETATM   24  C15 UNL     1      23.446   4.715  52.883  1.00  0.00     0.055 C 
HETATM   25  C16 UNL     1      23.616   5.624  51.695  1.00  0.00     0.221 C 
HETATM   26  C17 UNL     1      24.323   4.926  50.545  1.00  0.00     0.055 C 
HETATM   27  C18 UNL     1      23.456   3.698  50.230  1.00  0.00     0.119 C 
BRANCH  25  28
HETATM   28  N7  UNL     1      24.303   6.858  52.033  1.00  0.00     0.083 N 
HETATM   29  H20 UNL     1      24.932   7.116  51.220  1.00  0.00     0.313 HD
HETATM   30  H21 UNL     1      23.594   7.604  52.206  1.00  0.00     0.313 HD
ENDBRANCH  25  28
ENDBRANCH  21  22
ENDBRANCH   8  21
TORSDOF 6
ENDMDL
MODEL 3
REMARK VINA RESULT:      -8.6      2.001      6.696
REMARK  6 active torsions:
REMARK  status: ('A' for Active; 'I' for Inactive)
REMARK    1  A    between atoms: N1_2  and  C2_3 
REMARK    2  A    between atoms: C7_8  and  N2_9 
REMARK    3  A    between atoms: N2_9  and  C8_10 
REMARK    4  A    between atoms: C12_17  and  C13_18 
REMARK    5  A    between atoms: C13_18  and  N6_19 
REMARK    6  A    between atoms: C16_22  and  N7_23 
ROOT
HETATM    1  C8  UNL     1      23.306   2.472  51.721  1.00  0.00     0.159 A 
HETATM    2  N3  UNL     1      22.409   2.820  50.824  1.00  0.00    -0.220 NA
HETATM    3  C9  UNL     1      22.638   3.301  49.609  1.00  0.00     0.258 A 
HETATM    4  N4  UNL     1      23.928   3.445  49.268  1.00  0.00    -0.161 NA
HETATM    5  N5  UNL     1      24.907   3.114  50.123  1.00  0.00    -0.240 N 
HETATM    6  C10 UNL     1      26.224   3.209  49.898  1.00  0.00     0.119 A 
HETATM    7  C11 UNL     1      26.839   2.759  51.049  1.00  0.00     0.030 A 
HETATM    8  C12 UNL     1      25.832   2.399  51.955  1.00  0.00    -0.007 A 
HETATM    9  C19 UNL     1      24.619   2.630  51.348  1.00  0.00     0.112 A 
ENDROOT
BRANCH   1  10
HETATM   10  N2  UNL     1      23.018   1.953  52.998  1.00  0.00    -0.337 N 
HETATM   11  H9  UNL     1      23.363   2.376  53.857  1.00  0.00     0.167 HD
BRANCH  10  12
HETATM   12  C7  UNL     1      22.261   0.819  53.359  1.00  0.00     0.060 A 
HETATM   13  C2  UNL     1      20.896   0.680  53.262  1.00  0.00     0.054 A 
HETATM   14  C3  UNL     1      20.222  -0.453  53.633  1.00  0.00     0.031 A 
HETATM   15  C4  UNL     1      20.877  -1.553  54.138  1.00  0.00     0.002 A 
HETATM   16  C5  UNL     1      22.254  -1.450  54.249  1.00  0.00     0.002 A 
HETATM   17  C6  UNL     1      22.890  -0.292  53.864  1.00  0.00     0.032 A 
BRANCH  13  18
HETATM   18  N1  UNL     1      20.118   1.777  52.744  1.00  0.00    -0.392 N 
HETATM   19  C1  UNL     1      19.076   1.800  51.741  1.00  0.00     0.146 C 
HETATM   20  H4  UNL     1      20.163   2.778  53.003  1.00  0.00     0.159 HD
ENDBRANCH  13  18
ENDBRANCH  10  12
ENDBRANCH   1  10
BRANCH   8  21
HETATM   21  C13 UNL     1      26.160   1.884  53.280  1.00  0.00     0.158 C 
BRANCH  21  22
HETATM   22  N6  UNL     1      26.776   0.584  53.264  1.00  0.00    -0.408 N 
HETATM   23  C14 UNL     1      27.822   0.322  54.143  1.00  0.00     0.119 C 
HETATM   24  C15 UNL     1      28.821  -0.699  53.717  1.00  0.00     0.055 C 
HETATM   25  C16 UNL     1      28.246  -1.788  52.851  1.00  0.00     0.221 C 
HETATM   26  C17 UNL     1      26.729  -1.720  52.790  1.00  0.00     0.055 C 
HETATM   27  C18 UNL     1      26.413  -0.314  52.259  1.00  0.00     0.119 C 
BRANCH  25  28
HETATM   28  N7  UNL     1      28.675  -3.111  53.265  1.00  0.00     0.083 N 
HETATM   29  H20 UNL     1      27.942  -3.502  53.924  1.00  0.00     0.313 HD
HETATM   30  H21 UNL     1      28.774  -3.716  52.419  1.00  0.00     0.313 HD
ENDBRANCH  25  28
ENDBRANCH  21  22
ENDBRANCH   8  21
TORSDOF 6
ENDMDL
MODEL 4
REMARK VINA RESULT:      -8.5      2.039      6.316
REMARK  6 active torsions:
REMARK  status: ('A' for Active; 'I' for Inactive)
REMARK    1  A    between atoms: N1_2  and  C2_3 
REMARK    2  A    between atoms: C7_8  and  N2_9 
REMARK    3  A    between atoms: N2_9  and  C8_10 
REMARK    4  A    between atoms: C12_17  and  C13_18 
REMARK    5  A    between atoms: C13_18  and  N6_19 
REMARK    6  A    between atoms: C16_22  and  N7_23 
ROOT
HETATM    1  C8  UNL     1      23.984   2.673  50.539  1.00  0.00     0.159 A 
HETATM    2  N3  UNL     1      23.267   2.839  49.449  1.00  0.00    -0.220 NA
HETATM    3  C9  UNL     1      22.143   2.210  49.127  1.00  0.00     0.258 A 
HETATM    4  N4  UNL     1      21.700   1.309  50.018  1.00  0.00    -0.161 NA
HETATM    5  N5  UNL     1      22.371   1.078  51.156  1.00  0.00    -0.240 N 
HETATM    6  C10 UNL     1      22.029   0.210  52.118  1.00  0.00     0.119 A 
HETATM    7  C11 UNL     1      23.006   0.314  53.088  1.00  0.00     0.030 A 
HETATM    8  C12 UNL     1      23.931   1.274  52.657  1.00  0.00    -0.007 A 
HETATM    9  C19 UNL     1      23.509   1.744  51.434  1.00  0.00     0.112 A 
ENDROOT
BRANCH   1  10
HETATM   10  N2  UNL     1      25.167   3.372  50.847  1.00  0.00    -0.337 N 
HETATM   11  H9  UNL     1      25.692   3.219  51.704  1.00  0.00     0.167 HD
BRANCH  10  12
HETATM   12  C7  UNL     1      25.839   4.371  50.111  1.00  0.00     0.060 A 
HETATM   13  C2  UNL     1      25.559   5.717  50.110  1.00  0.00     0.054 A 
HETATM   14  C3  UNL     1      26.253   6.635  49.368  1.00  0.00     0.031 A 
HETATM   15  C4  UNL     1      27.300   6.267  48.555  1.00  0.00     0.002 A 
HETATM   16  C5  UNL     1      27.612   4.917  48.530  1.00  0.00     0.002 A 
HETATM   17  C6  UNL     1      26.887   4.030  49.293  1.00  0.00     0.032 A 
BRANCH  13  18
HETATM   18  N1  UNL     1      24.479   6.206  50.931  1.00  0.00    -0.392 N 
HETATM   19  C1  UNL     1      23.076   6.388  50.628  1.00  0.00     0.146 C 
HETATM   20  H4  UNL     1      24.511   6.525  51.914  1.00  0.00     0.159 HD
ENDBRANCH  13  18
ENDBRANCH  10  12
ENDBRANCH   1  10
BRANCH   8  21
HETATM   21  C13 UNL     1      25.097   1.614  53.465  1.00  0.00     0.158 C 
BRANCH  21  22
HETATM   22  N6  UNL     1      26.125   0.609  53.455  1.00  0.00    -0.408 N 
HETATM   23  C14 UNL     1      26.877   0.401  54.608  1.00  0.00     0.119 C 
HETATM   24  C15 UNL     1      28.262  -0.119  54.425  1.00  0.00     0.055 C 
HETATM   25  C16 UNL     1      28.422  -1.013  53.224  1.00  0.00     0.221 C 
HETATM   26  C17 UNL     1      27.082  -1.362  52.597  1.00  0.00     0.055 C 
HETATM   27  C18 UNL     1      26.443  -0.011  52.246  1.00  0.00     0.119 C 
BRANCH  25  28
HETATM   28  N7  UNL     1      29.165  -2.223  53.527  1.00  0.00     0.083 N 
HETATM   29  H20 UNL     1      29.717  -2.494  52.664  1.00  0.00     0.313 HD
HETATM   30  H21 UNL     1      29.803  -2.036  54.332  1.00  0.00     0.313 HD
ENDBRANCH  25  28
ENDBRANCH  21  22
ENDBRANCH   8  21
TORSDOF 6
ENDMDL
MODEL 5
REMARK VINA RESULT:      -7.7      2.330      6.076
REMARK  6 active torsions:
REMARK  status: ('A' for Active; 'I' for Inactive)
REMARK    1  A    between atoms: N1_2  and  C2_3 
REMARK    2  A    between atoms: C7_8  and  N2_9 
REMARK    3  A    between atoms: N2_9  and  C8_10 
REMARK    4  A    between atoms: C12_17  and  C13_18 
REMARK    5  A    between atoms: C13_18  and  N6_19 
REMARK    6  A    between atoms: C16_22  and  N7_23 
ROOT
HETATM    1  C8  UNL     1      21.544   0.403  53.552  1.00  0.00     0.159 A 
HETATM    2  N3  UNL     1      21.402  -0.462  54.534  1.00  0.00    -0.220 NA
HETATM    3  C9  UNL     1      22.354  -1.193  55.100  1.00  0.00     0.258 A 
HETATM    4  N4  UNL     1      23.592  -1.024  54.610  1.00  0.00    -0.161 NA
HETATM    5  N5  UNL     1      23.825  -0.161  53.610  1.00  0.00    -0.240 N 
HETATM    6  C10 UNL     1      25.012   0.095  53.042  1.00  0.00     0.119 A 
HETATM    7  C11 UNL     1      24.769   1.041  52.067  1.00  0.00     0.030 A 
HETATM    8  C12 UNL     1      23.398   1.327  52.085  1.00  0.00    -0.007 A 
HETATM    9  C19 UNL     1      22.821   0.557  53.069  1.00  0.00     0.112 A 
ENDROOT
BRANCH   1  10
HETATM   10  N2  UNL     1      20.505   1.169  52.989  1.00  0.00    -0.337 N 
HETATM   11  H9  UNL     1      20.368   2.154  53.199  1.00  0.00     0.167 HD
BRANCH  10  12
HETATM   12  C7  UNL     1      19.491   0.783  52.087  1.00  0.00     0.060 A 
HETATM   13  C2  UNL     1      18.557  -0.208  52.279  1.00  0.00     0.054 A 
HETATM   14  C3  UNL     1      17.597  -0.533  51.357  1.00  0.00     0.031 A 
HETATM   15  C4  UNL     1      17.498   0.124  50.152  1.00  0.00     0.002 A 
HETATM   16  C5  UNL     1      18.422   1.130  49.924  1.00  0.00     0.002 A 
HETATM   17  C6  UNL     1      19.370   1.423  50.878  1.00  0.00     0.032 A 
BRANCH  13  18
HETATM   18  N1  UNL     1      18.577  -0.956  53.511  1.00  0.00    -0.392 N 
HETATM   19  C1  UNL     1      18.159  -2.312  53.795  1.00  0.00     0.146 C 
HETATM   20  H4  UNL     1      18.901  -0.651  54.444  1.00  0.00     0.159 HD
ENDBRANCH  13  18
ENDBRANCH  10  12
ENDBRANCH   1  10
BRANCH   8  21
HETATM   21  C13 UNL     1      22.817   2.295  51.161  1.00  0.00     0.158 C 
BRANCH  21  22
HETATM   22  N6  UNL     1      23.578   3.509  51.036  1.00  0.00    -0.408 N 
HETATM   23  C14 UNL     1      23.509   4.456  52.054  1.00  0.00     0.119 C 
HETATM   24  C15 UNL     1      23.739   5.878  51.668  1.00  0.00     0.055 C 
HETATM   25  C16 UNL     1      24.691   6.048  50.514  1.00  0.00     0.221 C 
HETATM   26  C17 UNL     1      25.374   4.741  50.147  1.00  0.00     0.055 C 
HETATM   27  C18 UNL     1      24.230   3.768  49.830  1.00  0.00     0.119 C 
BRANCH  25  28
HETATM   28  N7  UNL     1      25.680   7.082  50.758  1.00  0.00     0.083 N 
HETATM   29  H20 UNL     1      25.613   7.367  51.776  1.00  0.00     0.313 HD
HETATM   30  H21 UNL     1      26.628   6.703  50.540  1.00  0.00     0.313 HD
ENDBRANCH  25  28
ENDBRANCH  21  22
ENDBRANCH   8  21
TORSDOF 6
ENDMDL
MODEL 6
REMARK VINA RESULT:      -7.7      2.200      5.294
REMARK  6 active torsions:
REMARK  status: ('A' for Active; 'I' for Inactive)
REMARK    1  A    between atoms: N1_2  and  C2_3 
REMARK    2  A    between atoms: C7_8  and  N2_9 
REMARK    3  A    between atoms: N2_9  and  C8_10 
REMARK    4  A    between atoms: C12_17  and  C13_18 
REMARK    5  A    between atoms: C13_18  and  N6_19 
REMARK    6  A    between atoms: C16_22  and  N7_23 
ROOT
HETATM    1  C8  UNL     1      26.228   3.111  50.592  1.00  0.00     0.159 A 
HETATM    2  N3  UNL     1      27.116   3.439  49.678  1.00  0.00    -0.220 NA
HETATM    3  C9  UNL     1      27.129   4.538  48.933  1.00  0.00     0.258 A 
HETATM    4  N4  UNL     1      26.122   5.400  49.143  1.00  0.00    -0.161 NA
HETATM    5  N5  UNL     1      25.174   5.144  50.056  1.00  0.00    -0.240 N 
HETATM    6  C10 UNL     1      24.127   5.925  50.355  1.00  0.00     0.119 A 
HETATM    7  C11 UNL     1      23.430   5.261  51.344  1.00  0.00     0.030 A 
HETATM    8  C12 UNL     1      24.107   4.064  51.610  1.00  0.00    -0.007 A 
HETATM    9  C19 UNL     1      25.207   4.011  50.786  1.00  0.00     0.112 A 
ENDROOT
BRANCH   1  10
HETATM   10  N2  UNL     1      26.259   1.938  51.370  1.00  0.00    -0.337 N 
HETATM   11  H9  UNL     1      25.557   1.206  51.293  1.00  0.00     0.167 HD
BRANCH  10  12
HETATM   12  C7  UNL     1      27.181   1.540  52.360  1.00  0.00     0.060 A 
HETATM   13  C2  UNL     1      27.417   0.256  52.791  1.00  0.00     0.054 A 
HETATM   14  C3  UNL     1      28.330  -0.062  53.762  1.00  0.00     0.031 A 
HETATM   15  C4  UNL     1      29.088   0.902  54.386  1.00  0.00     0.002 A 
HETATM   16  C5  UNL     1      28.877   2.209  53.978  1.00  0.00     0.002 A 
HETATM   17  C6  UNL     1      27.950   2.481  52.998  1.00  0.00     0.032 A 
BRANCH  13  18
HETATM   18  N1  UNL     1      26.673  -0.827  52.198  1.00  0.00    -0.392 N 
HETATM   19  C1  UNL     1      26.820  -2.260  52.344  1.00  0.00     0.146 C 
HETATM   20  H4  UNL     1      25.876  -0.777  51.541  1.00  0.00     0.159 HD
ENDBRANCH  13  18
ENDBRANCH  10  12
ENDBRANCH   1  10
BRANCH   8  21
HETATM   21  C13 UNL     1      23.615   3.127  52.614  1.00  0.00     0.158 C 
BRANCH  21  22
HETATM   22  N6  UNL     1      22.485   2.349  52.180  1.00  0.00    -0.408 N 
HETATM   23  C14 UNL     1      21.201   2.811  52.457  1.00  0.00     0.119 C 
HETATM   24  C15 UNL     1      20.130   1.784  52.593  1.00  0.00     0.055 C 
HETATM   25  C16 UNL     1      20.347   0.562  51.741  1.00  0.00     0.221 C 
HETATM   26  C17 UNL     1      21.496   0.750  50.765  1.00  0.00     0.055 C 
HETATM   27  C18 UNL     1      22.713   1.082  51.641  1.00  0.00     0.119 C 
BRANCH  25  28
HETATM   28  N7  UNL     1      19.146   0.159  51.032  1.00  0.00     0.083 N 
HETATM   29  H20 UNL     1      19.021   0.807  50.203  1.00  0.00     0.313 HD
HETATM   30  H21 UNL     1      19.253  -0.830  50.717  1.00  0.00     0.313 HD
ENDBRANCH  25  28
ENDBRANCH  21  22
ENDBRANCH   8  21
TORSDOF 6
ENDMDL
MODEL 7
REMARK VINA RESULT:      -7.6      1.738      5.155
REMARK  6 active torsions:
REMARK  status: ('A' for Active; 'I' for Inactive)
REMARK    1  A    between atoms: N1_2  and  C2_3 
REMARK    2  A    between atoms: C7_8  and  N2_9 
REMARK    3  A    between atoms: N2_9  and  C8_10 
REMARK    4  A    between atoms: C12_17  and  C13_18 
REMARK    5  A    between atoms: C13_18  and  N6_19 
REMARK    6  A    between atoms: C16_22  and  N7_23 
ROOT
HETATM    1  C8  UNL     1      26.006   2.442  51.047  1.00  0.00     0.159 A 
HETATM    2  N3  UNL     1      26.622   3.236  50.199  1.00  0.00    -0.220 NA
HETATM    3  C9  UNL     1      26.143   4.347  49.651  1.00  0.00     0.258 A 
HETATM    4  N4  UNL     1      24.895   4.686  50.009  1.00  0.00    -0.161 NA
HETATM    5  N5  UNL     1      24.196   3.931  50.869  1.00  0.00    -0.240 N 
HETATM    6  C10 UNL     1      22.950   4.166  51.302  1.00  0.00     0.119 A 
HETATM    7  C11 UNL     1      22.648   3.134  52.167  1.00  0.00     0.030 A 
HETATM    8  C12 UNL     1      23.762   2.287  52.223  1.00  0.00    -0.007 A 
HETATM    9  C19 UNL     1      24.729   2.811  51.396  1.00  0.00     0.112 A 
ENDROOT
BRANCH   1  10
HETATM   10  N2  UNL     1      26.558   1.277  51.614  1.00  0.00    -0.337 N 
HETATM   11  H9  UNL     1      26.369   0.344  51.254  1.00  0.00     0.167 HD
BRANCH  10  12
HETATM   12  C7  UNL     1      27.417   1.136  52.725  1.00  0.00     0.060 A 
HETATM   13  C2  UNL     1      27.538   0.030  53.532  1.00  0.00     0.054 A 
HETATM   14  C3  UNL     1      28.394  -0.039  54.599  1.00  0.00     0.031 A 
HETATM   15  C4  UNL     1      29.209   1.015  54.943  1.00  0.00     0.002 A 
HETATM   16  C5  UNL     1      29.115   2.148  54.151  1.00  0.00     0.002 A 
HETATM   17  C6  UNL     1      28.240   2.173  53.088  1.00  0.00     0.032 A 
BRANCH  13  18
HETATM   18  N1  UNL     1      26.726  -1.129  53.255  1.00  0.00    -0.392 N 
HETATM   19  C1  UNL     1      26.993  -2.289  52.432  1.00  0.00     0.146 C 
HETATM   20  H4  UNL     1      25.778  -1.349  53.604  1.00  0.00     0.159 HD
ENDBRANCH  13  18
ENDBRANCH  10  12
ENDBRANCH   1  10
BRANCH   8  21
HETATM   21  C13 UNL     1      23.757   1.089  53.055  1.00  0.00     0.158 C 
BRANCH  21  22
HETATM   22  N6  UNL     1      22.458   0.493  53.209  1.00  0.00    -0.408 N 
HETATM   23  C14 UNL     1      22.042   0.100  54.478  1.00  0.00     0.119 C 
HETATM   24  C15 UNL     1      21.066  -1.025  54.550  1.00  0.00     0.055 C 
HETATM   25  C16 UNL     1      20.132  -1.096  53.372  1.00  0.00     0.221 C 
HETATM   26  C17 UNL     1      20.249   0.131  52.483  1.00  0.00     0.055 C 
HETATM   27  C18 UNL     1      21.725   0.181  52.063  1.00  0.00     0.119 C 
BRANCH  25  28
HETATM   28  N7  UNL     1      18.751  -1.298  53.770  1.00  0.00     0.083 N 
HETATM   29  H20 UNL     1      18.748  -1.811  54.698  1.00  0.00     0.313 HD
HETATM   30  H21 UNL     1      18.283  -0.369  53.857  1.00  0.00     0.313 HD
ENDBRANCH  25  28
ENDBRANCH  21  22
ENDBRANCH   8  21
TORSDOF 6
ENDMDL
MODEL 8
REMARK VINA RESULT:      -7.6      1.965      5.698
REMARK  6 active torsions:
REMARK  status: ('A' for Active; 'I' for Inactive)
REMARK    1  A    between atoms: N1_2  and  C2_3 
REMARK    2  A    between atoms: C7_8  and  N2_9 
REMARK    3  A    between atoms: N2_9  and  C8_10 
REMARK    4  A    between atoms: C12_17  and  C13_18 
REMARK    5  A    between atoms: C13_18  and  N6_19 
REMARK    6  A    between atoms: C16_22  and  N7_23 
ROOT
HETATM    1  C8  UNL     1      22.217  -0.024  53.768  1.00  0.00     0.159 A 
HETATM    2  N3  UNL     1      22.082  -0.768  54.845  1.00  0.00    -0.220 NA
HETATM    3  C9  UNL     1      23.046  -1.380  55.521  1.00  0.00     0.258 A 
HETATM    4  N4  UNL     1      24.290  -1.217  55.044  1.00  0.00    -0.161 NA
HETATM    5  N5  UNL     1      24.517  -0.475  53.950  1.00  0.00    -0.240 N 
HETATM    6  C10 UNL     1      25.708  -0.237  53.384  1.00  0.00     0.119 A 
HETATM    7  C11 UNL     1      25.455   0.570  52.293  1.00  0.00     0.030 A 
HETATM    8  C12 UNL     1      24.073   0.794  52.243  1.00  0.00    -0.007 A 
HETATM    9  C19 UNL     1      23.500   0.126  53.300  1.00  0.00     0.112 A 
ENDROOT
BRANCH   1  10
HETATM   10  N2  UNL     1      21.164   0.618  53.089  1.00  0.00    -0.337 N 
HETATM   11  H9  UNL     1      21.201   1.597  52.813  1.00  0.00     0.167 HD
BRANCH  10  12
HETATM   12  C7  UNL     1      19.915   0.108  52.676  1.00  0.00     0.060 A 
HETATM   13  C2  UNL     1      19.276   0.369  51.487  1.00  0.00     0.054 A 
HETATM   14  C3  UNL     1      18.059  -0.161  51.149  1.00  0.00     0.031 A 
HETATM   15  C4  UNL     1      17.378  -1.008  51.993  1.00  0.00     0.002 A 
HETATM   16  C5  UNL     1      17.992  -1.294  53.202  1.00  0.00     0.002 A 
HETATM   17  C6  UNL     1      19.216  -0.739  53.499  1.00  0.00     0.032 A 
BRANCH  13  18
HETATM   18  N1  UNL     1      19.907   1.245  50.532  1.00  0.00    -0.392 N 
HETATM   19  C1  UNL     1      19.335   2.065  49.486  1.00  0.00     0.146 C 
HETATM   20  H4  UNL     1      20.914   1.454  50.418  1.00  0.00     0.159 HD
ENDBRANCH  13  18
ENDBRANCH  10  12
ENDBRANCH   1  10
BRANCH   8  21
HETATM   21  C13 UNL     1      23.480   1.614  51.192  1.00  0.00     0.158 C 
BRANCH  21  22
HETATM   22  N6  UNL     1      23.748   3.020  51.329  1.00  0.00    -0.408 N 
HETATM   23  C14 UNL     1      23.684   3.598  52.594  1.00  0.00     0.119 C 
HETATM   24  C15 UNL     1      23.332   5.046  52.656  1.00  0.00     0.055 C 
HETATM   25  C16 UNL     1      23.801   5.837  51.464  1.00  0.00     0.221 C 
HETATM   26  C17 UNL     1      24.722   5.023  50.572  1.00  0.00     0.055 C 
HETATM   27  C18 UNL     1      23.903   3.787  50.174  1.00  0.00     0.119 C 
BRANCH  25  28
HETATM   28  N7  UNL     1      24.440   7.085  51.843  1.00  0.00     0.083 N 
HETATM   29  H20 UNL     1      25.030   7.412  51.025  1.00  0.00     0.313 HD
HETATM   30  H21 UNL     1      23.703   7.787  52.074  1.00  0.00     0.313 HD
ENDBRANCH  25  28
ENDBRANCH  21  22
ENDBRANCH   8  21
TORSDOF 6
ENDMDL
MODEL 9
REMARK VINA RESULT:      -7.5      2.002      7.229
REMARK  6 active torsions:
REMARK  status: ('A' for Active; 'I' for Inactive)
REMARK    1  A    between atoms: N1_2  and  C2_3 
REMARK    2  A    between atoms: C7_8  and  N2_9 
REMARK    3  A    between atoms: N2_9  and  C8_10 
REMARK    4  A    between atoms: C12_17  and  C13_18 
REMARK    5  A    between atoms: C13_18  and  N6_19 
REMARK    6  A    between atoms: C16_22  and  N7_23 
ROOT
HETATM    1  C8  UNL     1      23.856   4.853  51.565  1.00  0.00     0.159 A 
HETATM    2  N3  UNL     1      23.681   6.155  51.479  1.00  0.00    -0.220 NA
HETATM    3  C9  UNL     1      24.369   7.006  50.729  1.00  0.00     0.258 A 
HETATM    4  N4  UNL     1      25.348   6.471  49.982  1.00  0.00    -0.161 NA
HETATM    5  N5  UNL     1      25.594   5.153  50.010  1.00  0.00    -0.240 N 
HETATM    6  C10 UNL     1      26.536   4.506  49.312  1.00  0.00     0.119 A 
HETATM    7  C11 UNL     1      26.417   3.175  49.658  1.00  0.00     0.030 A 
HETATM    8  C12 UNL     1      25.372   3.069  50.584  1.00  0.00    -0.007 A 
HETATM    9  C19 UNL     1      24.865   4.332  50.791  1.00  0.00     0.112 A 
ENDROOT
BRANCH   1  10
HETATM   10  N2  UNL     1      23.093   3.983  52.367  1.00  0.00    -0.337 N 
HETATM   11  H9  UNL     1      23.432   3.602  53.247  1.00  0.00     0.167 HD
BRANCH  10  12
HETATM   12  C7  UNL     1      21.796   3.469  52.155  1.00  0.00     0.060 A 
HETATM   13  C2  UNL     1      21.354   2.206  52.468  1.00  0.00     0.054 A 
HETATM   14  C3  UNL     1      20.077   1.770  52.232  1.00  0.00     0.031 A 
HETATM   15  C4  UNL     1      19.129   2.583  51.654  1.00  0.00     0.002 A 
HETATM   16  C5  UNL     1      19.538   3.865  51.325  1.00  0.00     0.002 A 
HETATM   17  C6  UNL     1      20.832   4.260  51.581  1.00  0.00     0.032 A 
BRANCH  13  18
HETATM   18  N1  UNL     1      22.272   1.276  53.078  1.00  0.00    -0.392 N 
HETATM   19  C1  UNL     1      22.307  -0.170  53.044  1.00  0.00     0.146 C 
HETATM   20  H4  UNL     1      23.096   1.479  53.668  1.00  0.00     0.159 HD
ENDBRANCH  13  18
ENDBRANCH  10  12
ENDBRANCH   1  10
BRANCH   8  21
HETATM   21  C13 UNL     1      24.995   1.779  51.152  1.00  0.00     0.158 C 
BRANCH  21  22
HETATM   22  N6  UNL     1      25.917   1.288  52.141  1.00  0.00    -0.408 N 
HETATM   23  C14 UNL     1      26.599   0.100  51.897  1.00  0.00     0.119 C 
HETATM   24  C15 UNL     1      27.012  -0.698  53.087  1.00  0.00     0.055 C 
HETATM   25  C16 UNL     1      27.321   0.137  54.301  1.00  0.00     0.221 C 
HETATM   26  C17 UNL     1      27.356   1.621  53.973  1.00  0.00     0.055 C 
HETATM   27  C18 UNL     1      25.974   1.931  53.379  1.00  0.00     0.119 C 
BRANCH  25  28
HETATM   28  N7  UNL     1      28.555  -0.263  54.952  1.00  0.00     0.083 N 
HETATM   29  H20 UNL     1      29.260   0.519  54.829  1.00  0.00     0.313 HD
HETATM   30  H21 UNL     1      28.364  -0.436  55.963  1.00  0.00     0.313 HD
ENDBRANCH  25  28
ENDBRANCH  21  22
ENDBRANCH   8  21
TORSDOF 6
ENDMDL
