MODEL 1
REMARK VINA RESULT:      -8.2      0.000      0.000
REMARK  0 active torsions:
REMARK  status: ('A' for Active; 'I' for Inactive)
ROOT
HETATM    1  C1  UNL     1      24.832   6.622  50.770  1.00  0.00     0.179 C 
HETATM    2  N1  UNL     1      23.930   6.049  49.780  1.00  0.00    -0.285 N 
HETATM    3  C2  UNL     1      22.515   6.244  50.091  1.00  0.00     0.125 C 
HETATM    4  C3  UNL     1      22.087   5.900  51.274  1.00  0.00     0.006 C 
HETATM    5  P1  UNL     1      23.025   4.746  52.038  1.00  0.00    -0.021 P 
HETATM    6  C4  UNL     1      23.446   3.364  50.910  1.00  0.00     0.129 C 
HETATM    7  C5  UNL     1      24.588   2.486  51.204  1.00  0.00     0.052 C 
HETATM    8  C6  UNL     1      25.976   2.991  51.086  1.00  0.00     0.039 C 
HETATM    9  C7  UNL     1      26.663   1.721  51.491  1.00  0.00     0.089 C 
HETATM   10  N2  UNL     1      25.903   1.119  52.369  1.00  0.00    -0.295 NA
HETATM   11  C8  UNL     1      24.728   1.913  52.588  1.00  0.00     0.145 C 
HETATM   12  C9  UNL     1      23.516   1.186  52.951  1.00  0.00    -0.027 C 
HETATM   13  C10 UNL     1      23.637  -0.074  53.532  1.00  0.00     0.026 C 
HETATM   14  C11 UNL     1      22.575  -1.146  53.281  1.00  0.00     0.117 C 
HETATM   15  N3  UNL     1      21.383  -0.923  52.602  1.00  0.00    -0.261 NA
HETATM   16  C12 UNL     1      21.142   0.421  52.034  1.00  0.00     0.056 C 
HETATM   17  C13 UNL     1      21.042   1.466  52.896  1.00  0.00     0.034 C 
HETATM   18  C14 UNL     1      22.356   2.057  52.603  1.00  0.00     0.141 C 
HETATM   19  N4  UNL     1      22.304   2.431  51.171  1.00  0.00    -0.368 N 
HETATM   20  C15 UNL     1      21.277   1.902  50.226  1.00  0.00     0.090 C 
HETATM   21  C16 UNL     1      21.253   0.605  50.539  1.00  0.00     0.048 C 
HETATM   22  C17 UNL     1      26.391   3.441  49.737  1.00  0.00     0.059 C 
HETATM   23  C18 UNL     1      25.581   4.557  49.207  1.00  0.00     0.112 C 
HETATM   24  N5  UNL     1      24.835   5.526  48.845  1.00  0.00    -0.190 NA
ENDROOT
TORSDOF 0
ENDMDL
MODEL 2
REMARK VINA RESULT:      -7.8      1.539      5.523
REMARK  0 active torsions:
REMARK  status: ('A' for Active; 'I' for Inactive)
ROOT
HETATM    1  C1  UNL     1      21.582   0.356  51.093  1.00  0.00     0.179 C 
HETATM    2  N1  UNL     1      21.180   1.584  51.764  1.00  0.00    -0.285 N 
HETATM    3  C2  UNL     1      20.314   2.440  50.954  1.00  0.00     0.125 C 
HETATM    4  C3  UNL     1      20.703   2.748  49.747  1.00  0.00     0.006 C 
HETATM    5  P1  UNL     1      22.355   2.656  49.509  1.00  0.00    -0.021 P 
HETATM    6  C4  UNL     1      23.279   3.459  50.872  1.00  0.00     0.129 C 
HETATM    7  C5  UNL     1      24.692   3.128  51.108  1.00  0.00     0.052 C 
HETATM    8  C6  UNL     1      25.075   1.800  51.645  1.00  0.00     0.039 C 
HETATM    9  C7  UNL     1      26.556   2.037  51.665  1.00  0.00     0.089 C 
HETATM   10  N2  UNL     1      26.850   2.816  50.657  1.00  0.00    -0.295 NA
HETATM   11  C8  UNL     1      25.644   3.125  49.943  1.00  0.00     0.145 C 
HETATM   12  C9  UNL     1      25.607   4.419  49.268  1.00  0.00    -0.027 C 
HETATM   13  C10 UNL     1      26.810   5.032  48.925  1.00  0.00     0.026 C 
HETATM   14  C11 UNL     1      26.924   6.558  48.914  1.00  0.00     0.117 C 
HETATM   15  N3  UNL     1      25.853   7.424  49.097  1.00  0.00    -0.261 NA
HETATM   16  C12 UNL     1      24.522   6.843  49.376  1.00  0.00     0.056 C 
HETATM   17  C13 UNL     1      23.951   6.072  48.414  1.00  0.00     0.034 C 
HETATM   18  C14 UNL     1      24.172   4.778  49.077  1.00  0.00     0.141 C 
HETATM   19  N4  UNL     1      23.405   4.853  50.342  1.00  0.00    -0.368 N 
HETATM   20  C15 UNL     1      22.912   6.137  50.921  1.00  0.00     0.090 C 
HETATM   21  C16 UNL     1      23.973   6.933  50.780  1.00  0.00     0.048 C 
HETATM   22  C17 UNL     1      24.547   1.467  52.988  1.00  0.00     0.059 C 
HETATM   23  C18 UNL     1      23.073   1.444  53.059  1.00  0.00     0.112 C 
HETATM   24  N5  UNL     1      21.798   1.438  53.014  1.00  0.00    -0.190 NA
ENDROOT
TORSDOF 0
ENDMDL
MODEL 3
REMARK VINA RESULT:      -7.7      1.676      3.879
REMARK  0 active torsions:
REMARK  status: ('A' for Active; 'I' for Inactive)
ROOT
HETATM    1  C1  UNL     1      24.166   5.347  48.827  1.00  0.00     0.179 C 
HETATM    2  N1  UNL     1      25.125   5.613  49.890  1.00  0.00    -0.285 N 
HETATM    3  C2  UNL     1      26.432   4.995  49.670  1.00  0.00     0.125 C 
HETATM    4  C3  UNL     1      26.476   3.720  49.397  1.00  0.00     0.006 C 
HETATM    5  P1  UNL     1      25.149   2.854  49.928  1.00  0.00    -0.021 P 
HETATM    6  C4  UNL     1      24.710   3.283  51.655  1.00  0.00     0.129 C 
HETATM    7  C5  UNL     1      23.364   2.999  52.173  1.00  0.00     0.052 C 
HETATM    8  C6  UNL     1      22.194   3.772  51.695  1.00  0.00     0.039 C 
HETATM    9  C7  UNL     1      21.163   3.069  52.527  1.00  0.00     0.089 C 
HETATM   10  N2  UNL     1      21.536   1.822  52.655  1.00  0.00    -0.295 NA
HETATM   11  C8  UNL     1      22.772   1.634  51.950  1.00  0.00     0.145 C 
HETATM   12  C9  UNL     1      23.667   0.610  52.481  1.00  0.00    -0.027 C 
HETATM   13  C10 UNL     1      23.131  -0.414  53.258  1.00  0.00     0.026 C 
HETATM   14  C11 UNL     1      23.954  -1.042  54.384  1.00  0.00     0.117 C 
HETATM   15  N3  UNL     1      25.293  -0.757  54.628  1.00  0.00    -0.261 NA
HETATM   16  C12 UNL     1      25.958   0.258  53.782  1.00  0.00     0.056 C 
HETATM   17  C13 UNL     1      26.081  -0.004  52.454  1.00  0.00     0.034 C 
HETATM   18  C14 UNL     1      25.042   0.931  51.998  1.00  0.00     0.141 C 
HETATM   19  N4  UNL     1      25.518   2.272  52.409  1.00  0.00    -0.368 N 
HETATM   20  C15 UNL     1      26.594   2.481  53.420  1.00  0.00     0.090 C 
HETATM   21  C16 UNL     1      26.251   1.615  54.376  1.00  0.00     0.048 C 
HETATM   22  C17 UNL     1      22.226   5.229  51.964  1.00  0.00     0.059 C 
HETATM   23  C18 UNL     1      23.367   5.925  51.337  1.00  0.00     0.112 C 
HETATM   24  N5  UNL     1      24.376   6.434  50.746  1.00  0.00    -0.190 NA
ENDROOT
TORSDOF 0
ENDMDL
MODEL 4
REMARK VINA RESULT:      -7.4      2.417      4.824
REMARK  0 active torsions:
REMARK  status: ('A' for Active; 'I' for Inactive)
ROOT
HETATM    1  C1  UNL     1      19.707   1.837  49.301  1.00  0.00     0.179 C 
HETATM    2  N1  UNL     1      20.079   3.052  50.013  1.00  0.00    -0.285 N 
HETATM    3  C2  UNL     1      21.177   3.787  49.387  1.00  0.00     0.125 C 
HETATM    4  C3  UNL     1      22.271   3.139  49.099  1.00  0.00     0.006 C 
HETATM    5  P1  UNL     1      22.516   1.758  50.008  1.00  0.00    -0.021 P 
HETATM    6  C4  UNL     1      22.219   2.063  51.791  1.00  0.00     0.129 C 
HETATM    7  C5  UNL     1      21.942   0.942  52.700  1.00  0.00     0.052 C 
HETATM    8  C6  UNL     1      20.657   0.208  52.623  1.00  0.00     0.039 C 
HETATM    9  C7  UNL     1      20.941  -0.766  53.728  1.00  0.00     0.089 C 
HETATM   10  N2  UNL     1      22.225  -1.019  53.717  1.00  0.00    -0.295 NA
HETATM   11  C8  UNL     1      22.836  -0.267  52.658  1.00  0.00     0.145 C 
HETATM   12  C9  UNL     1      24.224   0.132  52.869  1.00  0.00    -0.027 C 
HETATM   13  C10 UNL     1      25.005  -0.598  53.762  1.00  0.00     0.026 C 
HETATM   14  C11 UNL     1      26.109   0.092  54.566  1.00  0.00     0.117 C 
HETATM   15  N3  UNL     1      26.504   1.411  54.381  1.00  0.00    -0.261 NA
HETATM   16  C12 UNL     1      25.779   2.226  53.382  1.00  0.00     0.056 C 
HETATM   17  C13 UNL     1      25.851   1.845  52.080  1.00  0.00     0.034 C 
HETATM   18  C14 UNL     1      24.487   1.303  51.984  1.00  0.00     0.141 C 
HETATM   19  N4  UNL     1      23.592   2.455  52.241  1.00  0.00    -0.368 N 
HETATM   20  C15 UNL     1      24.059   3.726  52.866  1.00  0.00     0.090 C 
HETATM   21  C16 UNL     1      24.817   3.282  53.870  1.00  0.00     0.048 C 
HETATM   22  C17 UNL     1      19.437   1.006  52.886  1.00  0.00     0.059 C 
HETATM   23  C18 UNL     1      19.243   2.124  51.942  1.00  0.00     0.112 C 
HETATM   24  N5  UNL     1      19.158   3.051  51.071  1.00  0.00    -0.190 NA
ENDROOT
TORSDOF 0
ENDMDL
MODEL 5
REMARK VINA RESULT:      -7.2      2.275      6.605
REMARK  0 active torsions:
REMARK  status: ('A' for Active; 'I' for Inactive)
ROOT
HETATM    1  C1  UNL     1      21.310   2.751  51.729  1.00  0.00     0.179 C 
HETATM    2  N1  UNL     1      22.653   2.202  51.602  1.00  0.00    -0.285 N 
HETATM    3  C2  UNL     1      23.601   2.735  52.580  1.00  0.00     0.125 C 
HETATM    4  C3  UNL     1      23.704   4.030  52.700  1.00  0.00     0.006 C 
HETATM    5  P1  UNL     1      23.228   4.889  51.348  1.00  0.00    -0.021 P 
HETATM    6  C4  UNL     1      23.929   4.175  49.813  1.00  0.00     0.129 C 
HETATM    7  C5  UNL     1      23.318   4.469  48.510  1.00  0.00     0.052 C 
HETATM    8  C6  UNL     1      21.993   3.907  48.153  1.00  0.00     0.039 C 
HETATM    9  C7  UNL     1      21.899   4.523  46.789  1.00  0.00     0.089 C 
HETATM   10  N2  UNL     1      22.498   5.685  46.833  1.00  0.00    -0.295 NA
HETATM   11  C8  UNL     1      22.999   5.898  48.161  1.00  0.00     0.145 C 
HETATM   12  C9  UNL     1      24.201   6.718  48.274  1.00  0.00    -0.027 C 
HETATM   13  C10 UNL     1      24.500   7.615  47.251  1.00  0.00     0.026 C 
HETATM   14  C11 UNL     1      25.955   7.939  46.908  1.00  0.00     0.117 C 
HETATM   15  N3  UNL     1      27.049   7.498  47.643  1.00  0.00    -0.261 NA
HETATM   16  C12 UNL     1      26.804   6.612  48.801  1.00  0.00     0.056 C 
HETATM   17  C13 UNL     1      26.093   7.114  49.844  1.00  0.00     0.034 C 
HETATM   18  C14 UNL     1      24.849   6.378  49.574  1.00  0.00     0.141 C 
HETATM   19  N4  UNL     1      25.207   4.947  49.703  1.00  0.00    -0.368 N 
HETATM   20  C15 UNL     1      26.615   4.454  49.687  1.00  0.00     0.090 C 
HETATM   21  C16 UNL     1      27.141   5.145  48.674  1.00  0.00     0.048 C 
HETATM   22  C17 UNL     1      21.909   2.429  48.102  1.00  0.00     0.059 C 
HETATM   23  C18 UNL     1      22.219   1.771  49.387  1.00  0.00     0.112 C 
HETATM   24  N5  UNL     1      22.489   1.300  50.541  1.00  0.00    -0.190 NA
ENDROOT
TORSDOF 0
ENDMDL
MODEL 6
REMARK VINA RESULT:      -7.2      6.259      9.369
REMARK  0 active torsions:
REMARK  status: ('A' for Active; 'I' for Inactive)
ROOT
HETATM    1  C1  UNL     1      25.878  10.111  47.162  1.00  0.00     0.179 C 
HETATM    2  N1  UNL     1      26.734  10.649  48.211  1.00  0.00    -0.285 N 
HETATM    3  C2  UNL     1      27.839  11.462  47.707  1.00  0.00     0.125 C 
HETATM    4  C3  UNL     1      28.606  10.959  46.780  1.00  0.00     0.006 C 
HETATM    5  P1  UNL     1      28.622   9.288  46.728  1.00  0.00    -0.021 P 
HETATM    6  C4  UNL     1      28.816   8.563  48.399  1.00  0.00     0.129 C 
HETATM    7  C5  UNL     1      28.422   7.170  48.655  1.00  0.00     0.052 C 
HETATM    8  C6  UNL     1      26.992   6.780  48.664  1.00  0.00     0.039 C 
HETATM    9  C7  UNL     1      27.206   5.325  48.957  1.00  0.00     0.089 C 
HETATM   10  N2  UNL     1      28.324   4.962  48.384  1.00  0.00    -0.295 NA
HETATM   11  C8  UNL     1      28.889   6.096  47.711  1.00  0.00     0.145 C 
HETATM   12  C9  UNL     1      30.345   6.125  47.606  1.00  0.00    -0.027 C 
HETATM   13  C10 UNL     1      31.048   4.925  47.684  1.00  0.00     0.026 C 
HETATM   14  C11 UNL     1      32.451   4.890  48.293  1.00  0.00     0.117 C 
HETATM   15  N3  UNL     1      33.168   6.018  48.673  1.00  0.00    -0.261 NA
HETATM   16  C12 UNL     1      32.519   7.340  48.534  1.00  0.00     0.056 C 
HETATM   17  C13 UNL     1      32.196   7.760  47.282  1.00  0.00     0.034 C 
HETATM   18  C14 UNL     1      30.746   7.547  47.399  1.00  0.00     0.141 C 
HETATM   19  N4  UNL     1      30.306   8.452  48.486  1.00  0.00    -0.368 N 
HETATM   20  C15 UNL     1      31.249   9.072  49.462  1.00  0.00     0.090 C 
HETATM   21  C16 UNL     1      32.038   8.044  49.780  1.00  0.00     0.048 C 
HETATM   22  C17 UNL     1      26.147   7.435  49.689  1.00  0.00     0.059 C 
HETATM   23  C18 UNL     1      26.093   8.905  49.564  1.00  0.00     0.112 C 
HETATM   24  N5  UNL     1      26.101  10.165  49.365  1.00  0.00    -0.190 NA
ENDROOT
TORSDOF 0
ENDMDL
MODEL 7
REMARK VINA RESULT:      -7.2      8.322     11.312
REMARK  0 active torsions:
REMARK  status: ('A' for Active; 'I' for Inactive)
ROOT
HETATM    1  C1  UNL     1      30.773  10.403  45.729  1.00  0.00     0.179 C 
HETATM    2  N1  UNL     1      31.897  10.517  46.647  1.00  0.00    -0.285 N 
HETATM    3  C2  UNL     1      33.202  10.468  45.988  1.00  0.00     0.125 C 
HETATM    4  C3  UNL     1      33.446   9.480  45.173  1.00  0.00     0.006 C 
HETATM    5  P1  UNL     1      32.525   8.113  45.449  1.00  0.00    -0.021 P 
HETATM    6  C4  UNL     1      32.475   7.680  47.229  1.00  0.00     0.129 C 
HETATM    7  C5  UNL     1      31.407   6.819  47.754  1.00  0.00     0.052 C 
HETATM    8  C6  UNL     1      30.014   7.316  47.847  1.00  0.00     0.039 C 
HETATM    9  C7  UNL     1      29.415   6.065  48.418  1.00  0.00     0.089 C 
HETATM   10  N2  UNL     1      30.069   5.047  47.921  1.00  0.00    -0.295 NA
HETATM   11  C8  UNL     1      31.086   5.536  47.036  1.00  0.00     0.145 C 
HETATM   12  C9  UNL     1      32.289   4.717  46.919  1.00  0.00    -0.027 C 
HETATM   13  C10 UNL     1      32.210   3.361  47.226  1.00  0.00     0.026 C 
HETATM   14  C11 UNL     1      33.416   2.633  47.823  1.00  0.00     0.117 C 
HETATM   15  N3  UNL     1      34.677   3.198  47.971  1.00  0.00    -0.261 NA
HETATM   16  C12 UNL     1      34.861   4.612  47.579  1.00  0.00     0.056 C 
HETATM   17  C13 UNL     1      34.684   4.937  46.272  1.00  0.00     0.034 C 
HETATM   18  C14 UNL     1      33.385   5.606  46.436  1.00  0.00     0.141 C 
HETATM   19  N4  UNL     1      33.651   6.759  47.327  1.00  0.00    -0.368 N 
HETATM   20  C15 UNL     1      34.884   6.880  48.157  1.00  0.00     0.090 C 
HETATM   21  C16 UNL     1      35.000   5.651  48.666  1.00  0.00     0.048 C 
HETATM   22  C17 UNL     1      29.800   8.487  48.729  1.00  0.00     0.059 C 
HETATM   23  C18 UNL     1      30.558   9.686  48.319  1.00  0.00     0.112 C 
HETATM   24  N5  UNL     1      31.241  10.668  47.877  1.00  0.00    -0.190 NA
ENDROOT
TORSDOF 0
ENDMDL
MODEL 8
REMARK VINA RESULT:      -7.1      2.183      4.542
REMARK  0 active torsions:
REMARK  status: ('A' for Active; 'I' for Inactive)
ROOT
HETATM    1  C1  UNL     1      19.738   3.196  48.416  1.00  0.00     0.179 C 
HETATM    2  N1  UNL     1      20.336   4.265  49.204  1.00  0.00    -0.285 N 
HETATM    3  C2  UNL     1      21.640   4.702  48.706  1.00  0.00     0.125 C 
HETATM    4  C3  UNL     1      22.556   3.798  48.492  1.00  0.00     0.006 C 
HETATM    5  P1  UNL     1      22.353   2.389  49.368  1.00  0.00    -0.021 P 
HETATM    6  C4  UNL     1      21.974   2.736  51.127  1.00  0.00     0.129 C 
HETATM    7  C5  UNL     1      21.335   1.712  51.965  1.00  0.00     0.052 C 
HETATM    8  C6  UNL     1      19.919   1.333  51.746  1.00  0.00     0.039 C 
HETATM    9  C7  UNL     1      19.838   0.304  52.834  1.00  0.00     0.089 C 
HETATM   10  N2  UNL     1      21.010  -0.270  52.928  1.00  0.00    -0.295 NA
HETATM   11  C8  UNL     1      21.891   0.314  51.958  1.00  0.00     0.145 C 
HETATM   12  C9  UNL     1      23.308   0.340  52.306  1.00  0.00    -0.027 C 
HETATM   13  C10 UNL     1      23.788  -0.578  53.237  1.00  0.00     0.026 C 
HETATM   14  C11 UNL     1      24.949  -0.206  54.162  1.00  0.00     0.117 C 
HETATM   15  N3  UNL     1      25.683   0.970  54.063  1.00  0.00    -0.261 NA
HETATM   16  C12 UNL     1      25.288   1.957  53.035  1.00  0.00     0.056 C 
HETATM   17  C13 UNL     1      25.386   1.588  51.730  1.00  0.00     0.034 C 
HETATM   18  C14 UNL     1      23.945   1.416  51.493  1.00  0.00     0.141 C 
HETATM   19  N4  UNL     1      23.352   2.755  51.712  1.00  0.00    -0.368 N 
HETATM   20  C15 UNL     1      24.064   3.856  52.424  1.00  0.00     0.090 C 
HETATM   21  C16 UNL     1      24.584   3.218  53.474  1.00  0.00     0.048 C 
HETATM   22  C17 UNL     1      18.923   2.414  51.929  1.00  0.00     0.059 C 
HETATM   23  C18 UNL     1      19.111   3.557  51.014  1.00  0.00     0.112 C 
HETATM   24  N5  UNL     1      19.349   4.487  50.174  1.00  0.00    -0.190 NA
ENDROOT
TORSDOF 0
ENDMDL
MODEL 9
REMARK VINA RESULT:      -7.1      2.185      4.637
REMARK  0 active torsions:
REMARK  status: ('A' for Active; 'I' for Inactive)
ROOT
HETATM    1  C1  UNL     1      20.974   2.809  51.251  1.00  0.00     0.179 C 
HETATM    2  N1  UNL     1      21.217   1.382  51.087  1.00  0.00    -0.285 N 
HETATM    3  C2  UNL     1      21.024   0.609  52.314  1.00  0.00     0.125 C 
HETATM    4  C3  UNL     1      21.638   1.002  53.396  1.00  0.00     0.006 C 
HETATM    5  P1  UNL     1      23.004   1.924  53.118  1.00  0.00    -0.021 P 
HETATM    6  C4  UNL     1      24.069   1.181  51.825  1.00  0.00     0.129 C 
HETATM    7  C5  UNL     1      25.059   2.004  51.115  1.00  0.00     0.052 C 
HETATM    8  C6  UNL     1      24.624   3.039  50.147  1.00  0.00     0.039 C 
HETATM    9  C7  UNL     1      25.994   3.519  49.772  1.00  0.00     0.089 C 
HETATM   10  N2  UNL     1      26.757   3.415  50.829  1.00  0.00    -0.295 NA
HETATM   11  C8  UNL     1      25.978   2.887  51.913  1.00  0.00     0.145 C 
HETATM   12  C9  UNL     1      26.701   2.091  52.899  1.00  0.00    -0.027 C 
HETATM   13  C10 UNL     1      28.074   2.281  53.040  1.00  0.00     0.026 C 
HETATM   14  C11 UNL     1      28.979   1.114  53.438  1.00  0.00     0.117 C 
HETATM   15  N3  UNL     1      28.517  -0.142  53.814  1.00  0.00    -0.261 NA
HETATM   16  C12 UNL     1      27.060  -0.392  53.776  1.00  0.00     0.056 C 
HETATM   17  C13 UNL     1      26.270   0.333  54.610  1.00  0.00     0.034 C 
HETATM   18  C14 UNL     1      25.703   1.219  53.582  1.00  0.00     0.141 C 
HETATM   19  N4  UNL     1      24.967   0.323  52.660  1.00  0.00    -0.368 N 
HETATM   20  C15 UNL     1      25.172  -1.154  52.622  1.00  0.00     0.090 C 
HETATM   21  C16 UNL     1      26.502  -1.253  52.668  1.00  0.00     0.048 C 
HETATM   22  C17 UNL     1      23.865   2.551  48.972  1.00  0.00     0.059 C 
HETATM   23  C18 UNL     1      22.604   1.866  49.321  1.00  0.00     0.112 C 
HETATM   24  N5  UNL     1      21.532   1.305  49.723  1.00  0.00    -0.190 NA
ENDROOT
TORSDOF 0
ENDMDL
