MODEL 1
REMARK VINA RESULT:      -8.3      0.000      0.000
REMARK  5 active torsions:
REMARK  status: ('A' for Active; 'I' for Inactive)
REMARK    1  A    between atoms: C2_2  and  C3_3 
REMARK    2  A    between atoms: C6_6  and  C7_7 
REMARK    3  A    between atoms: C7_7  and  N1_8 
REMARK    4  A    between atoms: N1_8  and  C8_9 
REMARK    5  A    between atoms: C19_23  and  N4_24 
ROOT
HETATM    1  N1  UNL     1      25.275   2.151  52.080  1.00  0.00    -0.392 N 
HETATM    2  H8  UNL     1      25.989   2.919  52.047  1.00  0.00     0.159 HD
ENDROOT
BRANCH   1   3
HETATM    3  C7  UNL     1      23.783   2.172  52.055  1.00  0.00     0.147 C 
BRANCH   3   4
HETATM    4  C6  UNL     1      23.371   1.035  52.864  1.00  0.00    -0.000 C 
HETATM    5  C5  UNL     1      22.260   0.261  52.812  1.00  0.00    -0.056 C 
HETATM    6  C4  UNL     1      21.291   0.610  51.773  1.00  0.00     0.021 C 
HETATM    7  C17 UNL     1      22.113  -0.799  53.836  1.00  0.00     0.067 C 
HETATM    8  C3  UNL     1      20.064   0.219  52.060  1.00  0.00    -0.008 C 
HETATM    9  C19 UNL     1      19.692  -0.635  53.168  1.00  0.00     0.062 C 
HETATM   10  C18 UNL     1      20.638  -1.095  53.980  1.00  0.00     0.010 C 
BRANCH   8  11
HETATM   11  C2  UNL     1      19.064   0.553  51.071  1.00  0.00     0.003 C 
HETATM   12  C1  UNL     1      19.202   1.103  49.887  1.00  0.00     0.012 C 
ENDBRANCH   8  11
BRANCH   9  13
HETATM   13  N4  UNL     1      18.461  -1.094  53.575  1.00  0.00    -0.271 NA
HETATM   14  C20 UNL     1      17.936  -2.248  53.546  1.00  0.00     0.149 C 
ENDBRANCH   9  13
ENDBRANCH   3   4
ENDBRANCH   1   3
BRANCH   1  15
HETATM   15  C8  UNL     1      25.718   0.773  52.171  1.00  0.00     0.134 C 
HETATM   16  C9  UNL     1      26.834  -0.000  52.161  1.00  0.00     0.140 C 
HETATM   17  N2  UNL     1      27.450   1.284  52.011  1.00  0.00    -0.219 NA
HETATM   18  N3  UNL     1      26.510  -1.430  52.303  1.00  0.00    -0.373 N 
HETATM   19  C10 UNL     1      27.908   1.994  53.033  1.00  0.00     0.253 C 
HETATM   20  O1  UNL     1      28.393   2.724  54.229  1.00  0.00    -0.345 OA
HETATM   21  C11 UNL     1      29.207   1.697  54.969  1.00  0.00     0.177 C 
HETATM   22  C12 UNL     1      28.413   0.474  54.573  1.00  0.00     0.001 C 
HETATM   23  C13 UNL     1      29.146  -0.421  53.863  1.00  0.00     0.027 C 
HETATM   24  C14 UNL     1      29.835  -1.406  53.119  1.00  0.00     0.001 C 
HETATM   25  C15 UNL     1      28.747  -2.177  52.915  1.00  0.00     0.014 C 
HETATM   26  C16 UNL     1      27.365  -2.027  53.343  1.00  0.00     0.126 C 
HETATM   27  H19 UNL     1      25.753  -1.690  51.630  1.00  0.00     0.161 HD
ENDBRANCH   1  15
TORSDOF 5
ENDMDL
MODEL 2
REMARK VINA RESULT:      -8.1      4.973      8.851
REMARK  5 active torsions:
REMARK  status: ('A' for Active; 'I' for Inactive)
REMARK    1  A    between atoms: C2_2  and  C3_3 
REMARK    2  A    between atoms: C6_6  and  C7_7 
REMARK    3  A    between atoms: C7_7  and  N1_8 
REMARK    4  A    between atoms: N1_8  and  C8_9 
REMARK    5  A    between atoms: C19_23  and  N4_24 
ROOT
HETATM    1  N1  UNL     1      26.390   3.596  51.053  1.00  0.00    -0.392 N 
HETATM    2  H8  UNL     1      26.180   4.363  51.739  1.00  0.00     0.159 HD
ENDROOT
BRANCH   1   3
HETATM    3  C7  UNL     1      26.419   3.571  49.561  1.00  0.00     0.147 C 
BRANCH   3   4
HETATM    4  C6  UNL     1      26.313   4.964  49.154  1.00  0.00    -0.000 C 
HETATM    5  C5  UNL     1      27.215   5.793  48.576  1.00  0.00    -0.056 C 
HETATM    6  C4  UNL     1      28.530   5.211  48.304  1.00  0.00     0.021 C 
HETATM    7  C17 UNL     1      26.805   7.197  48.340  1.00  0.00     0.067 C 
HETATM    8  C3  UNL     1      29.490   6.114  48.241  1.00  0.00    -0.008 C 
HETATM    9  C19 UNL     1      29.295   7.548  48.237  1.00  0.00     0.062 C 
HETATM   10  C18 UNL     1      28.060   8.036  48.285  1.00  0.00     0.010 C 
BRANCH   8  11
HETATM   11  C2  UNL     1      30.814   5.590  47.990  1.00  0.00     0.003 C 
HETATM   12  C1  UNL     1      31.858   5.526  48.784  1.00  0.00     0.012 C 
ENDBRANCH   8  11
BRANCH   9  13
HETATM   13  N4  UNL     1      30.205   8.579  48.190  1.00  0.00    -0.271 NA
HETATM   14  C20 UNL     1      30.850   9.182  49.100  1.00  0.00     0.149 C 
ENDBRANCH   9  13
ENDBRANCH   3   4
ENDBRANCH   1   3
BRANCH   1  15
HETATM   15  C8  UNL     1      26.722   2.273  51.547  1.00  0.00     0.134 C 
HETATM   16  C9  UNL     1      26.492   1.423  52.581  1.00  0.00     0.140 C 
HETATM   17  N2  UNL     1      25.684   2.524  53.013  1.00  0.00    -0.219 NA
HETATM   18  N3  UNL     1      27.218   0.152  52.415  1.00  0.00    -0.373 N 
HETATM   19  C10 UNL     1      24.387   2.619  52.756  1.00  0.00     0.253 C 
HETATM   20  O1  UNL     1      22.942   2.648  52.425  1.00  0.00    -0.345 OA
HETATM   21  C11 UNL     1      22.453   1.285  52.835  1.00  0.00     0.177 C 
HETATM   22  C12 UNL     1      23.717   0.512  52.541  1.00  0.00     0.001 C 
HETATM   23  C13 UNL     1      24.245  -0.072  53.646  1.00  0.00     0.027 C 
HETATM   24  C14 UNL     1      24.863  -0.713  54.744  1.00  0.00     0.001 C 
HETATM   25  C15 UNL     1      25.938  -1.129  54.045  1.00  0.00     0.014 C 
HETATM   26  C16 UNL     1      26.296  -0.973  52.643  1.00  0.00     0.126 C 
HETATM   27  H19 UNL     1      28.218   0.344  52.178  1.00  0.00     0.161 HD
ENDBRANCH   1  15
TORSDOF 5
ENDMDL
MODEL 3
REMARK VINA RESULT:      -7.8      3.595      6.267
REMARK  5 active torsions:
REMARK  status: ('A' for Active; 'I' for Inactive)
REMARK    1  A    between atoms: C2_2  and  C3_3 
REMARK    2  A    between atoms: C6_6  and  C7_7 
REMARK    3  A    between atoms: C7_7  and  N1_8 
REMARK    4  A    between atoms: N1_8  and  C8_9 
REMARK    5  A    between atoms: C19_23  and  N4_24 
ROOT
HETATM    1  N1  UNL     1      25.270   2.245  52.188  1.00  0.00    -0.392 N 
HETATM    2  H8  UNL     1      25.700   2.933  52.854  1.00  0.00     0.159 HD
ENDROOT
BRANCH   1   3
HETATM    3  C7  UNL     1      24.234   2.398  51.125  1.00  0.00     0.147 C 
BRANCH   3   4
HETATM    4  C6  UNL     1      23.744   3.761  51.264  1.00  0.00    -0.000 C 
HETATM    5  C5  UNL     1      24.134   4.913  50.665  1.00  0.00    -0.056 C 
HETATM    6  C4  UNL     1      25.236   4.791  49.711  1.00  0.00     0.021 C 
HETATM    7  C17 UNL     1      23.458   6.165  51.079  1.00  0.00     0.067 C 
HETATM    8  C3  UNL     1      25.908   5.916  49.553  1.00  0.00    -0.008 C 
HETATM    9  C19 UNL     1      25.523   7.205  50.087  1.00  0.00     0.062 C 
HETATM   10  C18 UNL     1      24.399   7.310  50.787  1.00  0.00     0.010 C 
BRANCH   8  11
HETATM   11  C2  UNL     1      27.019   5.846  48.631  1.00  0.00     0.003 C 
HETATM   12  C1  UNL     1      27.973   4.949  48.530  1.00  0.00     0.012 C 
ENDBRANCH   8  11
BRANCH   9  13
HETATM   13  N4  UNL     1      26.140   8.432  50.003  1.00  0.00    -0.271 NA
HETATM   14  C20 UNL     1      25.975   9.412  49.215  1.00  0.00     0.149 C 
ENDBRANCH   9  13
ENDBRANCH   3   4
ENDBRANCH   1   3
BRANCH   1  15
HETATM   15  C8  UNL     1      25.689   0.857  52.232  1.00  0.00     0.134 C 
HETATM   16  C9  UNL     1      26.792   0.066  52.189  1.00  0.00     0.140 C 
HETATM   17  N2  UNL     1      27.429   1.344  52.075  1.00  0.00    -0.219 NA
HETATM   18  N3  UNL     1      26.443  -1.362  52.287  1.00  0.00    -0.373 N 
HETATM   19  C10 UNL     1      27.907   2.012  53.115  1.00  0.00     0.253 C 
HETATM   20  O1  UNL     1      28.414   2.694  54.329  1.00  0.00    -0.345 OA
HETATM   21  C11 UNL     1      29.215   1.630  55.030  1.00  0.00     0.177 C 
HETATM   22  C12 UNL     1      28.397   0.435  54.601  1.00  0.00     0.001 C 
HETATM   23  C13 UNL     1      29.108  -0.450  53.857  1.00  0.00     0.027 C 
HETATM   24  C14 UNL     1      29.774  -1.422  53.076  1.00  0.00     0.001 C 
HETATM   25  C15 UNL     1      28.672  -2.167  52.856  1.00  0.00     0.014 C 
HETATM   26  C16 UNL     1      27.295  -2.006  53.300  1.00  0.00     0.126 C 
HETATM   27  H19 UNL     1      25.677  -1.587  51.612  1.00  0.00     0.161 HD
ENDBRANCH   1  15
TORSDOF 5
ENDMDL
MODEL 4
REMARK VINA RESULT:      -7.8      4.607      8.498
REMARK  5 active torsions:
REMARK  status: ('A' for Active; 'I' for Inactive)
REMARK    1  A    between atoms: C2_2  and  C3_3 
REMARK    2  A    between atoms: C6_6  and  C7_7 
REMARK    3  A    between atoms: C7_7  and  N1_8 
REMARK    4  A    between atoms: N1_8  and  C8_9 
REMARK    5  A    between atoms: C19_23  and  N4_24 
ROOT
HETATM    1  N1  UNL     1      26.223   2.853  52.048  1.00  0.00    -0.392 N 
HETATM    2  H8  UNL     1      26.360   3.638  52.731  1.00  0.00     0.159 HD
ENDROOT
BRANCH   1   3
HETATM    3  C7  UNL     1      26.516   2.736  50.589  1.00  0.00     0.147 C 
BRANCH   3   4
HETATM    4  C6  UNL     1      25.822   3.855  49.970  1.00  0.00    -0.000 C 
HETATM    5  C5  UNL     1      26.257   4.802  49.103  1.00  0.00    -0.056 C 
HETATM    6  C4  UNL     1      27.661   4.703  48.706  1.00  0.00     0.021 C 
HETATM    7  C17 UNL     1      25.298   5.858  48.702  1.00  0.00     0.067 C 
HETATM    8  C3  UNL     1      28.169   5.857  48.315  1.00  0.00    -0.008 C 
HETATM    9  C19 UNL     1      27.416   7.073  48.095  1.00  0.00     0.062 C 
HETATM   10  C18 UNL     1      26.100   7.066  48.277  1.00  0.00     0.010 C 
BRANCH   8  11
HETATM   11  C2  UNL     1      29.561   5.818  47.927  1.00  0.00     0.003 C 
HETATM   12  C1  UNL     1      30.643   5.875  48.669  1.00  0.00     0.012 C 
ENDBRANCH   8  11
BRANCH   9  13
HETATM   13  N4  UNL     1      27.829   8.327  47.706  1.00  0.00    -0.271 NA
HETATM   14  C20 UNL     1      27.582   9.017  46.671  1.00  0.00     0.149 C 
ENDBRANCH   9  13
ENDBRANCH   3   4
ENDBRANCH   1   3
BRANCH   1  15
HETATM   15  C8  UNL     1      25.641   1.606  52.506  1.00  0.00     0.134 C 
HETATM   16  C9  UNL     1      24.618   1.104  53.246  1.00  0.00     0.140 C 
HETATM   17  N2  UNL     1      24.330   2.501  53.383  1.00  0.00    -0.219 NA
HETATM   18  N3  UNL     1      24.649  -0.367  53.294  1.00  0.00    -0.373 N 
HETATM   19  C10 UNL     1      23.487   3.150  52.592  1.00  0.00     0.253 C 
HETATM   20  O1  UNL     1      22.531   3.801  51.665  1.00  0.00    -0.345 OA
HETATM   21  C11 UNL     1      21.335   2.886  51.684  1.00  0.00     0.177 C 
HETATM   22  C12 UNL     1      22.070   1.585  51.902  1.00  0.00     0.001 C 
HETATM   23  C13 UNL     1      21.726   0.975  53.065  1.00  0.00     0.027 C 
HETATM   24  C14 UNL     1      21.427   0.274  54.255  1.00  0.00     0.001 C 
HETATM   25  C15 UNL     1      22.359  -0.681  54.063  1.00  0.00     0.014 C 
HETATM   26  C16 UNL     1      23.311  -0.896  52.984  1.00  0.00     0.126 C 
HETATM   27  H19 UNL     1      25.611  -0.693  53.541  1.00  0.00     0.161 HD
ENDBRANCH   1  15
TORSDOF 5
ENDMDL
MODEL 5
REMARK VINA RESULT:      -7.8      3.459      5.440
REMARK  5 active torsions:
REMARK  status: ('A' for Active; 'I' for Inactive)
REMARK    1  A    between atoms: C2_2  and  C3_3 
REMARK    2  A    between atoms: C6_6  and  C7_7 
REMARK    3  A    between atoms: C7_7  and  N1_8 
REMARK    4  A    between atoms: N1_8  and  C8_9 
REMARK    5  A    between atoms: C19_23  and  N4_24 
ROOT
HETATM    1  N1  UNL     1      26.431   3.633  51.066  1.00  0.00    -0.392 N 
HETATM    2  H8  UNL     1      26.262   4.401  51.761  1.00  0.00     0.159 HD
ENDROOT
BRANCH   1   3
HETATM    3  C7  UNL     1      26.451   3.624  49.574  1.00  0.00     0.147 C 
BRANCH   3   4
HETATM    4  C6  UNL     1      25.440   4.591  49.173  1.00  0.00    -0.000 C 
HETATM    5  C5  UNL     1      24.126   4.434  48.881  1.00  0.00    -0.056 C 
HETATM    6  C4  UNL     1      23.611   3.069  48.979  1.00  0.00     0.021 C 
HETATM    7  C17 UNL     1      23.374   5.632  48.440  1.00  0.00     0.067 C 
HETATM    8  C3  UNL     1      22.545   2.864  48.229  1.00  0.00    -0.008 C 
HETATM    9  C19 UNL     1      21.807   3.890  47.521  1.00  0.00     0.062 C 
HETATM   10  C18 UNL     1      22.196   5.156  47.622  1.00  0.00     0.010 C 
BRANCH   8  11
HETATM   11  C2  UNL     1      22.005   1.525  48.276  1.00  0.00     0.003 C 
HETATM   12  C1  UNL     1      21.358   0.912  49.241  1.00  0.00     0.012 C 
ENDBRANCH   8  11
BRANCH   9  13
HETATM   13  N4  UNL     1      20.703   3.801  46.706  1.00  0.00    -0.271 NA
HETATM   14  C20 UNL     1      19.477   4.051  46.910  1.00  0.00     0.149 C 
ENDBRANCH   9  13
ENDBRANCH   3   4
ENDBRANCH   1   3
BRANCH   1  15
HETATM   15  C8  UNL     1      26.699   2.289  51.542  1.00  0.00     0.134 C 
HETATM   16  C9  UNL     1      26.418   1.433  52.558  1.00  0.00     0.140 C 
HETATM   17  N2  UNL     1      25.651   2.560  52.997  1.00  0.00    -0.219 NA
HETATM   18  N3  UNL     1      27.093   0.136  52.382  1.00  0.00    -0.373 N 
HETATM   19  C10 UNL     1      24.363   2.714  52.723  1.00  0.00     0.253 C 
HETATM   20  O1  UNL     1      22.926   2.809  52.372  1.00  0.00    -0.345 OA
HETATM   21  C11 UNL     1      22.374   1.461  52.753  1.00  0.00     0.177 C 
HETATM   22  C12 UNL     1      23.609   0.640  52.463  1.00  0.00     0.001 C 
HETATM   23  C13 UNL     1      24.096   0.017  53.566  1.00  0.00     0.027 C 
HETATM   24  C14 UNL     1      24.670  -0.667  54.663  1.00  0.00     0.001 C 
HETATM   25  C15 UNL     1      25.737  -1.117  53.972  1.00  0.00     0.014 C 
HETATM   26  C16 UNL     1      26.122  -0.953  52.578  1.00  0.00     0.126 C 
HETATM   27  H19 UNL     1      28.103   0.289  52.163  1.00  0.00     0.161 HD
ENDBRANCH   1  15
TORSDOF 5
ENDMDL
MODEL 6
REMARK VINA RESULT:      -7.8      5.096      9.066
REMARK  5 active torsions:
REMARK  status: ('A' for Active; 'I' for Inactive)
REMARK    1  A    between atoms: C2_2  and  C3_3 
REMARK    2  A    between atoms: C6_6  and  C7_7 
REMARK    3  A    between atoms: C7_7  and  N1_8 
REMARK    4  A    between atoms: N1_8  and  C8_9 
REMARK    5  A    between atoms: C19_23  and  N4_24 
ROOT
HETATM    1  N1  UNL     1      26.781   3.613  50.656  1.00  0.00    -0.392 N 
HETATM    2  H8  UNL     1      27.519   3.820  51.373  1.00  0.00     0.159 HD
ENDROOT
BRANCH   1   3
HETATM    3  C7  UNL     1      26.751   3.788  49.175  1.00  0.00     0.147 C 
BRANCH   3   4
HETATM    4  C6  UNL     1      26.765   5.228  48.961  1.00  0.00    -0.000 C 
HETATM    5  C5  UNL     1      27.738   6.048  48.496  1.00  0.00    -0.056 C 
HETATM    6  C4  UNL     1      29.000   5.400  48.141  1.00  0.00     0.021 C 
HETATM    7  C17 UNL     1      27.449   7.501  48.455  1.00  0.00     0.067 C 
HETATM    8  C3  UNL     1      30.034   6.219  48.196  1.00  0.00    -0.008 C 
HETATM    9  C19 UNL     1      29.960   7.652  48.387  1.00  0.00     0.062 C 
HETATM   10  C18 UNL     1      28.771   8.231  48.508  1.00  0.00     0.010 C 
BRANCH   8  11
HETATM   11  C2  UNL     1      31.310   5.623  47.869  1.00  0.00     0.003 C 
HETATM   12  C1  UNL     1      31.587   4.421  47.418  1.00  0.00     0.012 C 
ENDBRANCH   8  11
BRANCH   9  13
HETATM   13  N4  UNL     1      30.955   8.598  48.476  1.00  0.00    -0.271 NA
HETATM   14  C20 UNL     1      31.114   9.716  47.899  1.00  0.00     0.149 C 
ENDBRANCH   9  13
ENDBRANCH   3   4
ENDBRANCH   1   3
BRANCH   1  15
HETATM   15  C8  UNL     1      25.512   3.054  51.084  1.00  0.00     0.134 C 
HETATM   16  C9  UNL     1      24.932   1.898  51.497  1.00  0.00     0.140 C 
HETATM   17  N2  UNL     1      26.270   1.423  51.312  1.00  0.00    -0.219 NA
HETATM   18  N3  UNL     1      23.497   2.076  51.775  1.00  0.00    -0.373 N 
HETATM   19  C10 UNL     1      27.163   1.366  52.290  1.00  0.00     0.253 C 
HETATM   20  O1  UNL     1      28.100   1.335  53.438  1.00  0.00    -0.345 OA
HETATM   21  C11 UNL     1      27.313   0.651  54.524  1.00  0.00     0.177 C 
HETATM   22  C12 UNL     1      25.941   1.146  54.133  1.00  0.00     0.001 C 
HETATM   23  C13 UNL     1      25.095   0.140  53.799  1.00  0.00     0.027 C 
HETATM   24  C14 UNL     1      24.149  -0.846  53.434  1.00  0.00     0.001 C 
HETATM   25  C15 UNL     1      23.196   0.037  53.074  1.00  0.00     0.014 C 
HETATM   26  C16 UNL     1      23.175   1.492  53.087  1.00  0.00     0.126 C 
HETATM   27  H19 UNL     1      23.040   2.571  50.976  1.00  0.00     0.161 HD
ENDBRANCH   1  15
TORSDOF 5
ENDMDL
MODEL 7
REMARK VINA RESULT:      -7.7      6.945      8.660
REMARK  5 active torsions:
REMARK  status: ('A' for Active; 'I' for Inactive)
REMARK    1  A    between atoms: C2_2  and  C3_3 
REMARK    2  A    between atoms: C6_6  and  C7_7 
REMARK    3  A    between atoms: C7_7  and  N1_8 
REMARK    4  A    between atoms: N1_8  and  C8_9 
REMARK    5  A    between atoms: C19_23  and  N4_24 
ROOT
HETATM    1  N1  UNL     1      30.214   6.599  48.359  1.00  0.00    -0.392 N 
HETATM    2  H8  UNL     1      30.823   7.281  48.875  1.00  0.00     0.159 HD
ENDROOT
BRANCH   1   3
HETATM    3  C7  UNL     1      28.770   6.633  47.986  1.00  0.00     0.147 C 
BRANCH   3   4
HETATM    4  C6  UNL     1      28.235   5.350  48.417  1.00  0.00    -0.000 C 
HETATM    5  C5  UNL     1      27.008   5.007  48.878  1.00  0.00    -0.056 C 
HETATM    6  C4  UNL     1      26.036   6.097  48.968  1.00  0.00     0.021 C 
HETATM    7  C17 UNL     1      26.799   3.601  49.297  1.00  0.00     0.067 C 
HETATM    8  C3  UNL     1      25.087   5.870  49.858  1.00  0.00    -0.008 C 
HETATM    9  C19 UNL     1      24.870   4.619  50.553  1.00  0.00     0.062 C 
HETATM   10  C18 UNL     1      25.662   3.584  50.292  1.00  0.00     0.010 C 
BRANCH   8  11
HETATM   11  C2  UNL     1      24.108   6.924  49.998  1.00  0.00     0.003 C 
HETATM   12  C1  UNL     1      24.267   8.177  50.360  1.00  0.00     0.012 C 
ENDBRANCH   8  11
BRANCH   9  13
HETATM   13  N4  UNL     1      23.937   4.268  51.501  1.00  0.00    -0.271 NA
HETATM   14  C20 UNL     1      24.021   3.564  52.552  1.00  0.00     0.149 C 
ENDBRANCH   9  13
ENDBRANCH   3   4
ENDBRANCH   1   3
BRANCH   1  15
HETATM   15  C8  UNL     1      30.789   5.356  47.879  1.00  0.00     0.134 C 
HETATM   16  C9  UNL     1      31.797   4.862  47.114  1.00  0.00     0.140 C 
HETATM   17  N2  UNL     1      32.079   6.260  46.981  1.00  0.00    -0.219 NA
HETATM   18  N3  UNL     1      31.768   3.391  47.057  1.00  0.00    -0.373 N 
HETATM   19  C10 UNL     1      32.937   6.906  47.758  1.00  0.00     0.253 C 
HETATM   20  O1  UNL     1      33.911   7.552  48.670  1.00  0.00    -0.345 OA
HETATM   21  C11 UNL     1      35.108   6.641  48.619  1.00  0.00     0.177 C 
HETATM   22  C12 UNL     1      34.372   5.339  48.408  1.00  0.00     0.001 C 
HETATM   23  C13 UNL     1      34.693   4.738  47.234  1.00  0.00     0.027 C 
HETATM   24  C14 UNL     1      34.968   4.046  46.032  1.00  0.00     0.001 C 
HETATM   25  C15 UNL     1      34.043   3.087  46.237  1.00  0.00     0.014 C 
HETATM   26  C16 UNL     1      33.114   2.863  47.335  1.00  0.00     0.126 C 
HETATM   27  H19 UNL     1      30.802   3.064  46.828  1.00  0.00     0.161 HD
ENDBRANCH   1  15
TORSDOF 5
ENDMDL
MODEL 8
REMARK VINA RESULT:      -7.6      7.200      9.269
REMARK  5 active torsions:
REMARK  status: ('A' for Active; 'I' for Inactive)
REMARK    1  A    between atoms: C2_2  and  C3_3 
REMARK    2  A    between atoms: C6_6  and  C7_7 
REMARK    3  A    between atoms: C7_7  and  N1_8 
REMARK    4  A    between atoms: N1_8  and  C8_9 
REMARK    5  A    between atoms: C19_23  and  N4_24 
ROOT
HETATM    1  N1  UNL     1      29.416   7.393  49.087  1.00  0.00    -0.392 N 
HETATM    2  H8  UNL     1      29.325   7.268  50.125  1.00  0.00     0.159 HD
ENDROOT
BRANCH   1   3
HETATM    3  C7  UNL     1      28.598   6.890  47.945  1.00  0.00     0.147 C 
BRANCH   3   4
HETATM    4  C6  UNL     1      28.138   5.572  48.356  1.00  0.00    -0.000 C 
HETATM    5  C5  UNL     1      26.951   5.163  48.865  1.00  0.00    -0.056 C 
HETATM    6  C4  UNL     1      25.941   6.207  49.040  1.00  0.00     0.021 C 
HETATM    7  C17 UNL     1      26.821   3.736  49.244  1.00  0.00     0.067 C 
HETATM    8  C3  UNL     1      25.049   5.911  49.966  1.00  0.00    -0.008 C 
HETATM    9  C19 UNL     1      24.918   4.629  50.627  1.00  0.00     0.062 C 
HETATM   10  C18 UNL     1      25.737   3.639  50.291  1.00  0.00     0.010 C 
BRANCH   8  11
HETATM   11  C2  UNL     1      24.036   6.917  50.190  1.00  0.00     0.003 C 
HETATM   12  C1  UNL     1      24.143   8.226  50.225  1.00  0.00     0.012 C 
ENDBRANCH   8  11
BRANCH   9  13
HETATM   13  N4  UNL     1      24.049   4.208  51.607  1.00  0.00    -0.271 NA
HETATM   14  C20 UNL     1      23.128   3.336  51.605  1.00  0.00     0.149 C 
ENDBRANCH   9  13
ENDBRANCH   3   4
ENDBRANCH   1   3
BRANCH   1  15
HETATM   15  C8  UNL     1      30.514   8.181  48.560  1.00  0.00     0.134 C 
HETATM   16  C9  UNL     1      31.864   8.322  48.624  1.00  0.00     0.140 C 
HETATM   17  N2  UNL     1      31.710   7.227  49.534  1.00  0.00    -0.219 NA
HETATM   18  N3  UNL     1      32.340   9.416  47.761  1.00  0.00    -0.373 N 
HETATM   19  C10 UNL     1      31.825   5.957  49.169  1.00  0.00     0.253 C 
HETATM   20  O1  UNL     1      31.968   4.565  48.679  1.00  0.00    -0.345 OA
HETATM   21  C11 UNL     1      33.259   4.590  47.905  1.00  0.00     0.177 C 
HETATM   22  C12 UNL     1      33.179   6.015  47.409  1.00  0.00     0.001 C 
HETATM   23  C13 UNL     1      34.202   6.785  47.859  1.00  0.00     0.027 C 
HETATM   24  C14 UNL     1      35.231   7.658  48.281  1.00  0.00     0.001 C 
HETATM   25  C15 UNL     1      34.685   8.758  47.723  1.00  0.00     0.014 C 
HETATM   26  C16 UNL     1      33.469   8.942  46.945  1.00  0.00     0.126 C 
HETATM   27  H19 UNL     1      31.769  10.275  47.931  1.00  0.00     0.161 HD
ENDBRANCH   1  15
TORSDOF 5
ENDMDL
MODEL 9
REMARK VINA RESULT:      -7.4      2.728      5.188
REMARK  5 active torsions:
REMARK  status: ('A' for Active; 'I' for Inactive)
REMARK    1  A    between atoms: C2_2  and  C3_3 
REMARK    2  A    between atoms: C6_6  and  C7_7 
REMARK    3  A    between atoms: C7_7  and  N1_8 
REMARK    4  A    between atoms: N1_8  and  C8_9 
REMARK    5  A    between atoms: C19_23  and  N4_24 
ROOT
HETATM    1  N1  UNL     1      20.856   0.249  53.263  1.00  0.00    -0.392 N 
HETATM    2  H8  UNL     1      20.598   1.217  52.952  1.00  0.00     0.159 HD
ENDROOT
BRANCH   1   3
HETATM    3  C7  UNL     1      20.028  -0.940  53.620  1.00  0.00     0.147 C 
BRANCH   3   4
HETATM    4  C6  UNL     1      18.677  -0.605  53.193  1.00  0.00    -0.000 C 
HETATM    5  C5  UNL     1      17.537  -1.337  53.194  1.00  0.00    -0.056 C 
HETATM    6  C4  UNL     1      17.658  -2.702  53.706  1.00  0.00     0.021 C 
HETATM    7  C17 UNL     1      16.319  -0.712  52.626  1.00  0.00     0.067 C 
HETATM    8  C3  UNL     1      16.731  -3.514  53.235  1.00  0.00    -0.008 C 
HETATM    9  C19 UNL     1      15.581  -3.111  52.452  1.00  0.00     0.062 C 
HETATM   10  C18 UNL     1      15.402  -1.824  52.175  1.00  0.00     0.010 C 
BRANCH   8  11
HETATM   11  C2  UNL     1      16.815  -4.880  53.698  1.00  0.00     0.003 C 
HETATM   12  C1  UNL     1      15.937  -5.600  54.359  1.00  0.00     0.012 C 
ENDBRANCH   8  11
BRANCH   9  13
HETATM   13  N4  UNL     1      14.566  -3.856  51.898  1.00  0.00    -0.271 NA
HETATM   14  C20 UNL     1      14.444  -4.411  50.764  1.00  0.00     0.149 C 
ENDBRANCH   9  13
ENDBRANCH   3   4
ENDBRANCH   1   3
BRANCH   1  15
HETATM   15  C8  UNL     1      22.256  -0.100  53.410  1.00  0.00     0.134 C 
HETATM   16  C9  UNL     1      23.475   0.077  52.836  1.00  0.00     0.140 C 
HETATM   17  N2  UNL     1      22.683   0.849  51.925  1.00  0.00    -0.219 NA
HETATM   18  N3  UNL     1      24.535  -0.628  53.576  1.00  0.00    -0.373 N 
HETATM   19  C10 UNL     1      22.510   2.158  52.043  1.00  0.00     0.253 C 
HETATM   20  O1  UNL     1      22.366   3.620  52.247  1.00  0.00    -0.345 OA
HETATM   21  C11 UNL     1      23.781   4.095  52.442  1.00  0.00     0.177 C 
HETATM   22  C12 UNL     1      24.328   2.857  53.112  1.00  0.00     0.001 C 
HETATM   23  C13 UNL     1      25.323   2.270  52.400  1.00  0.00     0.027 C 
HETATM   24  C14 UNL     1      26.365   1.594  51.724  1.00  0.00     0.001 C 
HETATM   25  C15 UNL     1      26.418   0.565  52.594  1.00  0.00     0.014 C 
HETATM   26  C16 UNL     1      25.664   0.288  53.807  1.00  0.00     0.126 C 
HETATM   27  H19 UNL     1      24.242  -1.614  53.762  1.00  0.00     0.161 HD
ENDBRANCH   1  15
TORSDOF 5
ENDMDL
