MODEL 1
REMARK VINA RESULT:     -10.4      0.000      0.000
REMARK  1 active torsions:
REMARK  status: ('A' for Active; 'I' for Inactive)
REMARK    1  A    between atoms: C6_7  and  C7_8 
ROOT
HETATM    1  C7  UNL     1      25.651   0.145  52.778  1.00  0.00     0.065 C 
HETATM    2  N1  UNL     1      24.713   0.073  53.597  1.00  0.00    -0.180 NA
HETATM    3  N2  UNL     1      23.534   0.767  53.346  1.00  0.00    -0.292 N 
HETATM    4  C8  UNL     1      22.241   0.386  53.888  1.00  0.00     0.175 C 
HETATM    5  C9  UNL     1      21.013   0.650  53.202  1.00  0.00     0.027 C 
HETATM    6  C10 UNL     1      19.769   0.758  52.576  1.00  0.00     0.066 C 
HETATM    7  C11 UNL     1      18.983  -0.408  52.800  1.00  0.00    -0.008 A 
HETATM    8  C12 UNL     1      18.983  -1.612  53.336  1.00  0.00     0.014 A 
HETATM    9  C13 UNL     1      18.138  -2.641  53.563  1.00  0.00     0.001 A 
HETATM   10  C14 UNL     1      16.829  -2.310  53.059  1.00  0.00     0.000 A 
HETATM   11  C15 UNL     1      16.680  -1.055  52.459  1.00  0.00     0.001 A 
HETATM   12  C16 UNL     1      17.691  -0.068  52.294  1.00  0.00     0.014 A 
HETATM   13  N3  UNL     1      19.675   1.809  51.724  1.00  0.00    -0.236 NA
HETATM   14  C17 UNL     1      18.995   2.276  50.750  1.00  0.00     0.259 C 
HETATM   15  O2  UNL     1      19.528   3.578  50.271  1.00  0.00    -0.304 OA
HETATM   16  C18 UNL     1      20.818   3.722  50.984  1.00  0.00     0.076 A 
HETATM   17  C19 UNL     1      21.570   4.527  51.798  1.00  0.00     0.038 A 
HETATM   18  C20 UNL     1      22.701   3.944  52.212  1.00  0.00     0.012 A 
HETATM   19  C21 UNL     1      23.227   2.726  51.957  1.00  0.00    -0.033 A 
HETATM   20  C22 UNL     1      22.655   1.809  51.153  1.00  0.00     0.012 A 
HETATM   21  C23 UNL     1      21.479   2.465  50.763  1.00  0.00     0.038 A 
HETATM   22  C24 UNL     1      24.213   1.875  52.525  1.00  0.00     0.143 C 
HETATM   23  C25 UNL     1      25.119   1.056  51.678  1.00  0.00     0.093 C 
ENDROOT
BRANCH   1  24
HETATM   24  C6  UNL     1      26.925  -0.563  53.014  1.00  0.00    -0.003 A 
HETATM   25  C2  UNL     1      28.157   0.167  53.456  1.00  0.00     0.158 A 
HETATM   26  C1  UNL     1      28.023   0.440  54.970  1.00  0.00     0.045 C 
HETATM   27  O1  UNL     1      29.272  -0.713  53.418  1.00  0.00    -0.353 OA
HETATM   28  C3  UNL     1      29.143  -2.054  53.155  1.00  0.00     0.135 A 
HETATM   29  C4  UNL     1      28.043  -2.788  52.794  1.00  0.00     0.025 A 
HETATM   30  C5  UNL     1      26.919  -1.811  52.753  1.00  0.00     0.013 A 
ENDBRANCH   1  24
TORSDOF 1
ENDMDL
MODEL 2
REMARK VINA RESULT:     -10.3      5.043      8.147
REMARK  1 active torsions:
REMARK  status: ('A' for Active; 'I' for Inactive)
REMARK    1  A    between atoms: C6_7  and  C7_8 
ROOT
HETATM    1  C7  UNL     1      26.502   2.260  52.006  1.00  0.00     0.065 C 
HETATM    2  N1  UNL     1      27.079   2.633  50.964  1.00  0.00    -0.180 NA
HETATM    3  N2  UNL     1      26.400   3.449  50.064  1.00  0.00    -0.292 N 
HETATM    4  C8  UNL     1      27.061   4.349  49.134  1.00  0.00     0.175 C 
HETATM    5  C9  UNL     1      26.459   5.569  48.690  1.00  0.00     0.027 C 
HETATM    6  C10 UNL     1      26.019   6.828  48.275  1.00  0.00     0.066 C 
HETATM    7  C11 UNL     1      27.097   7.758  48.238  1.00  0.00    -0.008 A 
HETATM    8  C12 UNL     1      28.378   7.923  48.501  1.00  0.00     0.014 A 
HETATM    9  C13 UNL     1      29.350   8.849  48.359  1.00  0.00     0.001 A 
HETATM   10  C14 UNL     1      28.809  10.022  47.719  1.00  0.00     0.000 A 
HETATM   11  C15 UNL     1      27.451   9.989  47.381  1.00  0.00     0.001 A 
HETATM   12  C16 UNL     1      26.547   8.915  47.605  1.00  0.00     0.014 A 
HETATM   13  N3  UNL     1      24.669   6.947  48.228  1.00  0.00    -0.236 NA
HETATM   14  C17 UNL     1      23.720   7.800  48.193  1.00  0.00     0.259 C 
HETATM   15  O2  UNL     1      22.385   7.148  48.169  1.00  0.00    -0.304 OA
HETATM   16  C18 UNL     1      22.678   5.720  48.432  1.00  0.00     0.076 A 
HETATM   17  C19 UNL     1      22.519   4.438  47.979  1.00  0.00     0.038 A 
HETATM   18  C20 UNL     1      23.209   3.541  48.693  1.00  0.00     0.012 A 
HETATM   19  C21 UNL     1      24.009   3.678  49.774  1.00  0.00    -0.033 A 
HETATM   20  C22 UNL     1      24.257   4.852  50.385  1.00  0.00     0.012 A 
HETATM   21  C23 UNL     1      23.525   5.747  49.592  1.00  0.00     0.038 A 
HETATM   22  C24 UNL     1      25.007   2.916  50.437  1.00  0.00     0.143 C 
HETATM   23  C25 UNL     1      25.121   2.899  51.919  1.00  0.00     0.093 C 
ENDROOT
BRANCH   1  24
HETATM   24  C6  UNL     1      27.180   1.381  52.979  1.00  0.00    -0.003 A 
HETATM   25  C2  UNL     1      26.523   0.142  53.506  1.00  0.00     0.158 A 
HETATM   26  C1  UNL     1      26.648  -0.952  52.423  1.00  0.00     0.045 C 
HETATM   27  O1  UNL     1      27.305  -0.402  54.559  1.00  0.00    -0.353 OA
HETATM   28  C3  UNL     1      28.541   0.094  54.890  1.00  0.00     0.135 A 
HETATM   29  C4  UNL     1      29.217   1.189  54.416  1.00  0.00     0.025 A 
HETATM   30  C5  UNL     1      28.320   1.783  53.384  1.00  0.00     0.013 A 
ENDBRANCH   1  24
TORSDOF 1
ENDMDL
MODEL 3
REMARK VINA RESULT:     -10.2      3.592      6.667
REMARK  1 active torsions:
REMARK  status: ('A' for Active; 'I' for Inactive)
REMARK    1  A    between atoms: C6_7  and  C7_8 
ROOT
HETATM    1  C7  UNL     1      26.600   0.779  52.450  1.00  0.00     0.065 C 
HETATM    2  N1  UNL     1      26.541   1.147  51.259  1.00  0.00    -0.180 NA
HETATM    3  N2  UNL     1      25.593   2.093  50.884  1.00  0.00    -0.292 N 
HETATM    4  C8  UNL     1      25.736   2.966  49.731  1.00  0.00     0.175 C 
HETATM    5  C9  UNL     1      25.158   4.275  49.684  1.00  0.00     0.027 C 
HETATM    6  C10 UNL     1      24.735   5.601  49.571  1.00  0.00     0.066 C 
HETATM    7  C11 UNL     1      25.722   6.398  48.923  1.00  0.00    -0.008 A 
HETATM    8  C12 UNL     1      26.940   6.393  48.420  1.00  0.00     0.014 A 
HETATM    9  C13 UNL     1      27.782   7.205  47.745  1.00  0.00     0.001 A 
HETATM   10  C14 UNL     1      27.138   8.471  47.502  1.00  0.00     0.000 A 
HETATM   11  C15 UNL     1      25.832   8.621  47.985  1.00  0.00     0.001 A 
HETATM   12  C16 UNL     1      25.073   7.649  48.692  1.00  0.00     0.014 A 
HETATM   13  N3  UNL     1      23.618   5.881  50.288  1.00  0.00    -0.236 NA
HETATM   14  C17 UNL     1      22.936   6.841  50.780  1.00  0.00     0.259 C 
HETATM   15  O2  UNL     1      21.741   6.354  51.517  1.00  0.00    -0.304 OA
HETATM   16  C18 UNL     1      21.937   4.888  51.590  1.00  0.00     0.076 A 
HETATM   17  C19 UNL     1      21.383   3.665  51.322  1.00  0.00     0.038 A 
HETATM   18  C20 UNL     1      22.226   2.649  51.538  1.00  0.00     0.012 A 
HETATM   19  C21 UNL     1      23.502   2.621  51.982  1.00  0.00    -0.033 A 
HETATM   20  C22 UNL     1      24.203   3.716  52.332  1.00  0.00     0.012 A 
HETATM   21  C23 UNL     1      23.281   4.741  52.075  1.00  0.00     0.038 A 
HETATM   22  C24 UNL     1      24.589   1.706  51.981  1.00  0.00     0.143 C 
HETATM   23  C25 UNL     1      25.506   1.581  53.144  1.00  0.00     0.093 C 
ENDROOT
BRANCH   1  24
HETATM   24  C6  UNL     1      27.580  -0.235  52.887  1.00  0.00    -0.003 A 
HETATM   25  C2  UNL     1      28.908   0.155  53.461  1.00  0.00     0.158 A 
HETATM   26  C1  UNL     1      28.678   0.573  54.930  1.00  0.00     0.045 C 
HETATM   27  O1  UNL     1      29.720  -1.000  53.613  1.00  0.00    -0.353 OA
HETATM   28  C3  UNL     1      29.245  -2.269  53.391  1.00  0.00     0.135 A 
HETATM   29  C4  UNL     1      28.032  -2.693  52.914  1.00  0.00     0.025 A 
HETATM   30  C5  UNL     1      27.248  -1.448  52.679  1.00  0.00     0.013 A 
ENDBRANCH   1  24
TORSDOF 1
ENDMDL
MODEL 4
REMARK VINA RESULT:     -10.2      3.279      5.852
REMARK  1 active torsions:
REMARK  status: ('A' for Active; 'I' for Inactive)
REMARK    1  A    between atoms: C6_7  and  C7_8 
ROOT
HETATM    1  C7  UNL     1      24.357   4.259  49.987  1.00  0.00     0.065 C 
HETATM    2  N1  UNL     1      23.661   3.324  49.542  1.00  0.00    -0.180 NA
HETATM    3  N2  UNL     1      23.463   2.191  50.325  1.00  0.00    -0.292 N 
HETATM    4  C8  UNL     1      22.319   1.306  50.188  1.00  0.00     0.175 C 
HETATM    5  C9  UNL     1      21.781   0.571  51.292  1.00  0.00     0.027 C 
HETATM    6  C10 UNL     1      21.110  -0.107  52.312  1.00  0.00     0.066 C 
HETATM    7  C11 UNL     1      19.699  -0.043  52.124  1.00  0.00    -0.008 A 
HETATM    8  C12 UNL     1      18.741   0.463  51.374  1.00  0.00     0.014 A 
HETATM    9  C13 UNL     1      17.400   0.403  51.232  1.00  0.00     0.001 A 
HETATM   10  C14 UNL     1      16.852  -0.501  52.211  1.00  0.00     0.000 A 
HETATM   11  C15 UNL     1      17.759  -1.116  53.083  1.00  0.00     0.001 A 
HETATM   12  C16 UNL     1      19.170  -0.940  53.102  1.00  0.00     0.014 A 
HETATM   13  N3  UNL     1      21.908  -0.461  53.351  1.00  0.00    -0.236 NA
HETATM   14  C17 UNL     1      21.889  -0.822  54.575  1.00  0.00     0.259 C 
HETATM   15  O2  UNL     1      23.257  -1.040  55.112  1.00  0.00    -0.304 OA
HETATM   16  C18 UNL     1      24.148  -0.517  54.050  1.00  0.00     0.076 A 
HETATM   17  C19 UNL     1      25.201  -0.804  53.223  1.00  0.00     0.038 A 
HETATM   18  C20 UNL     1      25.446   0.164  52.333  1.00  0.00     0.012 A 
HETATM   19  C21 UNL     1      24.854   1.361  52.122  1.00  0.00    -0.033 A 
HETATM   20  C22 UNL     1      23.829   1.835  52.855  1.00  0.00     0.012 A 
HETATM   21  C23 UNL     1      23.610   0.782  53.755  1.00  0.00     0.038 A 
HETATM   22  C24 UNL     1      24.793   2.327  51.083  1.00  0.00     0.143 C 
HETATM   23  C25 UNL     1      24.783   3.785  51.371  1.00  0.00     0.093 C 
ENDROOT
BRANCH   1  24
HETATM   24  C6  UNL     1      24.607   5.472  49.183  1.00  0.00    -0.003 A 
HETATM   25  C2  UNL     1      25.863   6.273  49.341  1.00  0.00     0.158 A 
HETATM   26  C1  UNL     1      26.988   5.534  48.583  1.00  0.00     0.045 C 
HETATM   27  O1  UNL     1      25.757   7.479  48.597  1.00  0.00    -0.353 OA
HETATM   28  C3  UNL     1      24.700   7.738  47.761  1.00  0.00     0.135 A 
HETATM   29  C4  UNL     1      23.549   7.028  47.536  1.00  0.00     0.025 A 
HETATM   30  C5  UNL     1      23.658   5.823  48.405  1.00  0.00     0.013 A 
ENDBRANCH   1  24
TORSDOF 1
ENDMDL
MODEL 5
REMARK VINA RESULT:     -10.1      2.090      2.843
REMARK  1 active torsions:
REMARK  status: ('A' for Active; 'I' for Inactive)
REMARK    1  A    between atoms: C6_7  and  C7_8 
ROOT
HETATM    1  C7  UNL     1      25.913   1.854  52.367  1.00  0.00     0.065 C 
HETATM    2  N1  UNL     1      24.787   2.100  52.844  1.00  0.00    -0.180 NA
HETATM    3  N2  UNL     1      23.798   2.629  52.020  1.00  0.00    -0.292 N 
HETATM    4  C8  UNL     1      22.375   2.479  52.268  1.00  0.00     0.175 C 
HETATM    5  C9  UNL     1      21.412   2.440  51.210  1.00  0.00     0.027 C 
HETATM    6  C10 UNL     1      20.400   2.282  50.260  1.00  0.00     0.066 C 
HETATM    7  C11 UNL     1      19.465   1.290  50.672  1.00  0.00    -0.008 A 
HETATM    8  C12 UNL     1      19.194   0.393  51.599  1.00  0.00     0.014 A 
HETATM    9  C13 UNL     1      18.217  -0.472  51.945  1.00  0.00     0.001 A 
HETATM   10  C14 UNL     1      17.134  -0.378  50.999  1.00  0.00     0.000 A 
HETATM   11  C15 UNL     1      17.284   0.539  49.952  1.00  0.00     0.001 A 
HETATM   12  C16 UNL     1      18.400   1.392  49.725  1.00  0.00     0.014 A 
HETATM   13  N3  UNL     1      20.650   2.914  49.086  1.00  0.00    -0.236 NA
HETATM   14  C17 UNL     1      20.309   2.954  47.856  1.00  0.00     0.259 C 
HETATM   15  O2  UNL     1      21.085   3.968  47.096  1.00  0.00    -0.304 OA
HETATM   16  C18 UNL     1      22.144   4.392  48.041  1.00  0.00     0.076 A 
HETATM   17  C19 UNL     1      22.729   5.460  48.669  1.00  0.00     0.038 A 
HETATM   18  C20 UNL     1      23.639   5.097  49.579  1.00  0.00     0.012 A 
HETATM   19  C21 UNL     1      24.084   3.882  49.969  1.00  0.00    -0.033 A 
HETATM   20  C22 UNL     1      23.656   2.718  49.444  1.00  0.00     0.012 A 
HETATM   21  C23 UNL     1      22.704   3.156  48.513  1.00  0.00     0.038 A 
HETATM   22  C24 UNL     1      24.786   3.332  51.075  1.00  0.00     0.143 C 
HETATM   23  C25 UNL     1      25.795   2.255  50.902  1.00  0.00     0.093 C 
ENDROOT
BRANCH   1  24
HETATM   24  C6  UNL     1      26.995   1.309  53.211  1.00  0.00    -0.003 A 
HETATM   25  C2  UNL     1      26.867  -0.023  53.885  1.00  0.00     0.158 A 
HETATM   26  C1  UNL     1      27.137  -1.113  52.825  1.00  0.00     0.045 C 
HETATM   27  O1  UNL     1      27.955  -0.213  54.779  1.00  0.00    -0.353 OA
HETATM   28  C3  UNL     1      29.009   0.663  54.851  1.00  0.00     0.135 A 
HETATM   29  C4  UNL     1      29.209   1.869  54.228  1.00  0.00     0.025 A 
HETATM   30  C5  UNL     1      28.003   2.072  53.377  1.00  0.00     0.013 A 
ENDBRANCH   1  24
TORSDOF 1
ENDMDL
MODEL 6
REMARK VINA RESULT:     -10.0      4.311      7.935
REMARK  1 active torsions:
REMARK  status: ('A' for Active; 'I' for Inactive)
REMARK    1  A    between atoms: C6_7  and  C7_8 
ROOT
HETATM    1  C7  UNL     1      22.160   2.242  52.266  1.00  0.00     0.065 C 
HETATM    2  N1  UNL     1      22.733   2.212  51.158  1.00  0.00    -0.180 NA
HETATM    3  N2  UNL     1      22.790   3.370  50.389  1.00  0.00    -0.292 N 
HETATM    4  C8  UNL     1      23.814   3.625  49.391  1.00  0.00     0.175 C 
HETATM    5  C9  UNL     1      24.258   4.948  49.069  1.00  0.00     0.027 C 
HETATM    6  C10 UNL     1      24.842   6.176  48.753  1.00  0.00     0.066 C 
HETATM    7  C11 UNL     1      26.249   6.041  48.575  1.00  0.00    -0.008 A 
HETATM    8  C12 UNL     1      27.261   5.200  48.646  1.00  0.00     0.014 A 
HETATM    9  C13 UNL     1      28.583   5.151  48.381  1.00  0.00     0.001 A 
HETATM   10  C14 UNL     1      29.016   6.421  47.855  1.00  0.00     0.000 A 
HETATM   11  C15 UNL     1      28.042   7.418  47.725  1.00  0.00     0.001 A 
HETATM   12  C16 UNL     1      26.664   7.306  48.058  1.00  0.00     0.014 A 
HETATM   13  N3  UNL     1      24.009   7.235  48.912  1.00  0.00    -0.236 NA
HETATM   14  C17 UNL     1      23.985   8.505  49.040  1.00  0.00     0.259 C 
HETATM   15  O2  UNL     1      22.601   9.022  49.201  1.00  0.00    -0.304 OA
HETATM   16  C18 UNL     1      21.781   7.803  49.386  1.00  0.00     0.076 A 
HETATM   17  C19 UNL     1      20.698   7.097  48.933  1.00  0.00     0.038 A 
HETATM   18  C20 UNL     1      20.573   5.899  49.516  1.00  0.00     0.012 A 
HETATM   19  C21 UNL     1      21.310   5.283  50.467  1.00  0.00    -0.033 A 
HETATM   20  C22 UNL     1      22.388   5.830  51.059  1.00  0.00     0.012 A 
HETATM   21  C23 UNL     1      22.476   7.068  50.406  1.00  0.00     0.038 A 
HETATM   22  C24 UNL     1      21.489   3.961  50.955  1.00  0.00     0.143 C 
HETATM   23  C25 UNL     1      21.682   3.683  52.402  1.00  0.00     0.093 C 
ENDROOT
BRANCH   1  24
HETATM   24  C6  UNL     1      22.062   1.032  53.107  1.00  0.00    -0.003 A 
HETATM   25  C2  UNL     1      20.781   0.648  53.782  1.00  0.00     0.158 A 
HETATM   26  C1  UNL     1      19.872  -0.010  52.721  1.00  0.00     0.045 C 
HETATM   27  O1  UNL     1      21.016  -0.434  54.672  1.00  0.00    -0.353 OA
HETATM   28  C3  UNL     1      22.225  -1.081  54.742  1.00  0.00     0.135 A 
HETATM   29  C4  UNL     1      23.416  -0.811  54.118  1.00  0.00     0.025 A 
HETATM   30  C5  UNL     1      23.149   0.385  53.271  1.00  0.00     0.013 A 
ENDBRANCH   1  24
TORSDOF 1
ENDMDL
MODEL 7
REMARK VINA RESULT:     -10.0      3.145      8.025
REMARK  1 active torsions:
REMARK  status: ('A' for Active; 'I' for Inactive)
REMARK    1  A    between atoms: C6_7  and  C7_8 
ROOT
HETATM    1  C7  UNL     1      22.219   3.601  48.794  1.00  0.00     0.065 C 
HETATM    2  N1  UNL     1      22.857   4.037  49.774  1.00  0.00    -0.180 NA
HETATM    3  N2  UNL     1      22.891   3.294  50.950  1.00  0.00    -0.292 N 
HETATM    4  C8  UNL     1      23.955   3.390  51.934  1.00  0.00     0.175 C 
HETATM    5  C9  UNL     1      24.338   2.285  52.760  1.00  0.00     0.027 C 
HETATM    6  C10 UNL     1      24.867   1.251  53.537  1.00  0.00     0.066 C 
HETATM    7  C11 UNL     1      26.287   1.337  53.601  1.00  0.00    -0.008 A 
HETATM    8  C12 UNL     1      27.341   1.995  53.160  1.00  0.00     0.014 A 
HETATM    9  C13 UNL     1      28.678   2.044  53.343  1.00  0.00     0.001 A 
HETATM   10  C14 UNL     1      29.065   1.070  54.332  1.00  0.00     0.000 A 
HETATM   11  C15 UNL     1      28.043   0.293  54.890  1.00  0.00     0.001 A 
HETATM   12  C16 UNL     1      26.657   0.366  54.581  1.00  0.00     0.014 A 
HETATM   13  N3  UNL     1      23.965   0.289  53.852  1.00  0.00    -0.236 NA
HETATM   14  C17 UNL     1      23.859  -0.916  54.260  1.00  0.00     0.259 C 
HETATM   15  O2  UNL     1      22.440  -1.345  54.367  1.00  0.00    -0.304 OA
HETATM   16  C18 UNL     1      21.683  -0.248  53.720  1.00  0.00     0.076 A 
HETATM   17  C19 UNL     1      20.673   0.663  53.873  1.00  0.00     0.038 A 
HETATM   18  C20 UNL     1      20.584   1.524  52.853  1.00  0.00     0.012 A 
HETATM   19  C21 UNL     1      21.299   1.638  51.711  1.00  0.00    -0.033 A 
HETATM   20  C22 UNL     1      22.306   0.814  51.366  1.00  0.00     0.012 A 
HETATM   21  C23 UNL     1      22.359  -0.051  52.468  1.00  0.00     0.038 A 
HETATM   22  C24 UNL     1      21.526   2.626  50.716  1.00  0.00     0.143 C 
HETATM   23  C25 UNL     1      21.650   2.273  49.278  1.00  0.00     0.093 C 
ENDROOT
BRANCH   1  24
HETATM   24  C6  UNL     1      22.144   4.365  47.533  1.00  0.00    -0.003 A 
HETATM   25  C2  UNL     1      21.692   3.727  46.256  1.00  0.00     0.158 A 
HETATM   26  C1  UNL     1      20.151   3.634  46.298  1.00  0.00     0.045 C 
HETATM   27  O1  UNL     1      21.899   4.624  45.174  1.00  0.00    -0.353 OA
HETATM   28  C3  UNL     1      22.311   5.919  45.361  1.00  0.00     0.135 A 
HETATM   29  C4  UNL     1      22.692   6.576  46.503  1.00  0.00     0.025 A 
HETATM   30  C5  UNL     1      22.551   5.572  47.595  1.00  0.00     0.013 A 
ENDBRANCH   1  24
TORSDOF 1
ENDMDL
MODEL 8
REMARK VINA RESULT:     -10.0      1.537      2.382
REMARK  1 active torsions:
REMARK  status: ('A' for Active; 'I' for Inactive)
REMARK    1  A    between atoms: C6_7  and  C7_8 
ROOT
HETATM    1  C7  UNL     1      23.865   0.730  52.741  1.00  0.00     0.065 C 
HETATM    2  N1  UNL     1      22.959   0.479  53.561  1.00  0.00    -0.180 NA
HETATM    3  N2  UNL     1      21.641   0.782  53.234  1.00  0.00    -0.292 N 
HETATM    4  C8  UNL     1      20.491   0.107  53.812  1.00  0.00     0.175 C 
HETATM    5  C9  UNL     1      19.261  -0.059  53.099  1.00  0.00     0.027 C 
HETATM    6  C10 UNL     1      18.058  -0.373  52.463  1.00  0.00     0.066 C 
HETATM    7  C11 UNL     1      17.625  -1.684  52.810  1.00  0.00    -0.008 A 
HETATM    8  C12 UNL     1      17.946  -2.778  53.473  1.00  0.00     0.014 A 
HETATM    9  C13 UNL     1      17.419  -3.975  53.808  1.00  0.00     0.001 A 
HETATM   10  C14 UNL     1      16.087  -4.082  53.268  1.00  0.00     0.000 A 
HETATM   11  C15 UNL     1      15.610  -2.988  52.536  1.00  0.00     0.001 A 
HETATM   12  C16 UNL     1      16.307  -1.778  52.268  1.00  0.00     0.014 A 
HETATM   13  N3  UNL     1      17.700   0.516  51.503  1.00  0.00    -0.236 NA
HETATM   14  C17 UNL     1      16.947   0.668  50.483  1.00  0.00     0.259 C 
HETATM   15  O2  UNL     1      17.108   2.011  49.867  1.00  0.00    -0.304 OA
HETATM   16  C18 UNL     1      18.282   2.587  50.563  1.00  0.00     0.076 A 
HETATM   17  C19 UNL     1      18.749   3.651  51.287  1.00  0.00     0.038 A 
HETATM   18  C20 UNL     1      19.985   3.459  51.763  1.00  0.00     0.012 A 
HETATM   19  C21 UNL     1      20.841   2.419  51.643  1.00  0.00    -0.033 A 
HETATM   20  C22 UNL     1      20.576   1.301  50.941  1.00  0.00     0.012 A 
HETATM   21  C23 UNL     1      19.276   1.553  50.480  1.00  0.00     0.038 A 
HETATM   22  C24 UNL     1      22.008   1.946  52.300  1.00  0.00     0.143 C 
HETATM   23  C25 UNL     1      23.134   1.335  51.549  1.00  0.00     0.093 C 
ENDROOT
BRANCH   1  24
HETATM   24  C6  UNL     1      25.278   0.440  53.055  1.00  0.00    -0.003 A 
HETATM   25  C2  UNL     1      26.304   0.280  51.975  1.00  0.00     0.158 A 
HETATM   26  C1  UNL     1      26.697   1.693  51.489  1.00  0.00     0.045 C 
HETATM   27  O1  UNL     1      27.524  -0.181  52.538  1.00  0.00    -0.353 OA
HETATM   28  C3  UNL     1      27.711  -0.296  53.893  1.00  0.00     0.135 A 
HETATM   29  C4  UNL     1      26.833  -0.119  54.931  1.00  0.00     0.025 A 
HETATM   30  C5  UNL     1      25.545   0.270  54.290  1.00  0.00     0.013 A 
ENDBRANCH   1  24
TORSDOF 1
ENDMDL
MODEL 9
REMARK VINA RESULT:      -9.8      6.485      9.749
REMARK  1 active torsions:
REMARK  status: ('A' for Active; 'I' for Inactive)
REMARK    1  A    between atoms: C6_7  and  C7_8 
ROOT
HETATM    1  C7  UNL     1      25.612   3.054  50.927  1.00  0.00     0.065 C 
HETATM    2  N1  UNL     1      26.451   3.139  50.008  1.00  0.00    -0.180 NA
HETATM    3  N2  UNL     1      26.549   4.322  49.282  1.00  0.00    -0.292 N 
HETATM    4  C8  UNL     1      27.752   4.745  48.587  1.00  0.00     0.175 C 
HETATM    5  C9  UNL     1      28.082   6.125  48.395  1.00  0.00     0.027 C 
HETATM    6  C10 UNL     1      28.556   7.430  48.245  1.00  0.00     0.066 C 
HETATM    7  C11 UNL     1      29.966   7.486  48.442  1.00  0.00    -0.008 A 
HETATM    8  C12 UNL     1      31.029   6.781  48.775  1.00  0.00     0.014 A 
HETATM    9  C13 UNL     1      32.369   6.915  48.866  1.00  0.00     0.001 A 
HETATM   10  C14 UNL     1      32.748   8.249  48.474  1.00  0.00     0.000 A 
HETATM   11  C15 UNL     1      31.716   9.115  48.094  1.00  0.00     0.001 A 
HETATM   12  C16 UNL     1      30.326   8.812  48.054  1.00  0.00     0.014 A 
HETATM   13  N3  UNL     1      27.575   8.364  48.182  1.00  0.00    -0.236 NA
HETATM   14  C17 UNL     1      27.348   9.615  48.300  1.00  0.00     0.259 C 
HETATM   15  O2  UNL     1      25.913   9.942  48.094  1.00  0.00    -0.304 OA
HETATM   16  C18 UNL     1      25.245   8.620  48.056  1.00  0.00     0.076 A 
HETATM   17  C19 UNL     1      24.423   7.796  47.334  1.00  0.00     0.038 A 
HETATM   18  C20 UNL     1      24.314   6.572  47.861  1.00  0.00     0.012 A 
HETATM   19  C21 UNL     1      24.855   6.022  48.972  1.00  0.00    -0.033 A 
HETATM   20  C22 UNL     1      25.658   6.683  49.827  1.00  0.00     0.012 A 
HETATM   21  C23 UNL     1      25.744   7.944  49.221  1.00  0.00     0.038 A 
HETATM   22  C24 UNL     1      25.078   4.718  49.488  1.00  0.00     0.143 C 
HETATM   23  C25 UNL     1      24.925   4.414  50.935  1.00  0.00     0.093 C 
ENDROOT
BRANCH   1  24
HETATM   24  C6  UNL     1      25.464   1.811  51.711  1.00  0.00    -0.003 A 
HETATM   25  C2  UNL     1      24.298   1.596  52.626  1.00  0.00     0.158 A 
HETATM   26  C1  UNL     1      23.086   1.196  51.755  1.00  0.00     0.045 C 
HETATM   27  O1  UNL     1      24.503   0.418  53.393  1.00  0.00    -0.353 OA
HETATM   28  C3  UNL     1      25.559  -0.430  53.171  1.00  0.00     0.135 A 
HETATM   29  C4  UNL     1      26.628  -0.315  52.320  1.00  0.00     0.025 A 
HETATM   30  C5  UNL     1      26.422   0.976  51.607  1.00  0.00     0.013 A 
ENDBRANCH   1  24
TORSDOF 1
ENDMDL
