MODEL 1
REMARK VINA RESULT:      -8.5      0.000      0.000
REMARK  2 active torsions:
REMARK  status: ('A' for Active; 'I' for Inactive)
REMARK    1  A    between atoms: O1_2  and  C2_3 
REMARK    2  A    between atoms: C2_3  and  C3_4 
ROOT
HETATM    1  C3  UNL     1      24.742  -0.589  54.108  1.00  0.00    -0.003 A 
HETATM    2  C4  UNL     1      24.675  -1.336  55.194  1.00  0.00     0.119 A 
HETATM    3  N1  UNL     1      23.515  -1.664  55.946  1.00  0.00    -0.288 N 
HETATM    4  N2  UNL     1      22.351  -1.119  55.451  1.00  0.00    -0.175 NA
HETATM    5  C5  UNL     1      22.276  -0.376  54.406  1.00  0.00     0.089 A 
HETATM    6  C6  UNL     1      20.950   0.125  54.011  1.00  0.00     0.032 C 
HETATM    7  C7  UNL     1      19.985  -0.483  53.302  1.00  0.00    -0.004 C 
HETATM    8  C8  UNL     1      18.611  -0.374  52.715  1.00  0.00     0.113 C 
HETATM    9 CL1  UNL     1      17.683  -1.870  53.064  1.00  0.00    -0.120 Cl
HETATM   10  C9  UNL     1      18.709  -0.127  51.257  1.00  0.00     0.127 C 
HETATM   11  C10 UNL     1      19.387   1.122  50.834  1.00  0.00     0.221 C 
HETATM   12  O2  UNL     1      19.324   1.168  52.071  1.00  0.00    -0.273 OA
HETATM   13  N3  UNL     1      20.010   2.373  51.211  1.00  0.00    -0.352 N 
HETATM   14  C11 UNL     1      20.414   3.353  52.272  1.00  0.00     0.128 C 
HETATM   15  C12 UNL     1      21.862   3.730  52.148  1.00  0.00     0.052 C 
HETATM   16  C13 UNL     1      22.588   2.670  51.351  1.00  0.00     0.131 C 
HETATM   17  C14 UNL     1      22.056   2.740  49.940  1.00  0.00     0.052 C 
HETATM   18  C15 UNL     1      20.542   3.014  50.021  1.00  0.00     0.128 C 
HETATM   19  O3  UNL     1      22.388   1.387  51.855  1.00  0.00    -0.357 OA
HETATM   20  C16 UNL     1      23.404   0.730  52.546  1.00  0.00     0.149 C 
HETATM   21  C17 UNL     1      23.483  -0.035  53.623  1.00  0.00     0.026 A 
HETATM   22  H7  UNL     1      23.604  -2.270  56.790  1.00  0.00     0.188 HD
ENDROOT
BRANCH   1  23
HETATM   23  C2  UNL     1      26.013  -0.306  53.393  1.00  0.00     0.208 C 
BRANCH  23  24
HETATM   24  O1  UNL     1      27.135  -0.769  54.045  1.00  0.00    -0.391 OA
HETATM   25  C1  UNL     1      27.997   0.276  54.408  1.00  0.00     0.201 C 
ENDBRANCH  23  24
ENDBRANCH   1  23
TORSDOF 2
ENDMDL
MODEL 2
REMARK VINA RESULT:      -7.8      2.578      5.906
REMARK  2 active torsions:
REMARK  status: ('A' for Active; 'I' for Inactive)
REMARK    1  A    between atoms: O1_2  and  C2_3 
REMARK    2  A    between atoms: C2_3  and  C3_4 
ROOT
HETATM    1  C3  UNL     1      22.759   4.668  51.428  1.00  0.00    -0.003 A 
HETATM    2  C4  UNL     1      21.589   4.713  50.819  1.00  0.00     0.119 A 
HETATM    3  N1  UNL     1      20.724   3.624  50.531  1.00  0.00    -0.288 N 
HETATM    4  N2  UNL     1      21.198   2.402  50.953  1.00  0.00    -0.175 NA
HETATM    5  C5  UNL     1      22.317   2.218  51.556  1.00  0.00     0.089 A 
HETATM    6  C6  UNL     1      22.675   0.843  51.941  1.00  0.00     0.032 C 
HETATM    7  C7  UNL     1      22.300   0.135  53.019  1.00  0.00    -0.004 C 
HETATM    8  C8  UNL     1      22.403  -1.166  53.754  1.00  0.00     0.113 C 
HETATM    9 CL1  UNL     1      20.772  -1.690  54.289  1.00  0.00    -0.120 Cl
HETATM   10  C9  UNL     1      23.326  -1.018  54.905  1.00  0.00     0.127 C 
HETATM   11  C10 UNL     1      24.732  -0.662  54.593  1.00  0.00     0.221 C 
HETATM   12  O2  UNL     1      24.171  -0.836  53.500  1.00  0.00    -0.273 OA
HETATM   13  N3  UNL     1      25.748  -0.426  53.589  1.00  0.00    -0.352 N 
HETATM   14  C11 UNL     1      26.165  -0.383  52.150  1.00  0.00     0.128 C 
HETATM   15  C12 UNL     1      26.831   0.918  51.809  1.00  0.00     0.052 C 
HETATM   16  C13 UNL     1      26.442   1.962  52.832  1.00  0.00     0.131 C 
HETATM   17  C14 UNL     1      27.068   1.547  54.141  1.00  0.00     0.052 C 
HETATM   18  C15 UNL     1      26.968   0.013  54.246  1.00  0.00     0.128 C 
HETATM   19  O3  UNL     1      25.063   2.068  52.994  1.00  0.00    -0.357 OA
HETATM   20  C16 UNL     1      24.369   3.161  52.479  1.00  0.00     0.149 C 
HETATM   21  C17 UNL     1      23.218   3.352  51.856  1.00  0.00     0.026 A 
HETATM   22  H7  UNL     1      19.820   3.801  50.040  1.00  0.00     0.188 HD
ENDROOT
BRANCH   1  23
HETATM   23  C2  UNL     1      23.591   5.874  51.681  1.00  0.00     0.208 C 
BRANCH  23  24
HETATM   24  O1  UNL     1      24.018   6.506  50.535  1.00  0.00    -0.391 OA
HETATM   25  C1  UNL     1      25.298   6.080  50.149  1.00  0.00     0.201 C 
ENDBRANCH  23  24
ENDBRANCH   1  23
TORSDOF 2
ENDMDL
MODEL 3
REMARK VINA RESULT:      -7.8      1.218      1.486
REMARK  2 active torsions:
REMARK  status: ('A' for Active; 'I' for Inactive)
REMARK    1  A    between atoms: O1_2  and  C2_3 
REMARK    2  A    between atoms: C2_3  and  C3_4 
ROOT
HETATM    1  C3  UNL     1      24.769  -0.424  53.941  1.00  0.00    -0.003 A 
HETATM    2  C4  UNL     1      24.377  -1.177  54.952  1.00  0.00     0.119 A 
HETATM    3  N1  UNL     1      23.056  -1.334  55.449  1.00  0.00    -0.288 N 
HETATM    4  N2  UNL     1      22.108  -0.600  54.770  1.00  0.00    -0.175 NA
HETATM    5  C5  UNL     1      22.354   0.171  53.772  1.00  0.00     0.089 A 
HETATM    6  C6  UNL     1      21.223   0.886  53.159  1.00  0.00     0.032 C 
HETATM    7  C7  UNL     1      20.337   0.456  52.246  1.00  0.00    -0.004 C 
HETATM    8  C8  UNL     1      19.139   0.796  51.413  1.00  0.00     0.113 C 
HETATM    9 CL1  UNL     1      17.945  -0.543  51.496  1.00  0.00    -0.120 Cl
HETATM   10  C9  UNL     1      19.560   1.058  50.016  1.00  0.00     0.127 C 
HETATM   11  C10 UNL     1      20.489   2.194  49.800  1.00  0.00     0.221 C 
HETATM   12  O2  UNL     1      20.190   2.219  51.004  1.00  0.00    -0.273 OA
HETATM   13  N3  UNL     1      21.206   3.321  50.358  1.00  0.00    -0.352 N 
HETATM   14  C11 UNL     1      21.536   4.199  51.529  1.00  0.00     0.128 C 
HETATM   15  C12 UNL     1      23.019   4.344  51.705  1.00  0.00     0.052 C 
HETATM   16  C13 UNL     1      23.721   3.201  51.005  1.00  0.00     0.131 C 
HETATM   17  C14 UNL     1      23.495   3.389  49.525  1.00  0.00     0.052 C 
HETATM   18  C15 UNL     1      22.054   3.898  49.329  1.00  0.00     0.128 C 
HETATM   19  O3  UNL     1      23.234   1.955  51.390  1.00  0.00    -0.357 OA
HETATM   20  C16 UNL     1      23.981   1.128  52.227  1.00  0.00     0.149 C 
HETATM   21  C17 UNL     1      23.730   0.335  53.255  1.00  0.00     0.026 A 
HETATM   22  H7  UNL     1      22.883  -1.967  56.260  1.00  0.00     0.188 HD
ENDROOT
BRANCH   1  23
HETATM   23  C2  UNL     1      26.185  -0.329  53.500  1.00  0.00     0.208 C 
BRANCH  23  24
HETATM   24  O1  UNL     1      26.893  -1.501  53.641  1.00  0.00    -0.391 OA
HETATM   25  C1  UNL     1      26.979  -2.209  52.433  1.00  0.00     0.201 C 
ENDBRANCH  23  24
ENDBRANCH   1  23
TORSDOF 2
ENDMDL
MODEL 4
REMARK VINA RESULT:      -7.3      3.020      3.797
REMARK  2 active torsions:
REMARK  status: ('A' for Active; 'I' for Inactive)
REMARK    1  A    between atoms: O1_2  and  C2_3 
REMARK    2  A    between atoms: C2_3  and  C3_4 
ROOT
HETATM    1  C3  UNL     1      26.062   2.813  50.825  1.00  0.00    -0.003 A 
HETATM    2  C4  UNL     1      26.955   2.591  51.771  1.00  0.00     0.119 A 
HETATM    3  N1  UNL     1      26.711   2.182  53.109  1.00  0.00    -0.288 N 
HETATM    4  N2  UNL     1      25.378   2.008  53.410  1.00  0.00    -0.175 NA
HETATM    5  C5  UNL     1      24.411   2.191  52.585  1.00  0.00     0.089 A 
HETATM    6  C6  UNL     1      23.040   1.960  53.069  1.00  0.00     0.032 C 
HETATM    7  C7  UNL     1      22.356   0.810  53.179  1.00  0.00    -0.004 C 
HETATM    8  C8  UNL     1      21.069   0.157  53.578  1.00  0.00     0.113 C 
HETATM    9 CL1  UNL     1      21.411  -1.307  54.560  1.00  0.00    -0.120 Cl
HETATM   10  C9  UNL     1      20.282  -0.178  52.367  1.00  0.00     0.127 C 
HETATM   11  C10 UNL     1      19.865   0.956  51.507  1.00  0.00     0.221 C 
HETATM   12  O2  UNL     1      20.410   1.461  52.500  1.00  0.00    -0.273 OA
HETATM   13  N3  UNL     1      19.805   2.388  51.301  1.00  0.00    -0.352 N 
HETATM   14  C11 UNL     1      20.080   3.781  51.783  1.00  0.00     0.128 C 
HETATM   15  C12 UNL     1      20.804   4.588  50.745  1.00  0.00     0.052 C 
HETATM   16  C13 UNL     1      21.476   3.653  49.764  1.00  0.00     0.131 C 
HETATM   17  C14 UNL     1      20.377   2.956  49.001  1.00  0.00     0.052 C 
HETATM   18  C15 UNL     1      19.235   2.653  49.991  1.00  0.00     0.128 C 
HETATM   19  O3  UNL     1      22.278   2.702  50.390  1.00  0.00    -0.357 OA
HETATM   20  C16 UNL     1      23.667   2.803  50.343  1.00  0.00     0.149 C 
HETATM   21  C17 UNL     1      24.664   2.617  51.192  1.00  0.00     0.026 A 
HETATM   22  H7  UNL     1      27.515   2.041  53.758  1.00  0.00     0.188 HD
ENDROOT
BRANCH   1  23
HETATM   23  C2  UNL     1      26.425   3.242  49.449  1.00  0.00     0.208 C 
BRANCH  23  24
HETATM   24  O1  UNL     1      27.540   4.049  49.392  1.00  0.00    -0.391 OA
HETATM   25  C1  UNL     1      27.316   5.196  48.616  1.00  0.00     0.201 C 
ENDBRANCH  23  24
ENDBRANCH   1  23
TORSDOF 2
ENDMDL
MODEL 5
REMARK VINA RESULT:      -7.3      3.022      4.444
REMARK  2 active torsions:
REMARK  status: ('A' for Active; 'I' for Inactive)
REMARK    1  A    between atoms: O1_2  and  C2_3 
REMARK    2  A    between atoms: C2_3  and  C3_4 
ROOT
HETATM    1  C3  UNL     1      26.731   1.573  53.372  1.00  0.00    -0.003 A 
HETATM    2  C4  UNL     1      27.593   2.227  52.616  1.00  0.00     0.119 A 
HETATM    3  N1  UNL     1      27.319   2.963  51.433  1.00  0.00    -0.288 N 
HETATM    4  N2  UNL     1      25.991   2.968  51.069  1.00  0.00    -0.175 NA
HETATM    5  C5  UNL     1      25.052   2.374  51.713  1.00  0.00     0.089 A 
HETATM    6  C6  UNL     1      23.682   2.480  51.186  1.00  0.00     0.032 C 
HETATM    7  C7  UNL     1      22.782   3.464  51.343  1.00  0.00    -0.004 C 
HETATM    8  C8  UNL     1      21.403   3.956  51.025  1.00  0.00     0.113 C 
HETATM    9 CL1  UNL     1      21.474   5.682  50.537  1.00  0.00    -0.120 Cl
HETATM   10  C9  UNL     1      20.521   3.764  52.201  1.00  0.00     0.127 C 
HETATM   11  C10 UNL     1      20.314   2.369  52.661  1.00  0.00     0.221 C 
HETATM   12  O2  UNL     1      20.986   2.292  51.621  1.00  0.00    -0.273 OA
HETATM   13  N3  UNL     1      20.541   0.956  52.446  1.00  0.00    -0.352 N 
HETATM   14  C11 UNL     1      21.112  -0.155  51.616  1.00  0.00     0.128 C 
HETATM   15  C12 UNL     1      21.949  -1.085  52.446  1.00  0.00     0.052 C 
HETATM   16  C13 UNL     1      22.379  -0.377  53.711  1.00  0.00     0.131 C 
HETATM   17  C14 UNL     1      21.133  -0.153  54.533  1.00  0.00     0.052 C 
HETATM   18  C15 UNL     1      19.990   0.213  53.566  1.00  0.00     0.128 C 
HETATM   19  O3  UNL     1      22.991   0.849  53.460  1.00  0.00    -0.357 OA
HETATM   20  C16 UNL     1      24.369   0.997  53.607  1.00  0.00     0.149 C 
HETATM   21  C17 UNL     1      25.337   1.607  52.945  1.00  0.00     0.026 A 
HETATM   22  H7  UNL     1      28.101   3.437  50.930  1.00  0.00     0.188 HD
ENDROOT
BRANCH   1  23
HETATM   23  C2  UNL     1      27.124   0.830  54.597  1.00  0.00     0.208 C 
BRANCH  23  24
HETATM   24  O1  UNL     1      27.654  -0.417  54.347  1.00  0.00    -0.391 OA
HETATM   25  C1  UNL     1      29.056  -0.400  54.362  1.00  0.00     0.201 C 
ENDBRANCH  23  24
ENDBRANCH   1  23
TORSDOF 2
ENDMDL
MODEL 6
REMARK VINA RESULT:      -7.2      3.492      4.814
REMARK  2 active torsions:
REMARK  status: ('A' for Active; 'I' for Inactive)
REMARK    1  A    between atoms: O1_2  and  C2_3 
REMARK    2  A    between atoms: C2_3  and  C3_4 
ROOT
HETATM    1  C3  UNL     1      25.705   0.432  52.807  1.00  0.00    -0.003 A 
HETATM    2  C4  UNL     1      26.967   0.818  52.822  1.00  0.00     0.119 A 
HETATM    3  N1  UNL     1      27.525   1.967  52.201  1.00  0.00    -0.288 N 
HETATM    4  N2  UNL     1      26.610   2.737  51.517  1.00  0.00    -0.175 NA
HETATM    5  C5  UNL     1      25.356   2.475  51.423  1.00  0.00     0.089 A 
HETATM    6  C6  UNL     1      24.514   3.405  50.653  1.00  0.00     0.032 C 
HETATM    7  C7  UNL     1      23.956   4.565  51.034  1.00  0.00    -0.004 C 
HETATM    8  C8  UNL     1      23.106   5.732  50.633  1.00  0.00     0.113 C 
HETATM    9 CL1  UNL     1      23.869   7.257  51.194  1.00  0.00    -0.120 Cl
HETATM   10  C9  UNL     1      21.743   5.572  51.192  1.00  0.00     0.127 C 
HETATM   11  C10 UNL     1      20.971   4.388  50.744  1.00  0.00     0.221 C 
HETATM   12  O2  UNL     1      22.021   4.382  50.085  1.00  0.00    -0.273 OA
HETATM   13  N3  UNL     1      20.888   3.226  49.885  1.00  0.00    -0.352 N 
HETATM   14  C11 UNL     1      21.475   2.364  48.806  1.00  0.00     0.128 C 
HETATM   15  C12 UNL     1      21.505   0.920  49.214  1.00  0.00     0.052 C 
HETATM   16  C13 UNL     1      21.421   0.823  50.721  1.00  0.00     0.131 C 
HETATM   17  C14 UNL     1      20.044   1.298  51.114  1.00  0.00     0.052 C 
HETATM   18  C15 UNL     1      19.678   2.487  50.205  1.00  0.00     0.128 C 
HETATM   19  O3  UNL     1      22.379   1.603  51.364  1.00  0.00    -0.357 OA
HETATM   20  C16 UNL     1      23.483   1.012  51.974  1.00  0.00     0.149 C 
HETATM   21  C17 UNL     1      24.775   1.279  52.070  1.00  0.00     0.026 A 
HETATM   22  H7  UNL     1      28.547   2.156  52.293  1.00  0.00     0.188 HD
ENDROOT
BRANCH   1  23
HETATM   23  C2  UNL     1      25.222  -0.795  53.493  1.00  0.00     0.208 C 
BRANCH  23  24
HETATM   24  O1  UNL     1      25.569  -0.862  54.825  1.00  0.00    -0.391 OA
HETATM   25  C1  UNL     1      24.478  -1.219  55.631  1.00  0.00     0.201 C 
ENDBRANCH  23  24
ENDBRANCH   1  23
TORSDOF 2
ENDMDL
MODEL 7
REMARK VINA RESULT:      -6.7      3.827      6.853
REMARK  2 active torsions:
REMARK  status: ('A' for Active; 'I' for Inactive)
REMARK    1  A    between atoms: O1_2  and  C2_3 
REMARK    2  A    between atoms: C2_3  and  C3_4 
ROOT
HETATM    1  C3  UNL     1      22.662   6.775  49.486  1.00  0.00    -0.003 A 
HETATM    2  C4  UNL     1      23.398   7.750  49.985  1.00  0.00     0.119 A 
HETATM    3  N1  UNL     1      24.099   7.756  51.220  1.00  0.00    -0.288 N 
HETATM    4  N2  UNL     1      23.968   6.593  51.947  1.00  0.00    -0.175 NA
HETATM    5  C5  UNL     1      23.283   5.571  51.578  1.00  0.00     0.089 A 
HETATM    6  C6  UNL     1      23.248   4.405  52.476  1.00  0.00     0.032 C 
HETATM    7  C7  UNL     1      24.136   3.407  52.612  1.00  0.00    -0.004 C 
HETATM    8  C8  UNL     1      24.485   2.136  53.324  1.00  0.00     0.113 C 
HETATM    9 CL1  UNL     1      26.208   2.177  53.827  1.00  0.00    -0.120 Cl
HETATM   10  C9  UNL     1      24.208   0.978  52.442  1.00  0.00     0.127 C 
HETATM   11  C10 UNL     1      22.801   0.783  52.016  1.00  0.00     0.221 C 
HETATM   12  O2  UNL     1      22.789   1.729  52.818  1.00  0.00    -0.273 OA
HETATM   13  N3  UNL     1      21.417   1.198  52.113  1.00  0.00    -0.352 N 
HETATM   14  C11 UNL     1      20.367   2.086  52.710  1.00  0.00     0.128 C 
HETATM   15  C12 UNL     1      19.529   2.736  51.648  1.00  0.00     0.052 C 
HETATM   16  C13 UNL     1      20.281   2.716  50.336  1.00  0.00     0.131 C 
HETATM   17  C14 UNL     1      20.380   1.272  49.909  1.00  0.00     0.052 C 
HETATM   18  C15 UNL     1      20.625   0.424  51.172  1.00  0.00     0.128 C 
HETATM   19  O3  UNL     1      21.562   3.253  50.441  1.00  0.00    -0.357 OA
HETATM   20  C16 UNL     1      21.850   4.511  49.913  1.00  0.00     0.149 C 
HETATM   21  C17 UNL     1      22.553   5.565  50.292  1.00  0.00     0.026 A 
HETATM   22  H7  UNL     1      24.648   8.599  51.496  1.00  0.00     0.188 HD
ENDROOT
BRANCH   1  23
HETATM   23  C2  UNL     1      21.965   6.870  48.176  1.00  0.00     0.208 C 
BRANCH  23  24
HETATM   24  O1  UNL     1      22.768   6.578  47.096  1.00  0.00    -0.391 OA
HETATM   25  C1  UNL     1      22.067   5.882  46.099  1.00  0.00     0.201 C 
ENDBRANCH  23  24
ENDBRANCH   1  23
TORSDOF 2
ENDMDL
MODEL 8
REMARK VINA RESULT:      -6.7      3.270      6.419
REMARK  2 active torsions:
REMARK  status: ('A' for Active; 'I' for Inactive)
REMARK    1  A    between atoms: O1_2  and  C2_3 
REMARK    2  A    between atoms: C2_3  and  C3_4 
ROOT
HETATM    1  C3  UNL     1      17.758   2.527  51.370  1.00  0.00    -0.003 A 
HETATM    2  C4  UNL     1      17.211   1.328  51.440  1.00  0.00     0.119 A 
HETATM    3  N1  UNL     1      17.877   0.074  51.435  1.00  0.00    -0.288 N 
HETATM    4  N2  UNL     1      19.248   0.166  51.346  1.00  0.00    -0.175 NA
HETATM    5  C5  UNL     1      19.906   1.267  51.272  1.00  0.00     0.089 A 
HETATM    6  C6  UNL     1      21.373   1.188  51.183  1.00  0.00     0.032 C 
HETATM    7  C7  UNL     1      22.280   1.040  52.162  1.00  0.00    -0.004 C 
HETATM    8  C8  UNL     1      23.732   0.921  52.510  1.00  0.00     0.113 C 
HETATM    9 CL1  UNL     1      23.966  -0.418  53.683  1.00  0.00    -0.120 Cl
HETATM   10  C9  UNL     1      24.222   2.208  53.056  1.00  0.00     0.127 C 
HETATM   11  C10 UNL     1      24.158   3.385  52.156  1.00  0.00     0.221 C 
HETATM   12  O2  UNL     1      23.804   2.411  51.474  1.00  0.00    -0.273 OA
HETATM   13  N3  UNL     1      23.869   3.913  50.839  1.00  0.00    -0.352 N 
HETATM   14  C11 UNL     1      23.455   3.692  49.415  1.00  0.00     0.128 C 
HETATM   15  C12 UNL     1      22.334   4.609  49.021  1.00  0.00     0.052 C 
HETATM   16  C13 UNL     1      21.631   5.103  50.266  1.00  0.00     0.131 C 
HETATM   17  C14 UNL     1      22.608   5.992  50.997  1.00  0.00     0.052 C 
HETATM   18  C15 UNL     1      24.007   5.359  50.869  1.00  0.00     0.128 C 
HETATM   19  O3  UNL     1      21.234   4.066  51.107  1.00  0.00    -0.357 OA
HETATM   20  C16 UNL     1      19.891   3.705  51.202  1.00  0.00     0.149 C 
HETATM   21  C17 UNL     1      19.212   2.573  51.277  1.00  0.00     0.026 A 
HETATM   22  H7  UNL     1      17.319  -0.805  51.497  1.00  0.00     0.188 HD
ENDROOT
BRANCH   1  23
HETATM   23  C2  UNL     1      16.965   3.784  51.383  1.00  0.00     0.208 C 
BRANCH  23  24
HETATM   24  O1  UNL     1      16.621   4.214  52.645  1.00  0.00    -0.391 OA
HETATM   25  C1  UNL     1      15.249   4.063  52.893  1.00  0.00     0.201 C 
ENDBRANCH  23  24
ENDBRANCH   1  23
TORSDOF 2
ENDMDL
MODEL 9
REMARK VINA RESULT:      -6.7     10.248     12.566
REMARK  2 active torsions:
REMARK  status: ('A' for Active; 'I' for Inactive)
REMARK    1  A    between atoms: O1_2  and  C2_3 
REMARK    2  A    between atoms: C2_3  and  C3_4 
ROOT
HETATM    1  C3  UNL     1      26.218   6.966  49.371  1.00  0.00    -0.003 A 
HETATM    2  C4  UNL     1      25.344   7.700  50.035  1.00  0.00     0.119 A 
HETATM    3  N1  UNL     1      25.522   9.019  50.527  1.00  0.00    -0.288 N 
HETATM    4  N2  UNL     1      26.762   9.557  50.260  1.00  0.00    -0.175 NA
HETATM    5  C5  UNL     1      27.701   8.952  49.627  1.00  0.00     0.089 A 
HETATM    6  C6  UNL     1      28.970   9.672  49.426  1.00  0.00     0.032 C 
HETATM    7  C7  UNL     1      29.299  10.573  48.486  1.00  0.00    -0.004 C 
HETATM    8  C8  UNL     1      30.363  11.477  47.943  1.00  0.00     0.113 C 
HETATM    9 CL1  UNL     1      29.662  13.090  47.586  1.00  0.00    -0.120 Cl
HETATM   10  C9  UNL     1      30.964  10.870  46.731  1.00  0.00     0.127 C 
HETATM   11  C10 UNL     1      31.648   9.565  46.906  1.00  0.00     0.221 C 
HETATM   12  O2  UNL     1      31.317   9.934  48.043  1.00  0.00    -0.273 OA
HETATM   13  N3  UNL     1      32.105   8.526  47.804  1.00  0.00    -0.352 N 
HETATM   14  C11 UNL     1      32.264   7.991  49.196  1.00  0.00     0.128 C 
HETATM   15  C12 UNL     1      31.753   6.583  49.304  1.00  0.00     0.052 C 
HETATM   16  C13 UNL     1      30.797   6.309  48.165  1.00  0.00     0.131 C 
HETATM   17  C14 UNL     1      31.614   6.319  46.896  1.00  0.00     0.052 C 
HETATM   18  C15 UNL     1      32.666   7.438  47.021  1.00  0.00     0.128 C 
HETATM   19  O3  UNL     1      29.787   7.263  48.069  1.00  0.00    -0.357 OA
HETATM   20  C16 UNL     1      28.484   6.958  48.460  1.00  0.00     0.149 C 
HETATM   21  C17 UNL     1      27.516   7.578  49.113  1.00  0.00     0.026 A 
HETATM   22  H7  UNL     1      24.742   9.487  51.039  1.00  0.00     0.188 HD
ENDROOT
BRANCH   1  23
HETATM   23  C2  UNL     1      25.929   5.587  48.898  1.00  0.00     0.208 C 
BRANCH  23  24
HETATM   24  O1  UNL     1      25.859   4.654  49.909  1.00  0.00    -0.391 OA
HETATM   25  C1  UNL     1      26.514   3.462  49.566  1.00  0.00     0.201 C 
ENDBRANCH  23  24
ENDBRANCH   1  23
TORSDOF 2
ENDMDL
