MODEL 1
REMARK VINA RESULT:      -9.2      0.000      0.000
REMARK  5 active torsions:
REMARK  status: ('A' for Active; 'I' for Inactive)
REMARK    1  A    between atoms: N1_7  and  C6_8 
REMARK    2  A    between atoms: C6_8  and  C7_9 
REMARK    3  A    between atoms: C7_9  and  C8_10 
REMARK    4  A    between atoms: C14_19  and  C16_21 
REMARK    5  A    between atoms: C22_27  and  C23_28 
ROOT
HETATM    1  C8  UNL     1      24.408   1.550  52.007  1.00  0.00    -0.070 C 
HETATM    2  C9  UNL     1      24.453   0.449  52.792  1.00  0.00     0.020 C 
HETATM    3  C10 UNL     1      23.202  -0.128  53.352  1.00  0.00     0.027 A 
HETATM    4  C11 UNL     1      23.461  -0.873  54.489  1.00  0.00     0.133 A 
HETATM    5  N2  UNL     1      22.395  -1.508  55.078  1.00  0.00    -0.253 NA
HETATM    6  C12 UNL     1      21.185  -1.349  54.493  1.00  0.00     0.234 A 
HETATM    7  N3  UNL     1      20.874  -0.640  53.395  1.00  0.00    -0.224 NA
HETATM    8  C13 UNL     1      21.916   0.012  52.777  1.00  0.00     0.137 A 
HETATM    9  N4  UNL     1      21.606   0.804  51.599  1.00  0.00    -0.360 N 
HETATM   10  C14 UNL     1      22.045   2.120  51.221  1.00  0.00     0.063 C 
HETATM   11  C15 UNL     1      21.156   3.097  52.062  1.00  0.00     0.044 C 
HETATM   12  C22 UNL     1      23.427   2.520  51.479  1.00  0.00     0.055 C 
HETATM   13  H18 UNL     1      20.938   0.156  51.063  1.00  0.00     0.162 HD
ENDROOT
BRANCH   1  14
HETATM   14  C7  UNL     1      25.859   1.798  51.647  1.00  0.00     0.065 C 
BRANCH  14  15
HETATM   15  C6  UNL     1      26.604   0.506  51.916  1.00  0.00     0.277 C 
BRANCH  15  16
HETATM   16  N1  UNL     1      27.921   0.767  52.472  1.00  0.00     0.097 N 
HETATM   17  C2  UNL     1      28.303  -0.291  53.368  1.00  0.00     0.242 C 
HETATM   18  C1  UNL     1      27.619  -1.598  53.168  1.00  0.00     0.045 C 
HETATM   19  C3  UNL     1      28.085   0.132  54.826  1.00  0.00     0.203 C 
HETATM   20  O1  UNL     1      29.035   1.097  55.095  1.00  0.00    -0.387 OA
HETATM   21  C4  UNL     1      29.034   2.130  54.177  1.00  0.00     0.198 C 
HETATM   22  C5  UNL     1      27.914   2.043  53.170  1.00  0.00     0.299 C 
ENDBRANCH  15  16
ENDBRANCH  14  15
ENDBRANCH   1  14
BRANCH  12  23
HETATM   23  C23 UNL     1      23.501   3.620  52.538  1.00  0.00     0.027 A 
HETATM   24  C24 UNL     1      23.662   4.719  53.334  1.00  0.00    -0.024 A 
HETATM   25  O2  UNL     1      24.138   4.823  52.032  1.00  0.00     0.000 OA
HETATM   26  H30 UNL     1      24.723   5.648  51.784  1.00  0.00     0.000 HD
ENDBRANCH  12  23
BRANCH  10  27
HETATM   27  C16 UNL     1      21.560   2.373  49.836  1.00  0.00    -0.030 A 
HETATM   28  C17 UNL     1      20.272   2.572  49.392  1.00  0.00     0.010 A 
HETATM   29  C18 UNL     1      19.879   2.811  48.099  1.00  0.00     0.001 A 
HETATM   30  C19 UNL     1      20.817   2.868  47.117  1.00  0.00     0.000 A 
HETATM   31  C20 UNL     1      22.123   2.682  47.473  1.00  0.00     0.001 A 
HETATM   32  C21 UNL     1      22.484   2.440  48.805  1.00  0.00     0.010 A 
ENDBRANCH  10  27
TORSDOF 5
ENDMDL
MODEL 2
REMARK VINA RESULT:      -8.6      2.713      4.107
REMARK  5 active torsions:
REMARK  status: ('A' for Active; 'I' for Inactive)
REMARK    1  A    between atoms: N1_7  and  C6_8 
REMARK    2  A    between atoms: C6_8  and  C7_9 
REMARK    3  A    between atoms: C7_9  and  C8_10 
REMARK    4  A    between atoms: C14_19  and  C16_21 
REMARK    5  A    between atoms: C22_27  and  C23_28 
ROOT
HETATM    1  C8  UNL     1      24.128   2.537  51.696  1.00  0.00    -0.070 C 
HETATM    2  C9  UNL     1      23.285   1.547  51.317  1.00  0.00     0.020 C 
HETATM    3  C10 UNL     1      22.332   1.758  50.195  1.00  0.00     0.027 A 
HETATM    4  C11 UNL     1      21.253   0.898  50.291  1.00  0.00     0.133 A 
HETATM    5  N2  UNL     1      20.320   0.951  49.283  1.00  0.00    -0.253 NA
HETATM    6  C12 UNL     1      20.541   1.840  48.287  1.00  0.00     0.234 A 
HETATM    7  N3  UNL     1      21.566   2.696  48.142  1.00  0.00    -0.224 NA
HETATM    8  C13 UNL     1      22.520   2.674  49.133  1.00  0.00     0.137 A 
HETATM    9  N4  UNL     1      23.630   3.605  49.015  1.00  0.00    -0.360 N 
HETATM   10  C14 UNL     1      24.247   4.448  50.004  1.00  0.00     0.063 C 
HETATM   11  C15 UNL     1      23.284   5.674  50.143  1.00  0.00     0.044 C 
HETATM   12  C22 UNL     1      24.442   3.941  51.361  1.00  0.00     0.055 C 
HETATM   13  H18 UNL     1      23.883   3.522  47.975  1.00  0.00     0.162 HD
ENDROOT
BRANCH   1  14
HETATM   14  C7  UNL     1      24.916   1.925  52.836  1.00  0.00     0.065 C 
BRANCH  14  15
HETATM   15  C6  UNL     1      25.744   0.802  52.244  1.00  0.00     0.277 C 
BRANCH  15  16
HETATM   16  N1  UNL     1      27.164   1.040  52.438  1.00  0.00     0.097 N 
HETATM   17  C2  UNL     1      27.775  -0.091  53.083  1.00  0.00     0.242 C 
HETATM   18  C1  UNL     1      27.058  -1.389  52.948  1.00  0.00     0.045 C 
HETATM   19  C3  UNL     1      27.971   0.182  54.579  1.00  0.00     0.203 C 
HETATM   20  O1  UNL     1      28.962   1.138  54.671  1.00  0.00    -0.387 OA
HETATM   21  C4  UNL     1      28.711   2.256  53.899  1.00  0.00     0.198 C 
HETATM   22  C5  UNL     1      27.355   2.241  53.236  1.00  0.00     0.299 C 
ENDBRANCH  15  16
ENDBRANCH  14  15
ENDBRANCH   1  14
BRANCH  12  23
HETATM   23  C23 UNL     1      23.563   4.686  52.366  1.00  0.00     0.027 A 
HETATM   24  C24 UNL     1      22.960   5.407  53.358  1.00  0.00    -0.024 A 
HETATM   25  O2  UNL     1      24.348   5.351  53.391  1.00  0.00     0.000 OA
HETATM   26  H30 UNL     1      24.838   5.712  54.236  1.00  0.00     0.000 HD
ENDBRANCH  12  23
BRANCH  10  27
HETATM   27  C16 UNL     1      25.449   5.065  49.380  1.00  0.00    -0.030 A 
HETATM   28  C17 UNL     1      25.613   6.343  48.895  1.00  0.00     0.010 A 
HETATM   29  C18 UNL     1      26.752   6.865  48.334  1.00  0.00     0.001 A 
HETATM   30  C19 UNL     1      27.859   6.085  48.221  1.00  0.00     0.000 A 
HETATM   31  C20 UNL     1      27.781   4.801  48.680  1.00  0.00     0.001 A 
HETATM   32  C21 UNL     1      26.600   4.303  49.247  1.00  0.00     0.010 A 
ENDBRANCH  10  27
TORSDOF 5
ENDMDL
MODEL 3
REMARK VINA RESULT:      -8.2      2.930      4.861
REMARK  5 active torsions:
REMARK  status: ('A' for Active; 'I' for Inactive)
REMARK    1  A    between atoms: N1_7  and  C6_8 
REMARK    2  A    between atoms: C6_8  and  C7_9 
REMARK    3  A    between atoms: C7_9  and  C8_10 
REMARK    4  A    between atoms: C14_19  and  C16_21 
REMARK    5  A    between atoms: C22_27  and  C23_28 
ROOT
HETATM    1  C8  UNL     1      23.337   2.360  50.767  1.00  0.00    -0.070 C 
HETATM    2  C9  UNL     1      22.295   1.760  50.144  1.00  0.00     0.020 C 
HETATM    3  C10 UNL     1      21.490   2.502  49.138  1.00  0.00     0.027 A 
HETATM    4  C11 UNL     1      20.226   1.955  49.011  1.00  0.00     0.133 A 
HETATM    5  N2  UNL     1      19.394   2.515  48.071  1.00  0.00    -0.253 NA
HETATM    6  C12 UNL     1      19.887   3.552  47.354  1.00  0.00     0.234 A 
HETATM    7  N3  UNL     1      21.100   4.123  47.434  1.00  0.00    -0.224 NA
HETATM    8  C13 UNL     1      21.962   3.590  48.365  1.00  0.00     0.137 A 
HETATM    9  N4  UNL     1      23.274   4.201  48.490  1.00  0.00    -0.360 N 
HETATM   10  C14 UNL     1      24.026   4.559  49.664  1.00  0.00     0.063 C 
HETATM   11  C15 UNL     1      23.396   5.907  50.149  1.00  0.00     0.044 C 
HETATM   12  C22 UNL     1      24.011   3.673  50.826  1.00  0.00     0.055 C 
HETATM   13  H18 UNL     1      23.556   4.340  47.463  1.00  0.00     0.162 HD
ENDROOT
BRANCH   1  14
HETATM   14  C7  UNL     1      23.882   1.283  51.683  1.00  0.00     0.065 C 
BRANCH  14  15
HETATM   15  C6  UNL     1      25.329   1.635  51.962  1.00  0.00     0.277 C 
BRANCH  15  16
HETATM   16  N1  UNL     1      25.651   1.450  53.367  1.00  0.00     0.097 N 
HETATM   17  C2  UNL     1      27.070   1.557  53.571  1.00  0.00     0.242 C 
HETATM   18  C1  UNL     1      27.827   2.310  52.533  1.00  0.00     0.045 C 
HETATM   19  C3  UNL     1      27.704   0.165  53.694  1.00  0.00     0.203 C 
HETATM   20  O1  UNL     1      27.275  -0.349  54.901  1.00  0.00    -0.387 OA
HETATM   21  C4  UNL     1      25.902  -0.314  55.049  1.00  0.00     0.198 C 
HETATM   22  C5  UNL     1      25.172   0.151  53.813  1.00  0.00     0.299 C 
ENDBRANCH  15  16
ENDBRANCH  14  15
ENDBRANCH   1  14
BRANCH  12  23
HETATM   23  C23 UNL     1      23.293   4.320  52.010  1.00  0.00     0.027 A 
HETATM   24  C24 UNL     1      22.841   4.895  53.164  1.00  0.00    -0.024 A 
HETATM   25  O2  UNL     1      24.193   4.579  53.120  1.00  0.00     0.000 OA
HETATM   26  H30 UNL     1      24.746   4.642  54.001  1.00  0.00     0.000 HD
ENDBRANCH  12  23
BRANCH  10  27
HETATM   27  C16 UNL     1      25.378   4.991  49.214  1.00  0.00    -0.030 A 
HETATM   28  C17 UNL     1      25.778   6.216  48.729  1.00  0.00     0.010 A 
HETATM   29  C18 UNL     1      27.046   6.566  48.335  1.00  0.00     0.001 A 
HETATM   30  C19 UNL     1      28.045   5.648  48.410  1.00  0.00     0.000 A 
HETATM   31  C20 UNL     1      27.732   4.404  48.881  1.00  0.00     0.001 A 
HETATM   32  C21 UNL     1      26.425   4.085  49.275  1.00  0.00     0.010 A 
ENDBRANCH  10  27
TORSDOF 5
ENDMDL
MODEL 4
REMARK VINA RESULT:      -8.2      3.342      5.749
REMARK  5 active torsions:
REMARK  status: ('A' for Active; 'I' for Inactive)
REMARK    1  A    between atoms: N1_7  and  C6_8 
REMARK    2  A    between atoms: C6_8  and  C7_9 
REMARK    3  A    between atoms: C7_9  and  C8_10 
REMARK    4  A    between atoms: C14_19  and  C16_21 
REMARK    5  A    between atoms: C22_27  and  C23_28 
ROOT
HETATM    1  C8  UNL     1      23.507   2.561  50.586  1.00  0.00    -0.070 C 
HETATM    2  C9  UNL     1      22.479   1.959  49.942  1.00  0.00     0.020 C 
HETATM    3  C10 UNL     1      21.704   2.696  48.909  1.00  0.00     0.027 A 
HETATM    4  C11 UNL     1      20.441   2.153  48.753  1.00  0.00     0.133 A 
HETATM    5  N2  UNL     1      19.636   2.708  47.788  1.00  0.00    -0.253 NA
HETATM    6  C12 UNL     1      20.151   3.736  47.075  1.00  0.00     0.234 A 
HETATM    7  N3  UNL     1      21.365   4.303  47.181  1.00  0.00    -0.224 NA
HETATM    8  C13 UNL     1      22.199   3.775  48.139  1.00  0.00     0.137 A 
HETATM    9  N4  UNL     1      23.511   4.382  48.292  1.00  0.00    -0.360 N 
HETATM   10  C14 UNL     1      24.234   4.747  49.482  1.00  0.00     0.063 C 
HETATM   11  C15 UNL     1      23.597   6.102  49.939  1.00  0.00     0.044 C 
HETATM   12  C22 UNL     1      24.185   3.872  50.651  1.00  0.00     0.055 C 
HETATM   13  H18 UNL     1      23.820   4.510  47.272  1.00  0.00     0.162 HD
ENDROOT
BRANCH   1  14
HETATM   14  C7  UNL     1      24.023   1.489  51.525  1.00  0.00     0.065 C 
BRANCH  14  15
HETATM   15  C6  UNL     1      22.863   1.089  52.414  1.00  0.00     0.277 C 
BRANCH  15  16
HETATM   16  N1  UNL     1      23.061  -0.240  52.967  1.00  0.00     0.097 N 
HETATM   17  C2  UNL     1      21.806  -0.788  53.408  1.00  0.00     0.242 C 
HETATM   18  C1  UNL     1      20.583  -0.210  52.786  1.00  0.00     0.045 C 
HETATM   19  C3  UNL     1      21.665  -0.654  54.929  1.00  0.00     0.203 C 
HETATM   20  O1  UNL     1      22.576  -1.533  55.481  1.00  0.00    -0.387 OA
HETATM   21  C4  UNL     1      23.857  -1.363  54.993  1.00  0.00     0.198 C 
HETATM   22  C5  UNL     1      24.002  -0.176  54.073  1.00  0.00     0.299 C 
ENDBRANCH  15  16
ENDBRANCH  14  15
ENDBRANCH   1  14
BRANCH  12  23
HETATM   23  C23 UNL     1      23.439   4.532  51.811  1.00  0.00     0.027 A 
HETATM   24  C24 UNL     1      22.949   5.085  52.960  1.00  0.00    -0.024 A 
HETATM   25  O2  UNL     1      24.241   4.577  53.020  1.00  0.00     0.000 OA
HETATM   26  H30 UNL     1      24.698   4.497  53.953  1.00  0.00     0.000 HD
ENDBRANCH  12  23
BRANCH  10  27
HETATM   27  C16 UNL     1      25.599   5.170  49.063  1.00  0.00    -0.030 A 
HETATM   28  C17 UNL     1      26.768   4.443  49.062  1.00  0.00     0.010 A 
HETATM   29  C18 UNL     1      28.004   4.882  48.655  1.00  0.00     0.001 A 
HETATM   30  C19 UNL     1      28.143   6.154  48.198  1.00  0.00     0.000 A 
HETATM   31  C20 UNL     1      27.029   6.944  48.166  1.00  0.00     0.001 A 
HETATM   32  C21 UNL     1      25.784   6.460  48.590  1.00  0.00     0.010 A 
ENDBRANCH  10  27
TORSDOF 5
ENDMDL
MODEL 5
REMARK VINA RESULT:      -8.1      9.493     12.492
REMARK  5 active torsions:
REMARK  status: ('A' for Active; 'I' for Inactive)
REMARK    1  A    between atoms: N1_7  and  C6_8 
REMARK    2  A    between atoms: C6_8  and  C7_9 
REMARK    3  A    between atoms: C7_9  and  C8_10 
REMARK    4  A    between atoms: C14_19  and  C16_21 
REMARK    5  A    between atoms: C22_27  and  C23_28 
ROOT
HETATM    1  C8  UNL     1      32.276   5.894  47.548  1.00  0.00    -0.070 C 
HETATM    2  C9  UNL     1      31.907   6.670  46.501  1.00  0.00     0.020 C 
HETATM    3  C10 UNL     1      32.402   6.372  45.131  1.00  0.00     0.027 A 
HETATM    4  C11 UNL     1      32.368   7.501  44.333  1.00  0.00     0.133 A 
HETATM    5  N2  UNL     1      32.750   7.351  43.021  1.00  0.00    -0.253 NA
HETATM    6  C12 UNL     1      33.125   6.112  42.628  1.00  0.00     0.234 A 
HETATM    7  N3  UNL     1      33.178   4.984  43.355  1.00  0.00    -0.224 NA
HETATM    8  C13 UNL     1      32.804   5.094  44.675  1.00  0.00     0.137 A 
HETATM    9  N4  UNL     1      32.872   3.894  45.492  1.00  0.00    -0.360 N 
HETATM   10  C14 UNL     1      33.377   3.705  46.826  1.00  0.00     0.063 C 
HETATM   11  C15 UNL     1      34.932   3.631  46.659  1.00  0.00     0.044 C 
HETATM   12  C22 UNL     1      33.135   4.729  47.840  1.00  0.00     0.055 C 
HETATM   13  H18 UNL     1      32.452   3.153  44.839  1.00  0.00     0.162 HD
ENDROOT
BRANCH   1  14
HETATM   14  C7  UNL     1      31.563   6.518  48.731  1.00  0.00     0.065 C 
BRANCH  14  15
HETATM   15  C6  UNL     1      30.152   6.833  48.276  1.00  0.00     0.277 C 
BRANCH  15  16
HETATM   16  N1  UNL     1      29.703   8.109  48.808  1.00  0.00     0.097 N 
HETATM   17  C2  UNL     1      28.943   8.822  47.817  1.00  0.00     0.242 C 
HETATM   18  C1  UNL     1      28.334   7.996  46.738  1.00  0.00     0.045 C 
HETATM   19  C3  UNL     1      29.805   9.900  47.150  1.00  0.00     0.203 C 
HETATM   20  O1  UNL     1      30.019  10.872  48.107  1.00  0.00    -0.387 OA
HETATM   21  C4  UNL     1      30.522  10.367  49.290  1.00  0.00     0.198 C 
HETATM   22  C5  UNL     1      30.851   8.895  49.228  1.00  0.00     0.299 C 
ENDBRANCH  15  16
ENDBRANCH  14  15
ENDBRANCH   1  14
BRANCH  12  23
HETATM   23  C23 UNL     1      34.435   5.420  48.256  1.00  0.00     0.027 A 
HETATM   24  C24 UNL     1      35.570   5.937  48.814  1.00  0.00    -0.024 A 
HETATM   25  O2  UNL     1      34.823   5.080  49.614  1.00  0.00     0.000 OA
HETATM   26  H30 UNL     1      35.069   5.006  50.623  1.00  0.00     0.000 HD
ENDBRANCH  12  23
BRANCH  10  27
HETATM   27  C16 UNL     1      33.043   2.314  47.238  1.00  0.00    -0.030 A 
HETATM   28  C17 UNL     1      33.339   1.664  48.415  1.00  0.00     0.010 A 
HETATM   29  C18 UNL     1      32.997   0.377  48.748  1.00  0.00     0.001 A 
HETATM   30  C19 UNL     1      32.294  -0.377  47.862  1.00  0.00     0.000 A 
HETATM   31  C20 UNL     1      31.958   0.194  46.667  1.00  0.00     0.001 A 
HETATM   32  C21 UNL     1      32.326   1.511  46.364  1.00  0.00     0.010 A 
ENDBRANCH  10  27
TORSDOF 5
ENDMDL
MODEL 6
REMARK VINA RESULT:      -8.0      3.076      7.779
REMARK  5 active torsions:
REMARK  status: ('A' for Active; 'I' for Inactive)
REMARK    1  A    between atoms: N1_7  and  C6_8 
REMARK    2  A    between atoms: C6_8  and  C7_9 
REMARK    3  A    between atoms: C7_9  and  C8_10 
REMARK    4  A    between atoms: C14_19  and  C16_21 
REMARK    5  A    between atoms: C22_27  and  C23_28 
ROOT
HETATM    1  C8  UNL     1      22.591   2.423  49.693  1.00  0.00    -0.070 C 
HETATM    2  C9  UNL     1      22.857   3.363  48.756  1.00  0.00     0.020 C 
HETATM    3  C10 UNL     1      23.869   4.420  49.016  1.00  0.00     0.027 A 
HETATM    4  C11 UNL     1      23.641   5.533  48.227  1.00  0.00     0.133 A 
HETATM    5  N2  UNL     1      24.539   6.568  48.330  1.00  0.00    -0.253 NA
HETATM    6  C12 UNL     1      25.568   6.405  49.194  1.00  0.00     0.234 A 
HETATM    7  N3  UNL     1      25.839   5.352  49.983  1.00  0.00    -0.224 NA
HETATM    8  C13 UNL     1      24.961   4.296  49.908  1.00  0.00     0.137 A 
HETATM    9  N4  UNL     1      25.217   3.151  50.766  1.00  0.00    -0.360 N 
HETATM   10  C14 UNL     1      24.315   2.376  51.577  1.00  0.00     0.063 C 
HETATM   11  C15 UNL     1      24.090   3.239  52.864  1.00  0.00     0.044 C 
HETATM   12  C22 UNL     1      22.981   2.062  51.072  1.00  0.00     0.055 C 
HETATM   13  H18 UNL     1      26.277   3.022  50.658  1.00  0.00     0.162 HD
ENDROOT
BRANCH   1  14
HETATM   14  C7  UNL     1      21.535   1.551  49.043  1.00  0.00     0.065 C 
BRANCH  14  15
HETATM   15  C6  UNL     1      20.795   2.425  48.050  1.00  0.00     0.277 C 
BRANCH  15  16
HETATM   16  N1  UNL     1      19.375   2.476  48.355  1.00  0.00     0.097 N 
HETATM   17  C2  UNL     1      18.932   3.842  48.434  1.00  0.00     0.242 C 
HETATM   18  C1  UNL     1      19.768   4.845  47.719  1.00  0.00     0.045 C 
HETATM   19  C3  UNL     1      18.815   4.287  49.897  1.00  0.00     0.203 C 
HETATM   20  O1  UNL     1      17.740   3.602  50.426  1.00  0.00    -0.387 OA
HETATM   21  C4  UNL     1      17.819   2.236  50.232  1.00  0.00     0.198 C 
HETATM   22  C5  UNL     1      19.118   1.787  49.610  1.00  0.00     0.299 C 
ENDBRANCH  15  16
ENDBRANCH  14  15
ENDBRANCH   1  14
BRANCH  12  23
HETATM   23  C23 UNL     1      21.896   2.775  51.880  1.00  0.00     0.027 A 
HETATM   24  C24 UNL     1      20.862   3.217  52.655  1.00  0.00    -0.024 A 
HETATM   25  O2  UNL     1      21.015   1.839  52.555  1.00  0.00     0.000 OA
HETATM   26  H30 UNL     1      20.259   1.229  52.931  1.00  0.00     0.000 HD
ENDBRANCH  12  23
BRANCH  10  27
HETATM   27  C16 UNL     1      25.080   1.215  52.112  1.00  0.00    -0.030 A 
HETATM   28  C17 UNL     1      26.358   0.806  51.806  1.00  0.00     0.010 A 
HETATM   29  C18 UNL     1      27.021  -0.272  52.337  1.00  0.00     0.001 A 
HETATM   30  C19 UNL     1      26.399  -1.048  53.263  1.00  0.00     0.000 A 
HETATM   31  C20 UNL     1      25.126  -0.710  53.624  1.00  0.00     0.001 A 
HETATM   32  C21 UNL     1      24.482   0.399  53.059  1.00  0.00     0.010 A 
ENDBRANCH  10  27
TORSDOF 5
ENDMDL
MODEL 7
REMARK VINA RESULT:      -7.7      3.085      6.465
REMARK  5 active torsions:
REMARK  status: ('A' for Active; 'I' for Inactive)
REMARK    1  A    between atoms: N1_7  and  C6_8 
REMARK    2  A    between atoms: C6_8  and  C7_9 
REMARK    3  A    between atoms: C7_9  and  C8_10 
REMARK    4  A    between atoms: C14_19  and  C16_21 
REMARK    5  A    between atoms: C22_27  and  C23_28 
ROOT
HETATM    1  C8  UNL     1      23.034   3.345  51.633  1.00  0.00    -0.070 C 
HETATM    2  C9  UNL     1      23.296   2.457  52.621  1.00  0.00     0.020 C 
HETATM    3  C10 UNL     1      24.589   1.723  52.651  1.00  0.00     0.027 A 
HETATM    4  C11 UNL     1      24.477   0.545  53.367  1.00  0.00     0.133 A 
HETATM    5  N2  UNL     1      25.617  -0.207  53.518  1.00  0.00    -0.253 NA
HETATM    6  C12 UNL     1      26.749   0.273  52.953  1.00  0.00     0.234 A 
HETATM    7  N3  UNL     1      26.917   1.405  52.248  1.00  0.00    -0.224 NA
HETATM    8  C13 UNL     1      25.796   2.184  52.074  1.00  0.00     0.137 A 
HETATM    9  N4  UNL     1      25.943   3.404  51.297  1.00  0.00    -0.360 N 
HETATM   10  C14 UNL     1      25.104   3.957  50.267  1.00  0.00     0.063 C 
HETATM   11  C15 UNL     1      25.459   3.141  48.979  1.00  0.00     0.044 C 
HETATM   12  C22 UNL     1      23.651   3.875  50.401  1.00  0.00     0.055 C 
HETATM   13  H18 UNL     1      26.864   3.803  51.678  1.00  0.00     0.162 HD
ENDROOT
BRANCH   1  14
HETATM   14  C7  UNL     1      21.652   3.866  51.971  1.00  0.00     0.065 C 
BRANCH  14  15
HETATM   15  C6  UNL     1      20.905   2.729  52.639  1.00  0.00     0.277 C 
BRANCH  15  16
HETATM   16  N1  UNL     1      19.582   2.560  52.063  1.00  0.00     0.097 N 
HETATM   17  C2  UNL     1      19.387   1.196  51.654  1.00  0.00     0.242 C 
HETATM   18  C1  UNL     1      20.247   0.181  52.323  1.00  0.00     0.045 C 
HETATM   19  C3  UNL     1      19.586   1.052  50.140  1.00  0.00     0.203 C 
HETATM   20  O1  UNL     1      18.514   1.689  49.547  1.00  0.00    -0.387 OA
HETATM   21  C4  UNL     1      18.336   2.984  49.996  1.00  0.00     0.198 C 
HETATM   22  C5  UNL     1      19.425   3.456  50.928  1.00  0.00     0.299 C 
ENDBRANCH  15  16
ENDBRANCH  14  15
ENDBRANCH   1  14
BRANCH  12  23
HETATM   23  C23 UNL     1      23.046   2.949  49.346  1.00  0.00     0.027 A 
HETATM   24  C24 UNL     1      22.399   2.292  48.338  1.00  0.00    -0.024 A 
HETATM   25  O2  UNL     1      22.112   3.645  48.479  1.00  0.00     0.000 OA
HETATM   26  H30 UNL     1      21.319   4.042  47.932  1.00  0.00     0.000 HD
ENDBRANCH  12  23
BRANCH  10  27
HETATM   27  C16 UNL     1      25.635   5.308  49.936  1.00  0.00    -0.030 A 
HETATM   28  C17 UNL     1      25.276   6.531  50.457  1.00  0.00     0.010 A 
HETATM   29  C18 UNL     1      25.808   7.752  50.120  1.00  0.00     0.001 A 
HETATM   30  C19 UNL     1      26.790   7.816  49.184  1.00  0.00     0.000 A 
HETATM   31  C20 UNL     1      27.206   6.645  48.617  1.00  0.00     0.001 A 
HETATM   32  C21 UNL     1      26.639   5.418  48.986  1.00  0.00     0.010 A 
ENDBRANCH  10  27
TORSDOF 5
ENDMDL
MODEL 8
REMARK VINA RESULT:      -7.7      8.703     10.769
REMARK  5 active torsions:
REMARK  status: ('A' for Active; 'I' for Inactive)
REMARK    1  A    between atoms: N1_7  and  C6_8 
REMARK    2  A    between atoms: C6_8  and  C7_9 
REMARK    3  A    between atoms: C7_9  and  C8_10 
REMARK    4  A    between atoms: C14_19  and  C16_21 
REMARK    5  A    between atoms: C22_27  and  C23_28 
ROOT
HETATM    1  C8  UNL     1      31.056   8.721  48.119  1.00  0.00    -0.070 C 
HETATM    2  C9  UNL     1      31.263   9.929  48.694  1.00  0.00     0.020 C 
HETATM    3  C10 UNL     1      30.153  10.912  48.802  1.00  0.00     0.027 A 
HETATM    4  C11 UNL     1      30.639  12.202  48.915  1.00  0.00     0.133 A 
HETATM    5  N2  UNL     1      29.716  13.208  49.076  1.00  0.00    -0.253 NA
HETATM    6  C12 UNL     1      28.413  12.845  49.110  1.00  0.00     0.234 A 
HETATM    7  N3  UNL     1      27.884  11.615  49.005  1.00  0.00    -0.224 NA
HETATM    8  C13 UNL     1      28.778  10.581  48.841  1.00  0.00     0.137 A 
HETATM    9  N4  UNL     1      28.233   9.241  48.703  1.00  0.00    -0.360 N 
HETATM   10  C14 UNL     1      28.580   8.186  47.788  1.00  0.00     0.063 C 
HETATM   11  C15 UNL     1      27.871   8.569  46.446  1.00  0.00     0.044 C 
HETATM   12  C22 UNL     1      29.982   7.962  47.446  1.00  0.00     0.055 C 
HETATM   13  H18 UNL     1      27.475   9.227  49.463  1.00  0.00     0.162 HD
ENDROOT
BRANCH   1  14
HETATM   14  C7  UNL     1      32.404   8.036  48.219  1.00  0.00     0.065 C 
BRANCH  14  15
HETATM   15  C6  UNL     1      32.133   6.550  48.334  1.00  0.00     0.277 C 
BRANCH  15  16
HETATM   16  N1  UNL     1      33.125   5.778  47.605  1.00  0.00     0.097 N 
HETATM   17  C2  UNL     1      32.583   4.501  47.226  1.00  0.00     0.242 C 
HETATM   18  C1  UNL     1      31.099   4.414  47.155  1.00  0.00     0.045 C 
HETATM   19  C3  UNL     1      33.071   3.404  48.180  1.00  0.00     0.203 C 
HETATM   20  O1  UNL     1      34.417   3.236  47.922  1.00  0.00    -0.387 OA
HETATM   21  C4  UNL     1      35.130   4.419  47.973  1.00  0.00     0.198 C 
HETATM   22  C5  UNL     1      34.310   5.601  48.429  1.00  0.00     0.299 C 
ENDBRANCH  15  16
ENDBRANCH  14  15
ENDBRANCH   1  14
BRANCH  12  23
HETATM   23  C23 UNL     1      30.259   8.299  45.980  1.00  0.00     0.027 A 
HETATM   24  C24 UNL     1      30.589   8.404  44.658  1.00  0.00    -0.024 A 
HETATM   25  O2  UNL     1      30.900   7.200  45.279  1.00  0.00     0.000 OA
HETATM   26  H30 UNL     1      31.499   6.519  44.766  1.00  0.00     0.000 HD
ENDBRANCH  12  23
BRANCH  10  27
HETATM   27  C16 UNL     1      27.826   6.970  48.202  1.00  0.00    -0.030 A 
HETATM   28  C17 UNL     1      28.283   5.681  48.363  1.00  0.00     0.010 A 
HETATM   29  C18 UNL     1      27.543   4.594  48.756  1.00  0.00     0.001 A 
HETATM   30  C19 UNL     1      26.221   4.750  49.028  1.00  0.00     0.000 A 
HETATM   31  C20 UNL     1      25.687   6.000  48.894  1.00  0.00     0.001 A 
HETATM   32  C21 UNL     1      26.475   7.086  48.489  1.00  0.00     0.010 A 
ENDBRANCH  10  27
TORSDOF 5
ENDMDL
MODEL 9
REMARK VINA RESULT:      -7.6      8.809     10.868
REMARK  5 active torsions:
REMARK  status: ('A' for Active; 'I' for Inactive)
REMARK    1  A    between atoms: N1_7  and  C6_8 
REMARK    2  A    between atoms: C6_8  and  C7_9 
REMARK    3  A    between atoms: C7_9  and  C8_10 
REMARK    4  A    between atoms: C14_19  and  C16_21 
REMARK    5  A    between atoms: C22_27  and  C23_28 
ROOT
HETATM    1  C8  UNL     1      30.511   8.563  48.967  1.00  0.00    -0.070 C 
HETATM    2  C9  UNL     1      30.607   9.852  49.371  1.00  0.00     0.020 C 
HETATM    3  C10 UNL     1      29.528  10.824  49.052  1.00  0.00     0.027 A 
HETATM    4  C11 UNL     1      30.006  12.122  49.067  1.00  0.00     0.133 A 
HETATM    5  N2  UNL     1      29.097  13.127  48.839  1.00  0.00    -0.253 NA
HETATM    6  C12 UNL     1      27.814  12.756  48.621  1.00  0.00     0.234 A 
HETATM    7  N3  UNL     1      27.294  11.518  48.594  1.00  0.00    -0.224 NA
HETATM    8  C13 UNL     1      28.174  10.484  48.816  1.00  0.00     0.137 A 
HETATM    9  N4  UNL     1      27.644   9.132  48.771  1.00  0.00    -0.360 N 
HETATM   10  C14 UNL     1      28.171   7.947  48.148  1.00  0.00     0.063 C 
HETATM   11  C15 UNL     1      27.809   8.096  46.632  1.00  0.00     0.044 C 
HETATM   12  C22 UNL     1      29.608   7.690  48.189  1.00  0.00     0.055 C 
HETATM   13  H18 UNL     1      26.728   9.231  49.321  1.00  0.00     0.162 HD
ENDROOT
BRANCH   1  14
HETATM   14  C7  UNL     1      31.779   7.923  49.493  1.00  0.00     0.065 C 
BRANCH  14  15
HETATM   15  C6  UNL     1      32.922   8.464  48.658  1.00  0.00     0.277 C 
BRANCH  15  16
HETATM   16  N1  UNL     1      34.016   7.509  48.588  1.00  0.00     0.097 N 
HETATM   17  C2  UNL     1      34.634   7.554  47.290  1.00  0.00     0.242 C 
HETATM   18  C1  UNL     1      34.444   8.812  46.516  1.00  0.00     0.045 C 
HETATM   19  C3  UNL     1      34.143   6.391  46.418  1.00  0.00     0.203 C 
HETATM   20  O1  UNL     1      34.689   5.245  46.960  1.00  0.00    -0.387 OA
HETATM   21  C4  UNL     1      34.439   5.111  48.313  1.00  0.00     0.198 C 
HETATM   22  C5  UNL     1      33.518   6.171  48.865  1.00  0.00     0.299 C 
ENDBRANCH  15  16
ENDBRANCH  14  15
ENDBRANCH   1  14
BRANCH  12  23
HETATM   23  C23 UNL     1      30.233   7.787  46.797  1.00  0.00     0.027 A 
HETATM   24  C24 UNL     1      30.857   7.675  45.587  1.00  0.00    -0.024 A 
HETATM   25  O2  UNL     1      30.922   6.566  46.421  1.00  0.00     0.000 OA
HETATM   26  H30 UNL     1      31.563   5.787  46.160  1.00  0.00     0.000 HD
ENDBRANCH  12  23
BRANCH  10  27
HETATM   27  C16 UNL     1      27.310   6.804  48.561  1.00  0.00    -0.030 A 
HETATM   28  C17 UNL     1      25.987   6.810  48.942  1.00  0.00     0.010 A 
HETATM   29  C18 UNL     1      25.236   5.721  49.307  1.00  0.00     0.001 A 
HETATM   30  C19 UNL     1      25.806   4.488  49.310  1.00  0.00     0.000 A 
HETATM   31  C20 UNL     1      27.119   4.393  48.943  1.00  0.00     0.001 A 
HETATM   32  C21 UNL     1      27.853   5.529  48.577  1.00  0.00     0.010 A 
ENDBRANCH  10  27
TORSDOF 5
ENDMDL
