MODEL 1
REMARK VINA RESULT:      -7.1      0.000      0.000
REMARK  5 active torsions:
REMARK  status: ('A' for Active; 'I' for Inactive)
REMARK    1  A    between atoms: C2_2  and  C3_4 
REMARK    2  A    between atoms: C4_6  and  C5_7 
REMARK    3  A    between atoms: C5_7  and  N1_8 
REMARK    4  A    between atoms: C11_17  and  C12_18 
REMARK    5  A    between atoms: C12_18  and  C13_19 
ROOT
HETATM    1  N1  UNL     1      24.637   1.931  52.612  1.00  0.00    -0.377 N 
HETATM    2  C6  UNL     1      23.635   0.996  52.185  1.00  0.00     0.271 C 
HETATM    3  N2  UNL     1      22.328   1.539  52.291  1.00  0.00    -0.259 N 
HETATM    4  C7  UNL     1      21.226   1.079  52.652  1.00  0.00     0.230 A 
HETATM    5  N3  UNL     1      21.101   2.413  52.279  1.00  0.00    -0.235 N 
HETATM    6  C8  UNL     1      20.122   3.190  52.169  1.00  0.00     0.252 C 
HETATM    7  O1  UNL     1      21.211   3.990  51.809  1.00  0.00    -0.340 OA
HETATM    8  C9  UNL     1      21.511   4.277  50.417  1.00  0.00     0.212 C 
HETATM    9  C10 UNL     1      22.924   3.879  50.158  1.00  0.00    -0.042 C 
HETATM   10  C11 UNL     1      23.021   2.918  49.197  1.00  0.00    -0.018 C 
HETATM   11  C14 UNL     1      24.183   4.310  50.799  1.00  0.00     0.152 C 
HETATM   12  N4  UNL     1      24.306   4.307  52.167  1.00  0.00    -0.403 N 
HETATM   13  C15 UNL     1      24.232   3.197  53.000  1.00  0.00     0.237 C 
HETATM   14  H21 UNL     1      24.482   5.205  52.656  1.00  0.00     0.155 HD
ENDROOT
BRANCH   1  15
HETATM   15  C5  UNL     1      25.932   1.554  52.329  1.00  0.00     0.149 C 
BRANCH  15  16
HETATM   16  C4  UNL     1      26.204   0.094  52.293  1.00  0.00     0.015 C 
HETATM   17  C3  UNL     1      27.166  -0.668  52.793  1.00  0.00     0.043 C 
HETATM   18 CL1  UNL     1      27.082  -2.382  52.497  1.00  0.00    -0.086 Cl
BRANCH  17  19
HETATM   19  C2  UNL     1      28.308  -0.150  53.587  1.00  0.00     0.210 C 
HETATM   20  C1  UNL     1      29.518  -1.048  53.430  1.00  0.00     0.051 C 
HETATM   21  F1  UNL     1      27.941  -0.227  54.919  1.00  0.00    -0.244 F 
ENDBRANCH  17  19
ENDBRANCH  15  16
ENDBRANCH   1  15
BRANCH  10  22
HETATM   22  C12 UNL     1      22.113   2.153  48.333  1.00  0.00     0.058 C 
BRANCH  22  23
HETATM   23  C13 UNL     1      21.681   0.905  49.043  1.00  0.00     0.225 C 
HETATM   24  F2  UNL     1      20.348   0.948  49.413  1.00  0.00    -0.255 F 
ENDBRANCH  22  23
ENDBRANCH  10  22
TORSDOF 5
ENDMDL
MODEL 2
REMARK VINA RESULT:      -6.9      1.622      1.968
REMARK  5 active torsions:
REMARK  status: ('A' for Active; 'I' for Inactive)
REMARK    1  A    between atoms: C2_2  and  C3_4 
REMARK    2  A    between atoms: C4_6  and  C5_7 
REMARK    3  A    between atoms: C5_7  and  N1_8 
REMARK    4  A    between atoms: C11_17  and  C12_18 
REMARK    5  A    between atoms: C12_18  and  C13_19 
ROOT
HETATM    1  N1  UNL     1      23.486   1.865  52.841  1.00  0.00    -0.377 N 
HETATM    2  C6  UNL     1      22.143   1.818  52.336  1.00  0.00     0.271 C 
HETATM    3  N2  UNL     1      21.660   3.110  52.000  1.00  0.00    -0.259 N 
HETATM    4  C7  UNL     1      20.562   3.686  52.134  1.00  0.00     0.230 A 
HETATM    5  N3  UNL     1      21.482   4.525  51.514  1.00  0.00    -0.235 N 
HETATM    6  C8  UNL     1      21.404   5.674  51.018  1.00  0.00     0.252 C 
HETATM    7  O1  UNL     1      22.745   5.329  50.822  1.00  0.00    -0.340 OA
HETATM    8  C9  UNL     1      23.227   4.875  49.529  1.00  0.00     0.212 C 
HETATM    9  C10 UNL     1      23.896   3.557  49.723  1.00  0.00    -0.042 C 
HETATM   10  C11 UNL     1      23.299   2.565  49.004  1.00  0.00    -0.018 C 
HETATM   11  C14 UNL     1      25.029   3.165  50.586  1.00  0.00     0.152 C 
HETATM   12  N4  UNL     1      25.041   3.503  51.918  1.00  0.00    -0.403 N 
HETATM   13  C15 UNL     1      24.130   3.090  52.883  1.00  0.00     0.237 C 
HETATM   14  H21 UNL     1      25.799   4.117  52.271  1.00  0.00     0.155 HD
ENDROOT
BRANCH   1  15
HETATM   15  C5  UNL     1      24.091   0.635  52.977  1.00  0.00     0.149 C 
BRANCH  15  16
HETATM   16  C4  UNL     1      25.335   0.596  53.788  1.00  0.00     0.015 C 
HETATM   17  C3  UNL     1      26.448  -0.121  53.720  1.00  0.00     0.043 C 
HETATM   18 CL1  UNL     1      27.681   0.175  54.912  1.00  0.00    -0.086 Cl
BRANCH  17  19
HETATM   19  C2  UNL     1      26.706  -1.159  52.690  1.00  0.00     0.210 C 
HETATM   20  C1  UNL     1      28.045  -1.824  52.927  1.00  0.00     0.051 C 
HETATM   21  F1  UNL     1      26.808  -0.505  51.475  1.00  0.00    -0.244 F 
ENDBRANCH  17  19
ENDBRANCH  15  16
ENDBRANCH   1  15
BRANCH  10  22
HETATM   22  C12 UNL     1      22.166   2.428  48.079  1.00  0.00     0.058 C 
BRANCH  22  23
HETATM   23  C13 UNL     1      21.099   1.592  48.718  1.00  0.00     0.225 C 
HETATM   24  F2  UNL     1      21.610   0.446  49.301  1.00  0.00    -0.255 F 
ENDBRANCH  22  23
ENDBRANCH  10  22
TORSDOF 5
ENDMDL
MODEL 3
REMARK VINA RESULT:      -6.6      2.435      3.124
REMARK  5 active torsions:
REMARK  status: ('A' for Active; 'I' for Inactive)
REMARK    1  A    between atoms: C2_2  and  C3_4 
REMARK    2  A    between atoms: C4_6  and  C5_7 
REMARK    3  A    between atoms: C5_7  and  N1_8 
REMARK    4  A    between atoms: C11_17  and  C12_18 
REMARK    5  A    between atoms: C12_18  and  C13_19 
ROOT
HETATM    1  N1  UNL     1      23.895   2.054  52.199  1.00  0.00    -0.377 N 
HETATM    2  C6  UNL     1      22.500   1.957  51.874  1.00  0.00     0.271 C 
HETATM    3  N2  UNL     1      21.911   3.235  51.687  1.00  0.00    -0.259 N 
HETATM    4  C7  UNL     1      20.814   3.737  52.001  1.00  0.00     0.230 A 
HETATM    5  N3  UNL     1      21.597   4.662  51.320  1.00  0.00    -0.235 N 
HETATM    6  C8  UNL     1      21.394   5.830  50.912  1.00  0.00     0.252 C 
HETATM    7  O1  UNL     1      22.712   5.576  50.519  1.00  0.00    -0.340 OA
HETATM    8  C9  UNL     1      23.037   5.224  49.148  1.00  0.00     0.212 C 
HETATM    9  C10 UNL     1      23.792   3.940  49.167  1.00  0.00    -0.042 C 
HETATM   10  C11 UNL     1      23.154   2.956  48.473  1.00  0.00    -0.018 C 
HETATM   11  C14 UNL     1      25.050   3.566  49.847  1.00  0.00     0.152 C 
HETATM   12  N4  UNL     1      25.226   3.830  51.183  1.00  0.00    -0.403 N 
HETATM   13  C15 UNL     1      24.475   3.311  52.233  1.00  0.00     0.237 C 
HETATM   14  H21 UNL     1      25.992   4.467  51.471  1.00  0.00     0.155 HD
ENDROOT
BRANCH   1  15
HETATM   15  C5  UNL     1      24.575   0.857  52.176  1.00  0.00     0.149 C 
BRANCH  15  16
HETATM   16  C4  UNL     1      24.701   0.141  53.471  1.00  0.00     0.015 C 
HETATM   17  C3  UNL     1      23.871  -0.602  54.189  1.00  0.00     0.043 C 
HETATM   18 CL1  UNL     1      24.458  -1.261  55.689  1.00  0.00    -0.086 Cl
BRANCH  17  19
HETATM   19  C2  UNL     1      22.473  -0.906  53.791  1.00  0.00     0.210 C 
HETATM   20  C1  UNL     1      21.779  -1.722  54.862  1.00  0.00     0.051 C 
HETATM   21  F1  UNL     1      22.539  -1.715  52.670  1.00  0.00    -0.244 F 
ENDBRANCH  17  19
ENDBRANCH  15  16
ENDBRANCH   1  15
BRANCH  10  22
HETATM   22  C12 UNL     1      21.915   2.804  47.699  1.00  0.00     0.058 C 
BRANCH  22  23
HETATM   23  C13 UNL     1      20.981   1.886  48.427  1.00  0.00     0.225 C 
HETATM   24  F2  UNL     1      21.498   0.608  48.556  1.00  0.00    -0.255 F 
ENDBRANCH  22  23
ENDBRANCH  10  22
TORSDOF 5
ENDMDL
MODEL 4
REMARK VINA RESULT:      -6.6      2.651      3.447
REMARK  5 active torsions:
REMARK  status: ('A' for Active; 'I' for Inactive)
REMARK    1  A    between atoms: C2_2  and  C3_4 
REMARK    2  A    between atoms: C4_6  and  C5_7 
REMARK    3  A    between atoms: C5_7  and  N1_8 
REMARK    4  A    between atoms: C11_17  and  C12_18 
REMARK    5  A    between atoms: C12_18  and  C13_19 
ROOT
HETATM    1  N1  UNL     1      23.207   2.246  51.945  1.00  0.00    -0.377 N 
HETATM    2  C6  UNL     1      23.673   1.943  50.621  1.00  0.00     0.271 C 
HETATM    3  N2  UNL     1      22.931   2.634  49.629  1.00  0.00    -0.259 N 
HETATM    4  C7  UNL     1      22.493   2.324  48.503  1.00  0.00     0.230 A 
HETATM    5  N3  UNL     1      22.163   3.639  48.811  1.00  0.00    -0.235 N 
HETATM    6  C8  UNL     1      21.598   4.559  48.173  1.00  0.00     0.252 C 
HETATM    7  O1  UNL     1      21.877   5.149  49.410  1.00  0.00    -0.340 OA
HETATM    8  C9  UNL     1      23.004   6.049  49.581  1.00  0.00     0.212 C 
HETATM    9  C10 UNL     1      23.841   5.533  50.700  1.00  0.00    -0.042 C 
HETATM   10  C11 UNL     1      25.109   5.234  50.300  1.00  0.00    -0.018 C 
HETATM   11  C14 UNL     1      23.504   5.252  52.111  1.00  0.00     0.152 C 
HETATM   12  N4  UNL     1      22.400   4.498  52.428  1.00  0.00    -0.403 N 
HETATM   13  C15 UNL     1      22.183   3.168  52.085  1.00  0.00     0.237 C 
HETATM   14  H21 UNL     1      21.641   4.932  52.986  1.00  0.00     0.155 HD
ENDROOT
BRANCH   1  15
HETATM   15  C5  UNL     1      24.018   1.787  52.959  1.00  0.00     0.149 C 
BRANCH  15  16
HETATM   16  C4  UNL     1      24.884   0.623  52.639  1.00  0.00     0.015 C 
HETATM   17  C3  UNL     1      25.890   0.033  53.269  1.00  0.00     0.043 C 
HETATM   18 CL1  UNL     1      26.634  -1.342  52.503  1.00  0.00    -0.086 Cl
BRANCH  17  19
HETATM   19  C2  UNL     1      26.420   0.473  54.584  1.00  0.00     0.210 C 
HETATM   20  C1  UNL     1      27.911   0.223  54.669  1.00  0.00     0.051 C 
HETATM   21  F1  UNL     1      25.837  -0.336  55.544  1.00  0.00    -0.244 F 
ENDBRANCH  17  19
ENDBRANCH  15  16
ENDBRANCH   1  15
BRANCH  10  22
HETATM   22  C12 UNL     1      25.893   5.278  49.059  1.00  0.00     0.058 C 
BRANCH  22  23
HETATM   23  C13 UNL     1      26.986   4.255  49.124  1.00  0.00     0.225 C 
HETATM   24  F2  UNL     1      28.070   4.595  48.332  1.00  0.00    -0.255 F 
ENDBRANCH  22  23
ENDBRANCH  10  22
TORSDOF 5
ENDMDL
MODEL 5
REMARK VINA RESULT:      -6.2      8.853     11.242
REMARK  5 active torsions:
REMARK  status: ('A' for Active; 'I' for Inactive)
REMARK    1  A    between atoms: C2_2  and  C3_4 
REMARK    2  A    between atoms: C4_6  and  C5_7 
REMARK    3  A    between atoms: C5_7  and  N1_8 
REMARK    4  A    between atoms: C11_17  and  C12_18 
REMARK    5  A    between atoms: C12_18  and  C13_19 
ROOT
HETATM    1  N1  UNL     1      30.388   8.495  48.080  1.00  0.00    -0.377 N 
HETATM    2  C6  UNL     1      31.019   8.356  46.798  1.00  0.00     0.271 C 
HETATM    3  N2  UNL     1      32.433   8.445  46.894  1.00  0.00    -0.259 N 
HETATM    4  C7  UNL     1      33.315   8.980  46.194  1.00  0.00     0.230 A 
HETATM    5  N3  UNL     1      33.882   8.344  47.293  1.00  0.00    -0.235 N 
HETATM    6  C8  UNL     1      35.064   8.148  47.662  1.00  0.00     0.252 C 
HETATM    7  O1  UNL     1      34.308   7.543  48.671  1.00  0.00    -0.340 OA
HETATM    8  C9  UNL     1      34.124   6.103  48.717  1.00  0.00     0.212 C 
HETATM    9  C10 UNL     1      32.661   5.825  48.755  1.00  0.00    -0.042 C 
HETATM   10  C11 UNL     1      32.249   5.085  47.687  1.00  0.00    -0.018 C 
HETATM   11  C14 UNL     1      31.617   6.260  49.706  1.00  0.00     0.152 C 
HETATM   12  N4  UNL     1      31.498   7.584  50.053  1.00  0.00    -0.403 N 
HETATM   13  C15 UNL     1      31.193   8.637  49.198  1.00  0.00     0.237 C 
HETATM   14  H21 UNL     1      31.632   7.856  51.045  1.00  0.00     0.155 HD
ENDROOT
BRANCH   1  15
HETATM   15  C5  UNL     1      29.042   8.199  48.093  1.00  0.00     0.149 C 
BRANCH  15  16
HETATM   16  C4  UNL     1      28.681   6.774  48.304  1.00  0.00     0.015 C 
HETATM   17  C3  UNL     1      27.529   6.138  48.468  1.00  0.00     0.043 C 
HETATM   18 CL1  UNL     1      27.577   4.412  48.688  1.00  0.00    -0.086 Cl
BRANCH  17  19
HETATM   19  C2  UNL     1      26.204   6.808  48.477  1.00  0.00     0.210 C 
HETATM   20  C1  UNL     1      25.098   5.800  48.710  1.00  0.00     0.051 C 
HETATM   21  F1  UNL     1      26.002   7.318  47.206  1.00  0.00    -0.244 F 
ENDBRANCH  17  19
ENDBRANCH  15  16
ENDBRANCH   1  15
BRANCH  10  22
HETATM   22  C12 UNL     1      32.850   4.476  46.493  1.00  0.00     0.058 C 
BRANCH  22  23
HETATM   23  C13 UNL     1      33.270   3.073  46.808  1.00  0.00     0.225 C 
HETATM   24  F2  UNL     1      32.786   2.643  48.031  1.00  0.00    -0.255 F 
ENDBRANCH  22  23
ENDBRANCH  10  22
TORSDOF 5
ENDMDL
MODEL 6
REMARK VINA RESULT:      -6.2      3.014      4.322
REMARK  5 active torsions:
REMARK  status: ('A' for Active; 'I' for Inactive)
REMARK    1  A    between atoms: C2_2  and  C3_4 
REMARK    2  A    between atoms: C4_6  and  C5_7 
REMARK    3  A    between atoms: C5_7  and  N1_8 
REMARK    4  A    between atoms: C11_17  and  C12_18 
REMARK    5  A    between atoms: C12_18  and  C13_19 
ROOT
HETATM    1  N1  UNL     1      21.816   2.462  51.218  1.00  0.00    -0.377 N 
HETATM    2  C6  UNL     1      22.670   1.931  50.193  1.00  0.00     0.271 C 
HETATM    3  N2  UNL     1      22.527   2.636  48.969  1.00  0.00    -0.259 N 
HETATM    4  C7  UNL     1      22.492   2.291  47.772  1.00  0.00     0.230 A 
HETATM    5  N3  UNL     1      22.363   3.671  47.887  1.00  0.00    -0.235 N 
HETATM    6  C8  UNL     1      22.296   4.604  47.052  1.00  0.00     0.252 C 
HETATM    7  O1  UNL     1      22.207   5.265  48.282  1.00  0.00    -0.340 OA
HETATM    8  C9  UNL     1      23.352   5.949  48.856  1.00  0.00     0.212 C 
HETATM    9  C10 UNL     1      23.570   5.412  50.229  1.00  0.00    -0.042 C 
HETATM   10  C11 UNL     1      24.797   4.836  50.368  1.00  0.00    -0.018 C 
HETATM   11  C14 UNL     1      22.672   5.358  51.401  1.00  0.00     0.152 C 
HETATM   12  N4  UNL     1      21.396   4.865  51.280  1.00  0.00    -0.403 N 
HETATM   13  C15 UNL     1      21.042   3.571  50.918  1.00  0.00     0.237 C 
HETATM   14  H21 UNL     1      20.595   5.494  51.482  1.00  0.00     0.155 HD
ENDROOT
BRANCH   1  15
HETATM   15  C5  UNL     1      22.062   1.974  52.482  1.00  0.00     0.149 C 
BRANCH  15  16
HETATM   16  C4  UNL     1      23.271   1.126  52.640  1.00  0.00     0.015 C 
HETATM   17  C3  UNL     1      23.519   0.002  53.297  1.00  0.00     0.043 C 
HETATM   18 CL1  UNL     1      25.127  -0.660  53.199  1.00  0.00    -0.086 Cl
BRANCH  17  19
HETATM   19  C2  UNL     1      22.511  -0.726  54.108  1.00  0.00     0.210 C 
HETATM   20  C1  UNL     1      23.141  -1.280  55.369  1.00  0.00     0.051 C 
HETATM   21  F1  UNL     1      22.109  -1.821  53.364  1.00  0.00    -0.244 F 
ENDBRANCH  17  19
ENDBRANCH  15  16
ENDBRANCH   1  15
BRANCH  10  22
HETATM   22  C12 UNL     1      25.982   4.593  49.535  1.00  0.00     0.058 C 
BRANCH  22  23
HETATM   23  C13 UNL     1      26.403   3.162  49.671  1.00  0.00     0.225 C 
HETATM   24  F2  UNL     1      26.413   2.742  50.990  1.00  0.00    -0.255 F 
ENDBRANCH  22  23
ENDBRANCH  10  22
TORSDOF 5
ENDMDL
MODEL 7
REMARK VINA RESULT:      -6.2      9.139     10.594
REMARK  5 active torsions:
REMARK  status: ('A' for Active; 'I' for Inactive)
REMARK    1  A    between atoms: C2_2  and  C3_4 
REMARK    2  A    between atoms: C4_6  and  C5_7 
REMARK    3  A    between atoms: C5_7  and  N1_8 
REMARK    4  A    between atoms: C11_17  and  C12_18 
REMARK    5  A    between atoms: C12_18  and  C13_19 
ROOT
HETATM    1  N1  UNL     1      30.793   6.208  47.441  1.00  0.00    -0.377 N 
HETATM    2  C6  UNL     1      30.098   7.051  46.508  1.00  0.00     0.271 C 
HETATM    3  N2  UNL     1      29.061   7.789  47.135  1.00  0.00    -0.259 N 
HETATM    4  C7  UNL     1      27.900   8.103  46.803  1.00  0.00     0.230 A 
HETATM    5  N3  UNL     1      28.202   8.606  48.065  1.00  0.00    -0.235 N 
HETATM    6  C8  UNL     1      27.586   9.347  48.868  1.00  0.00     0.252 C 
HETATM    7  O1  UNL     1      28.784   9.072  49.536  1.00  0.00    -0.340 OA
HETATM    8  C9  UNL     1      29.866  10.039  49.576  1.00  0.00     0.212 C 
HETATM    9  C10 UNL     1      31.098   9.376  49.062  1.00  0.00    -0.042 C 
HETATM   10  C11 UNL     1      31.593   9.996  47.954  1.00  0.00    -0.018 C 
HETATM   11  C14 UNL     1      31.805   8.162  49.518  1.00  0.00     0.152 C 
HETATM   12  N4  UNL     1      31.117   6.991  49.729  1.00  0.00    -0.403 N 
HETATM   13  C15 UNL     1      30.422   6.259  48.774  1.00  0.00     0.237 C 
HETATM   14  H21 UNL     1      31.105   6.583  50.683  1.00  0.00     0.155 HD
ENDROOT
BRANCH   1  15
HETATM   15  C5  UNL     1      31.946   5.636  46.950  1.00  0.00     0.149 C 
BRANCH  15  16
HETATM   16  C4  UNL     1      32.010   4.152  46.971  1.00  0.00     0.015 C 
HETATM   17  C3  UNL     1      33.004   3.282  47.074  1.00  0.00     0.043 C 
HETATM   18 CL1  UNL     1      32.607   1.587  47.055  1.00  0.00    -0.086 Cl
BRANCH  17  19
HETATM   19  C2  UNL     1      34.433   3.665  47.205  1.00  0.00     0.210 C 
HETATM   20  C1  UNL     1      35.198   3.302  45.950  1.00  0.00     0.051 C 
HETATM   21  F1  UNL     1      34.966   2.890  48.220  1.00  0.00    -0.244 F 
ENDBRANCH  17  19
ENDBRANCH  15  16
ENDBRANCH   1  15
BRANCH  10  22
HETATM   22  C12 UNL     1      31.250  11.150  47.112  1.00  0.00     0.058 C 
BRANCH  22  23
HETATM   23  C13 UNL     1      32.500  11.720  46.514  1.00  0.00     0.225 C 
HETATM   24  F2  UNL     1      33.571  11.665  47.389  1.00  0.00    -0.255 F 
ENDBRANCH  22  23
ENDBRANCH  10  22
TORSDOF 5
ENDMDL
MODEL 8
REMARK VINA RESULT:      -6.1      1.726      2.404
REMARK  5 active torsions:
REMARK  status: ('A' for Active; 'I' for Inactive)
REMARK    1  A    between atoms: C2_2  and  C3_4 
REMARK    2  A    between atoms: C4_6  and  C5_7 
REMARK    3  A    between atoms: C5_7  and  N1_8 
REMARK    4  A    between atoms: C11_17  and  C12_18 
REMARK    5  A    between atoms: C12_18  and  C13_19 
ROOT
HETATM    1  N1  UNL     1      25.469   3.421  51.262  1.00  0.00    -0.377 N 
HETATM    2  C6  UNL     1      24.557   3.193  52.347  1.00  0.00     0.271 C 
HETATM    3  N2  UNL     1      23.374   3.966  52.213  1.00  0.00    -0.259 N 
HETATM    4  C7  UNL     1      22.657   4.597  53.015  1.00  0.00     0.230 A 
HETATM    5  N3  UNL     1      22.151   4.696  51.724  1.00  0.00    -0.235 N 
HETATM    6  C8  UNL     1      21.115   5.214  51.241  1.00  0.00     0.252 C 
HETATM    7  O1  UNL     1      21.764   4.684  50.120  1.00  0.00    -0.340 OA
HETATM    8  C9  UNL     1      21.337   3.431  49.523  1.00  0.00     0.212 C 
HETATM    9  C10 UNL     1      22.517   2.523  49.463  1.00  0.00    -0.042 C 
HETATM   10  C11 UNL     1      22.324   1.378  50.176  1.00  0.00    -0.018 C 
HETATM   11  C14 UNL     1      23.837   2.692  48.820  1.00  0.00     0.152 C 
HETATM   12  N4  UNL     1      24.573   3.833  49.029  1.00  0.00    -0.403 N 
HETATM   13  C15 UNL     1      25.080   4.278  50.245  1.00  0.00     0.237 C 
HETATM   14  H21 UNL     1      24.799   4.439  48.218  1.00  0.00     0.155 HD
ENDROOT
BRANCH   1  15
HETATM   15  C5  UNL     1      26.531   2.546  51.210  1.00  0.00     0.149 C 
BRANCH  15  16
HETATM   16  C4  UNL     1      26.268   1.158  51.669  1.00  0.00     0.015 C 
HETATM   17  C3  UNL     1      26.713   0.432  52.685  1.00  0.00     0.043 C 
HETATM   18 CL1  UNL     1      26.118  -1.197  52.843  1.00  0.00    -0.086 Cl
BRANCH  17  19
HETATM   19  C2  UNL     1      27.687   0.922  53.693  1.00  0.00     0.210 C 
HETATM   20  C1  UNL     1      29.004   0.187  53.563  1.00  0.00     0.051 C 
HETATM   21  F1  UNL     1      27.180   0.589  54.938  1.00  0.00    -0.244 F 
ENDBRANCH  17  19
ENDBRANCH  15  16
ENDBRANCH   1  15
BRANCH  10  22
HETATM   22  C12 UNL     1      21.264   0.778  50.998  1.00  0.00     0.058 C 
BRANCH  22  23
HETATM   23  C13 UNL     1      21.752   0.626  52.407  1.00  0.00     0.225 C 
HETATM   24  F2  UNL     1      22.619  -0.443  52.549  1.00  0.00    -0.255 F 
ENDBRANCH  22  23
ENDBRANCH  10  22
TORSDOF 5
ENDMDL
MODEL 9
REMARK VINA RESULT:      -6.1      8.980     10.361
REMARK  5 active torsions:
REMARK  status: ('A' for Active; 'I' for Inactive)
REMARK    1  A    between atoms: C2_2  and  C3_4 
REMARK    2  A    between atoms: C4_6  and  C5_7 
REMARK    3  A    between atoms: C5_7  and  N1_8 
REMARK    4  A    between atoms: C11_17  and  C12_18 
REMARK    5  A    between atoms: C12_18  and  C13_19 
ROOT
HETATM    1  N1  UNL     1      32.059   8.514  46.746  1.00  0.00    -0.377 N 
HETATM    2  C6  UNL     1      31.701   8.312  48.122  1.00  0.00     0.271 C 
HETATM    3  N2  UNL     1      30.756   9.273  48.568  1.00  0.00    -0.259 N 
HETATM    4  C7  UNL     1      30.609   9.914  49.627  1.00  0.00     0.230 A 
HETATM    5  N3  UNL     1      29.609  10.238  48.715  1.00  0.00    -0.235 N 
HETATM    6  C8  UNL     1      28.589  10.964  48.776  1.00  0.00     0.252 C 
HETATM    7  O1  UNL     1      28.554  10.468  47.469  1.00  0.00    -0.340 OA
HETATM    8  C9  UNL     1      27.674   9.375  47.098  1.00  0.00     0.212 C 
HETATM    9  C10 UNL     1      28.504   8.304  46.477  1.00  0.00    -0.042 C 
HETATM   10  C11 UNL     1      28.432   7.131  47.167  1.00  0.00    -0.018 C 
HETATM   11  C14 UNL     1      29.404   8.334  45.306  1.00  0.00     0.152 C 
HETATM   12  N4  UNL     1      30.360   9.313  45.186  1.00  0.00    -0.403 N 
HETATM   13  C15 UNL     1      31.431   9.531  46.046  1.00  0.00     0.237 C 
HETATM   14  H21 UNL     1      30.313   9.963  44.379  1.00  0.00     0.155 HD
ENDROOT
BRANCH   1  15
HETATM   15  C5  UNL     1      32.796   7.493  46.188  1.00  0.00     0.149 C 
BRANCH  15  16
HETATM   16  C4  UNL     1      32.311   6.112  46.440  1.00  0.00     0.015 C 
HETATM   17  C3  UNL     1      32.920   4.946  46.607  1.00  0.00     0.043 C 
HETATM   18 CL1  UNL     1      31.928   3.543  46.886  1.00  0.00    -0.086 Cl
BRANCH  17  19
HETATM   19  C2  UNL     1      34.393   4.765  46.570  1.00  0.00     0.210 C 
HETATM   20  C1  UNL     1      34.747   3.364  46.120  1.00  0.00     0.051 C 
HETATM   21  F1  UNL     1      34.846   4.879  47.873  1.00  0.00    -0.244 F 
ENDBRANCH  17  19
ENDBRANCH  15  16
ENDBRANCH   1  15
BRANCH  10  22
HETATM   22  C12 UNL     1      27.756   6.617  48.366  1.00  0.00     0.058 C 
BRANCH  22  23
HETATM   23  C13 UNL     1      28.048   5.155  48.515  1.00  0.00     0.225 C 
HETATM   24  F2  UNL     1      29.234   4.793  47.900  1.00  0.00    -0.255 F 
ENDBRANCH  22  23
ENDBRANCH  10  22
TORSDOF 5
ENDMDL
