MODEL 1
REMARK VINA RESULT:      -8.4      0.000      0.000
REMARK  5 active torsions:
REMARK  status: ('A' for Active; 'I' for Inactive)
REMARK    1  A    between atoms: C2_2  and  C3_3 
REMARK    2  A    between atoms: C8_9  and  C9_10 
REMARK    3  A    between atoms: C14_15  and  C15_16 
REMARK    4  A    between atoms: C15_16  and  C16_17 
REMARK       I    between atoms: N2_19  and  C17_20 
REMARK    5  A    between atoms: C17_20  and  C18_22 
ROOT
HETATM    1  C3  UNL     1      27.226   7.642  47.360  1.00  0.00     0.101 A 
HETATM    2  C4  UNL     1      26.970   7.576  48.626  1.00  0.00     0.034 A 
HETATM    3  N1  UNL     1      26.564   7.581  49.934  1.00  0.00    -0.393 N 
HETATM    4  C5  UNL     1      25.341   7.019  50.461  1.00  0.00     0.125 C 
HETATM    5  C6  UNL     1      25.479   5.527  50.374  1.00  0.00     0.075 C 
HETATM    6  C7  UNL     1      24.205   4.825  50.431  1.00  0.00     0.024 C 
HETATM    7  C8  UNL     1      24.119   4.180  51.624  1.00  0.00     0.071 C 
HETATM    8  N3  UNL     1      23.522   5.043  49.197  1.00  0.00    -0.245 NA
HETATM    9  C20 UNL     1      23.811   5.958  48.381  1.00  0.00     0.319 C 
HETATM   10  N4  UNL     1      24.719   7.094  48.127  1.00  0.00    -0.000 N 
HETATM   11  C21 UNL     1      25.845   7.763  47.606  1.00  0.00     0.224 A 
HETATM   12  C22 UNL     1      24.766   7.918  46.810  1.00  0.00     0.419 A 
HETATM   13 BR1  UNL     1      23.417   8.151  45.511  1.00  0.00    -0.165 Br
HETATM   14  H5  UNL     1      27.473   8.068  49.939  1.00  0.00     0.159 HD
HETATM   15  H27 UNL     1      25.085   6.149  47.679  1.00  0.00     0.290 HD
ENDROOT
BRANCH   7  16
HETATM   16  C9  UNL     1      23.118   3.318  52.246  1.00  0.00     0.010 C 
HETATM   17  C10 UNL     1      23.981   2.275  52.557  1.00  0.00     0.013 C 
HETATM   18  C11 UNL     1      25.465   2.373  52.220  1.00  0.00     0.063 C 
HETATM   19  N2  UNL     1      23.957   0.901  53.080  1.00  0.00    -0.313 N 
HETATM   20  C12 UNL     1      26.013   1.710  53.538  1.00  0.00     0.011 C 
HETATM   21  C13 UNL     1      27.419   1.912  53.762  1.00  0.00     0.012 C 
HETATM   22  C14 UNL     1      25.308   0.438  53.555  1.00  0.00     0.099 C 
HETATM   23  C17 UNL     1      22.724   0.245  52.976  1.00  0.00     0.247 C 
HETATM   24  O1  UNL     1      21.563   0.546  52.632  1.00  0.00    -0.268 OA
BRANCH  22  25
HETATM   25  C15 UNL     1      25.674  -0.718  52.756  1.00  0.00     0.057 C 
BRANCH  25  26
HETATM   26  C16 UNL     1      26.970  -1.387  53.059  1.00  0.00     0.224 C 
HETATM   27  F1  UNL     1      27.185  -2.619  52.571  1.00  0.00    -0.255 F 
ENDBRANCH  25  26
ENDBRANCH  22  25
BRANCH  23  28
HETATM   28  C18 UNL     1      21.998  -0.981  53.141  1.00  0.00     0.064 C 
HETATM   29  C19 UNL     1      21.650  -1.401  54.334  1.00  0.00     0.017 C 
ENDBRANCH  23  28
ENDBRANCH   7  16
BRANCH   1  30
HETATM   30  C2  UNL     1      28.566   6.962  47.405  1.00  0.00    -0.023 C 
HETATM   31  C1  UNL     1      29.495   6.056  47.954  1.00  0.00     0.008 C 
ENDBRANCH   1  30
TORSDOF 5
ENDMDL
MODEL 2
REMARK VINA RESULT:      -8.1      4.206      6.882
REMARK  5 active torsions:
REMARK  status: ('A' for Active; 'I' for Inactive)
REMARK    1  A    between atoms: C2_2  and  C3_3 
REMARK    2  A    between atoms: C8_9  and  C9_10 
REMARK    3  A    between atoms: C14_15  and  C15_16 
REMARK    4  A    between atoms: C15_16  and  C16_17 
REMARK       I    between atoms: N2_19  and  C17_20 
REMARK    5  A    between atoms: C17_20  and  C18_22 
ROOT
HETATM    1  C3  UNL     1      33.883   4.708  46.821  1.00  0.00     0.101 A 
HETATM    2  C4  UNL     1      33.111   4.837  47.850  1.00  0.00     0.034 A 
HETATM    3  N1  UNL     1      32.329   5.127  48.936  1.00  0.00    -0.393 N 
HETATM    4  C5  UNL     1      31.240   6.076  48.990  1.00  0.00     0.125 C 
HETATM    5  C6  UNL     1      30.121   5.493  48.176  1.00  0.00     0.075 C 
HETATM    6  C7  UNL     1      29.142   6.483  47.750  1.00  0.00     0.024 C 
HETATM    7  C8  UNL     1      27.990   6.279  48.441  1.00  0.00     0.071 C 
HETATM    8  N3  UNL     1      29.739   7.289  46.734  1.00  0.00    -0.245 NA
HETATM    9  C20 UNL     1      30.979   7.356  46.522  1.00  0.00     0.319 C 
HETATM   10  N4  UNL     1      32.298   6.862  46.963  1.00  0.00    -0.000 N 
HETATM   11  C21 UNL     1      33.441   6.037  46.961  1.00  0.00     0.224 A 
HETATM   12  C22 UNL     1      33.645   7.167  46.252  1.00  0.00     0.419 A 
HETATM   13 BR1  UNL     1      34.087   8.616  45.125  1.00  0.00    -0.165 Br
HETATM   14  H5  UNL     1      32.994   4.414  49.273  1.00  0.00     0.159 HD
HETATM   15  H27 UNL     1      31.872   6.258  46.137  1.00  0.00     0.290 HD
ENDROOT
BRANCH   7  16
HETATM   16  C9  UNL     1      26.678   6.918  48.445  1.00  0.00     0.010 C 
HETATM   17  C10 UNL     1      25.954   5.787  48.804  1.00  0.00     0.013 C 
HETATM   18  C11 UNL     1      26.665   4.464  49.061  1.00  0.00     0.063 C 
HETATM   19  N2  UNL     1      24.564   5.332  48.958  1.00  0.00    -0.313 N 
HETATM   20  C12 UNL     1      25.808   4.013  50.301  1.00  0.00     0.011 C 
HETATM   21  C13 UNL     1      26.384   2.937  51.060  1.00  0.00     0.012 C 
HETATM   22  C14 UNL     1      24.454   4.073  49.773  1.00  0.00     0.099 C 
HETATM   23  C17 UNL     1      23.609   6.089  48.267  1.00  0.00     0.247 C 
HETATM   24  O1  UNL     1      23.597   7.145  47.603  1.00  0.00    -0.268 OA
BRANCH  22  25
HETATM   25  C15 UNL     1      23.856   3.059  48.923  1.00  0.00     0.057 C 
BRANCH  25  26
HETATM   26  C16 UNL     1      22.707   2.284  49.472  1.00  0.00     0.224 C 
HETATM   27  F1  UNL     1      22.940   1.411  50.466  1.00  0.00    -0.255 F 
ENDBRANCH  25  26
ENDBRANCH  22  25
BRANCH  23  28
HETATM   28  C18 UNL     1      22.236   6.222  47.876  1.00  0.00     0.064 C 
HETATM   29  C19 UNL     1      21.854   5.934  46.655  1.00  0.00     0.017 C 
ENDBRANCH  23  28
ENDBRANCH   7  16
BRANCH   1  30
HETATM   30  C2  UNL     1      33.714   3.224  46.645  1.00  0.00    -0.023 C 
HETATM   31  C1  UNL     1      32.983   2.025  46.750  1.00  0.00     0.008 C 
ENDBRANCH   1  30
TORSDOF 5
ENDMDL
MODEL 3
REMARK VINA RESULT:      -8.0      4.760      9.361
REMARK  5 active torsions:
REMARK  status: ('A' for Active; 'I' for Inactive)
REMARK    1  A    between atoms: C2_2  and  C3_3 
REMARK    2  A    between atoms: C8_9  and  C9_10 
REMARK    3  A    between atoms: C14_15  and  C15_16 
REMARK    4  A    between atoms: C15_16  and  C16_17 
REMARK       I    between atoms: N2_19  and  C17_20 
REMARK    5  A    between atoms: C17_20  and  C18_22 
ROOT
HETATM    1  C3  UNL     1      22.317   1.084  51.299  1.00  0.00     0.101 A 
HETATM    2  C4  UNL     1      22.622   2.319  51.066  1.00  0.00     0.034 A 
HETATM    3  N1  UNL     1      23.022   3.624  50.956  1.00  0.00    -0.393 N 
HETATM    4  C5  UNL     1      24.381   4.116  50.974  1.00  0.00     0.125 C 
HETATM    5  C6  UNL     1      25.015   3.677  49.685  1.00  0.00     0.075 C 
HETATM    6  C7  UNL     1      26.470   3.686  49.727  1.00  0.00     0.024 C 
HETATM    7  C8  UNL     1      26.920   4.702  48.945  1.00  0.00     0.071 C 
HETATM    8  N3  UNL     1      26.898   2.600  50.548  1.00  0.00    -0.245 NA
HETATM    9  C20 UNL     1      26.151   1.993  51.362  1.00  0.00     0.319 C 
HETATM   10  N4  UNL     1      24.784   1.926  51.913  1.00  0.00    -0.000 N 
HETATM   11  C21 UNL     1      23.454   1.473  52.031  1.00  0.00     0.224 A 
HETATM   12  C22 UNL     1      24.272   0.833  52.893  1.00  0.00     0.419 A 
HETATM   13 BR1  UNL     1      25.263  -0.253  54.077  1.00  0.00    -0.165 Br
HETATM   14  H5  UNL     1      21.992   3.659  50.905  1.00  0.00     0.159 HD
HETATM   15  H27 UNL     1      24.930   1.242  51.052  1.00  0.00     0.290 HD
ENDROOT
BRANCH   7  16
HETATM   16  C9  UNL     1      28.243   5.197  48.579  1.00  0.00     0.010 C 
HETATM   17  C10 UNL     1      27.867   6.520  48.382  1.00  0.00     0.013 C 
HETATM   18  C11 UNL     1      26.423   6.955  48.605  1.00  0.00     0.063 C 
HETATM   19  N2  UNL     1      28.414   7.793  47.889  1.00  0.00    -0.313 N 
HETATM   20  C12 UNL     1      26.733   8.335  49.294  1.00  0.00     0.011 C 
HETATM   21  C13 UNL     1      25.610   8.927  49.968  1.00  0.00     0.012 C 
HETATM   22  C14 UNL     1      27.590   8.979  48.311  1.00  0.00     0.099 C 
HETATM   23  C17 UNL     1      29.539   7.678  47.062  1.00  0.00     0.247 C 
HETATM   24  O1  UNL     1      30.296   6.762  46.685  1.00  0.00    -0.268 OA
BRANCH  22  25
HETATM   25  C15 UNL     1      27.114   9.627  47.102  1.00  0.00     0.057 C 
BRANCH  25  26
HETATM   26  C16 UNL     1      26.812  11.085  47.170  1.00  0.00     0.224 C 
HETATM   27  F1  UNL     1      26.785  11.677  48.375  1.00  0.00    -0.255 F 
ENDBRANCH  25  26
ENDBRANCH  22  25
BRANCH  23  28
HETATM   28  C18 UNL     1      30.476   8.350  46.210  1.00  0.00     0.064 C 
HETATM   29  C19 UNL     1      31.617   7.787  45.889  1.00  0.00     0.017 C 
ENDBRANCH  23  28
ENDBRANCH   7  16
BRANCH   1  30
HETATM   30  C2  UNL     1      21.509   0.852  50.052  1.00  0.00    -0.023 C 
HETATM   31  C1  UNL     1      20.976   1.253  48.811  1.00  0.00     0.008 C 
ENDBRANCH   1  30
TORSDOF 5
ENDMDL
MODEL 4
REMARK VINA RESULT:      -7.9      1.938      2.364
REMARK  5 active torsions:
REMARK  status: ('A' for Active; 'I' for Inactive)
REMARK    1  A    between atoms: C2_2  and  C3_3 
REMARK    2  A    between atoms: C8_9  and  C9_10 
REMARK    3  A    between atoms: C14_15  and  C15_16 
REMARK    4  A    between atoms: C15_16  and  C16_17 
REMARK       I    between atoms: N2_19  and  C17_20 
REMARK    5  A    between atoms: C17_20  and  C18_22 
ROOT
HETATM    1  C3  UNL     1      28.233   7.377  47.389  1.00  0.00     0.101 A 
HETATM    2  C4  UNL     1      27.767   7.503  48.589  1.00  0.00     0.034 A 
HETATM    3  N1  UNL     1      27.177   7.745  49.801  1.00  0.00    -0.393 N 
HETATM    4  C5  UNL     1      25.771   7.638  50.115  1.00  0.00     0.125 C 
HETATM    5  C6  UNL     1      25.436   6.174  50.098  1.00  0.00     0.075 C 
HETATM    6  C7  UNL     1      24.012   5.911  49.944  1.00  0.00     0.024 C 
HETATM    7  C8  UNL     1      23.531   5.428  51.120  1.00  0.00     0.071 C 
HETATM    8  N3  UNL     1      23.645   6.222  48.601  1.00  0.00    -0.245 NA
HETATM    9  C20 UNL     1      24.341   6.930  47.824  1.00  0.00     0.319 C 
HETATM   10  N4  UNL     1      25.593   7.702  47.706  1.00  0.00    -0.000 N 
HETATM   11  C21 UNL     1      26.943   7.941  47.378  1.00  0.00     0.224 A 
HETATM   12  C22 UNL     1      26.115   8.355  46.396  1.00  0.00     0.419 A 
HETATM   13 BR1  UNL     1      25.141   8.883  44.867  1.00  0.00    -0.165 Br
HETATM   14  H5  UNL     1      28.181   7.925  49.956  1.00  0.00     0.159 HD
HETATM   15  H27 UNL     1      25.704   6.655  47.359  1.00  0.00     0.290 HD
ENDROOT
BRANCH   7  16
HETATM   16  C9  UNL     1      22.221   4.976  51.576  1.00  0.00     0.010 C 
HETATM   17  C10 UNL     1      22.624   3.710  51.982  1.00  0.00     0.013 C 
HETATM   18  C11 UNL     1      24.083   3.287  51.859  1.00  0.00     0.063 C 
HETATM   19  N2  UNL     1      22.060   2.440  52.465  1.00  0.00    -0.313 N 
HETATM   20  C12 UNL     1      24.183   2.513  53.225  1.00  0.00     0.011 C 
HETATM   21  C13 UNL     1      25.528   2.230  53.649  1.00  0.00     0.012 C 
HETATM   22  C14 UNL     1      23.091   1.559  53.114  1.00  0.00     0.099 C 
HETATM   23  C17 UNL     1      20.704   2.241  52.174  1.00  0.00     0.247 C 
HETATM   24  O1  UNL     1      19.776   2.911  51.677  1.00  0.00    -0.268 OA
BRANCH  22  25
HETATM   25  C15 UNL     1      23.149   0.326  52.349  1.00  0.00     0.057 C 
BRANCH  25  26
HETATM   26  C16 UNL     1      22.780  -0.939  53.045  1.00  0.00     0.224 C 
HETATM   27  F1  UNL     1      21.495  -1.134  53.381  1.00  0.00    -0.255 F 
ENDBRANCH  25  26
ENDBRANCH  22  25
BRANCH  23  28
HETATM   28  C18 UNL     1      19.588   1.341  52.208  1.00  0.00     0.064 C 
HETATM   29  C19 UNL     1      19.389   0.481  51.238  1.00  0.00     0.017 C 
ENDBRANCH  23  28
ENDBRANCH   7  16
BRANCH   1  30
HETATM   30  C2  UNL     1      29.258   6.321  47.696  1.00  0.00    -0.023 C 
HETATM   31  C1  UNL     1      30.584   5.865  47.838  1.00  0.00     0.008 C 
ENDBRANCH   1  30
TORSDOF 5
ENDMDL
MODEL 5
REMARK VINA RESULT:      -7.8      6.083     10.506
REMARK  5 active torsions:
REMARK  status: ('A' for Active; 'I' for Inactive)
REMARK    1  A    between atoms: C2_2  and  C3_3 
REMARK    2  A    between atoms: C8_9  and  C9_10 
REMARK    3  A    between atoms: C14_15  and  C15_16 
REMARK    4  A    between atoms: C15_16  and  C16_17 
REMARK       I    between atoms: N2_19  and  C17_20 
REMARK    5  A    between atoms: C17_20  and  C18_22 
ROOT
HETATM    1  C3  UNL     1      14.339  -2.486  50.625  1.00  0.00     0.101 A 
HETATM    2  C4  UNL     1      14.912  -1.446  51.137  1.00  0.00     0.034 A 
HETATM    3  N1  UNL     1      15.470  -0.398  51.819  1.00  0.00    -0.393 N 
HETATM    4  C5  UNL     1      16.441  -0.479  52.886  1.00  0.00     0.125 C 
HETATM    5  C6  UNL     1      17.731  -0.929  52.262  1.00  0.00     0.075 C 
HETATM    6  C7  UNL     1      18.670  -1.492  53.222  1.00  0.00     0.024 C 
HETATM    7  C8  UNL     1      19.704  -0.624  53.376  1.00  0.00     0.071 C 
HETATM    8  N3  UNL     1      18.179  -2.769  53.628  1.00  0.00    -0.245 NA
HETATM    9  C20 UNL     1      16.991  -3.155  53.463  1.00  0.00     0.319 C 
HETATM   10  N4  UNL     1      15.669  -2.769  52.932  1.00  0.00    -0.000 N 
HETATM   11  C21 UNL     1      14.625  -2.683  51.989  1.00  0.00     0.224 A 
HETATM   12  C22 UNL     1      14.437  -3.712  52.842  1.00  0.00     0.419 A 
HETATM   13 BR1  UNL     1      14.057  -5.263  53.849  1.00  0.00    -0.165 Br
HETATM   14  H5  UNL     1      14.828   0.042  51.141  1.00  0.00     0.159 HD
HETATM   15  H27 UNL     1      16.282  -3.317  52.189  1.00  0.00     0.290 HD
ENDROOT
BRANCH   7  16
HETATM   16  C9  UNL     1      20.931  -0.631  54.166  1.00  0.00     0.010 C 
HETATM   17  C10 UNL     1      21.633   0.270  53.374  1.00  0.00     0.013 C 
HETATM   18  C11 UNL     1      20.979   0.892  52.146  1.00  0.00     0.063 C 
HETATM   19  N2  UNL     1      22.980   0.843  53.229  1.00  0.00    -0.313 N 
HETATM   20  C12 UNL     1      21.559   2.344  52.324  1.00  0.00     0.011 C 
HETATM   21  C13 UNL     1      20.903   3.346  51.529  1.00  0.00     0.012 C 
HETATM   22  C14 UNL     1      22.990   2.093  52.393  1.00  0.00     0.099 C 
HETATM   23  C17 UNL     1      24.011   0.097  53.815  1.00  0.00     0.247 C 
HETATM   24  O1  UNL     1      24.099  -0.915  54.539  1.00  0.00    -0.268 OA
BRANCH  22  25
HETATM   25  C15 UNL     1      23.837   1.836  51.242  1.00  0.00     0.057 C 
BRANCH  25  26
HETATM   26  C16 UNL     1      25.083   2.644  51.105  1.00  0.00     0.224 C 
HETATM   27  F1  UNL     1      25.927   2.701  52.149  1.00  0.00    -0.255 F 
ENDBRANCH  25  26
ENDBRANCH  22  25
BRANCH  23  28
HETATM   28  C18 UNL     1      25.424  -0.056  54.004  1.00  0.00     0.064 C 
HETATM   29  C19 UNL     1      26.167  -0.625  53.086  1.00  0.00     0.017 C 
ENDBRANCH  23  28
ENDBRANCH   7  16
BRANCH   1  30
HETATM   30  C2  UNL     1      14.673  -2.195  49.188  1.00  0.00    -0.023 C 
HETATM   31  C1  UNL     1      15.567  -1.867  48.150  1.00  0.00     0.008 C 
ENDBRANCH   1  30
TORSDOF 5
ENDMDL
MODEL 6
REMARK VINA RESULT:      -7.8      3.747      5.838
REMARK  5 active torsions:
REMARK  status: ('A' for Active; 'I' for Inactive)
REMARK    1  A    between atoms: C2_2  and  C3_3 
REMARK    2  A    between atoms: C8_9  and  C9_10 
REMARK    3  A    between atoms: C14_15  and  C15_16 
REMARK    4  A    between atoms: C15_16  and  C16_17 
REMARK       I    between atoms: N2_19  and  C17_20 
REMARK    5  A    between atoms: C17_20  and  C18_22 
ROOT
HETATM    1  C3  UNL     1      30.984  10.000  47.258  1.00  0.00     0.101 A 
HETATM    2  C4  UNL     1      29.814   9.502  47.021  1.00  0.00     0.034 A 
HETATM    3  N1  UNL     1      28.647   8.879  46.668  1.00  0.00    -0.393 N 
HETATM    4  C5  UNL     1      28.364   7.464  46.747  1.00  0.00     0.125 C 
HETATM    5  C6  UNL     1      28.253   7.128  48.207  1.00  0.00     0.075 C 
HETATM    6  C7  UNL     1      28.420   5.709  48.486  1.00  0.00     0.024 C 
HETATM    7  C8  UNL     1      27.218   5.195  48.857  1.00  0.00     0.071 C 
HETATM    8  N3  UNL     1      29.797   5.380  48.302  1.00  0.00    -0.245 NA
HETATM    9  C20 UNL     1      30.617   6.097  47.669  1.00  0.00     0.319 C 
HETATM   10  N4  UNL     1      30.772   7.353  46.910  1.00  0.00    -0.000 N 
HETATM   11  C21 UNL     1      31.084   8.712  46.699  1.00  0.00     0.224 A 
HETATM   12  C22 UNL     1      32.123   7.912  46.382  1.00  0.00     0.419 A 
HETATM   13 BR1  UNL     1      33.721   6.981  46.000  1.00  0.00    -0.165 Br
HETATM   14  H5  UNL     1      28.482   9.878  46.472  1.00  0.00     0.159 HD
HETATM   15  H27 UNL     1      31.016   7.473  47.984  1.00  0.00     0.290 HD
ENDROOT
BRANCH   7  16
HETATM   16  C9  UNL     1      26.759   3.872  49.267  1.00  0.00     0.010 C 
HETATM   17  C10 UNL     1      25.435   4.229  49.494  1.00  0.00     0.013 C 
HETATM   18  C11 UNL     1      24.968   5.659  49.252  1.00  0.00     0.063 C 
HETATM   19  N2  UNL     1      24.187   3.671  50.037  1.00  0.00    -0.313 N 
HETATM   20  C12 UNL     1      23.574   5.309  48.612  1.00  0.00     0.011 C 
HETATM   21  C13 UNL     1      22.942   6.406  47.931  1.00  0.00     0.012 C 
HETATM   22  C14 UNL     1      22.975   4.464  49.633  1.00  0.00     0.099 C 
HETATM   23  C17 UNL     1      24.348   2.568  50.886  1.00  0.00     0.247 C 
HETATM   24  O1  UNL     1      25.288   1.835  51.252  1.00  0.00    -0.268 OA
BRANCH  22  25
HETATM   25  C15 UNL     1      22.354   4.956  50.850  1.00  0.00     0.057 C 
BRANCH  25  26
HETATM   26  C16 UNL     1      21.082   4.314  51.286  1.00  0.00     0.224 C 
HETATM   27  F1  UNL     1      21.041   3.731  52.496  1.00  0.00    -0.255 F 
ENDBRANCH  25  26
ENDBRANCH  22  25
BRANCH  23  28
HETATM   28  C18 UNL     1      23.719   1.638  51.778  1.00  0.00     0.064 C 
HETATM   29  C19 UNL     1      24.134   1.508  53.015  1.00  0.00     0.017 C 
ENDBRANCH  23  28
ENDBRANCH   7  16
BRANCH   1  30
HETATM   30  C2  UNL     1      30.551  11.016  48.278  1.00  0.00    -0.023 C 
HETATM   31  C1  UNL     1      30.802  12.045  49.208  1.00  0.00     0.008 C 
ENDBRANCH   1  30
TORSDOF 5
ENDMDL
MODEL 7
REMARK VINA RESULT:      -7.6      2.631      4.496
REMARK  5 active torsions:
REMARK  status: ('A' for Active; 'I' for Inactive)
REMARK    1  A    between atoms: C2_2  and  C3_3 
REMARK    2  A    between atoms: C8_9  and  C9_10 
REMARK    3  A    between atoms: C14_15  and  C15_16 
REMARK    4  A    between atoms: C15_16  and  C16_17 
REMARK       I    between atoms: N2_19  and  C17_20 
REMARK    5  A    between atoms: C17_20  and  C18_22 
ROOT
HETATM    1  C3  UNL     1      21.901   9.086  48.487  1.00  0.00     0.101 A 
HETATM    2  C4  UNL     1      21.935   7.841  48.142  1.00  0.00     0.034 A 
HETATM    3  N1  UNL     1      22.113   6.551  47.717  1.00  0.00    -0.393 N 
HETATM    4  C5  UNL     1      23.200   5.666  48.069  1.00  0.00     0.125 C 
HETATM    5  C6  UNL     1      23.007   5.300  49.512  1.00  0.00     0.075 C 
HETATM    6  C7  UNL     1      24.218   4.801  50.147  1.00  0.00     0.024 C 
HETATM    7  C8  UNL     1      24.069   3.469  50.377  1.00  0.00     0.071 C 
HETATM    8  N3  UNL     1      25.110   5.899  50.329  1.00  0.00    -0.245 NA
HETATM    9  C20 UNL     1      25.008   7.000  49.725  1.00  0.00     0.319 C 
HETATM   10  N4  UNL     1      24.212   7.756  48.738  1.00  0.00    -0.000 N 
HETATM   11  C21 UNL     1      23.224   8.652  48.281  1.00  0.00     0.224 A 
HETATM   12  C22 UNL     1      24.429   9.252  48.379  1.00  0.00     0.419 A 
HETATM   13 BR1  UNL     1      25.989  10.299  48.561  1.00  0.00    -0.165 Br
HETATM   14  H5  UNL     1      21.240   6.861  47.261  1.00  0.00     0.159 HD
HETATM   15  H27 UNL     1      23.883   7.940  49.781  1.00  0.00     0.290 HD
ENDROOT
BRANCH   7  16
HETATM   16  C9  UNL     1      24.906   2.441  50.985  1.00  0.00     0.010 C 
HETATM   17  C10 UNL     1      23.874   1.735  51.590  1.00  0.00     0.013 C 
HETATM   18  C11 UNL     1      22.427   2.185  51.420  1.00  0.00     0.063 C 
HETATM   19  N2  UNL     1      23.657   0.620  52.524  1.00  0.00    -0.313 N 
HETATM   20  C12 UNL     1      21.789   0.755  51.265  1.00  0.00     0.011 C 
HETATM   21  C13 UNL     1      20.447   0.757  50.749  1.00  0.00     0.012 C 
HETATM   22  C14 UNL     1      22.253   0.083  52.469  1.00  0.00     0.099 C 
HETATM   23  C17 UNL     1      24.749   0.309  53.344  1.00  0.00     0.247 C 
HETATM   24  O1  UNL     1      25.939   0.669  53.444  1.00  0.00    -0.268 OA
BRANCH  22  25
HETATM   25  C15 UNL     1      21.670   0.259  53.787  1.00  0.00     0.057 C 
BRANCH  25  26
HETATM   26  C16 UNL     1      21.493  -0.955  54.634  1.00  0.00     0.224 C 
HETATM   27  F1  UNL     1      21.820  -2.150  54.116  1.00  0.00    -0.255 F 
ENDBRANCH  25  26
ENDBRANCH  22  25
BRANCH  23  28
HETATM   28  C18 UNL     1      25.243  -0.473  54.440  1.00  0.00     0.064 C 
HETATM   29  C19 UNL     1      26.311  -0.099  55.105  1.00  0.00     0.017 C 
ENDBRANCH  23  28
ENDBRANCH   7  16
BRANCH   1  30
HETATM   30  C2  UNL     1      20.542   9.066  49.129  1.00  0.00    -0.023 C 
HETATM   31  C1  UNL     1      19.620   9.445  50.125  1.00  0.00     0.008 C 
ENDBRANCH   1  30
TORSDOF 5
ENDMDL
MODEL 8
REMARK VINA RESULT:      -7.5      5.000      9.444
REMARK  5 active torsions:
REMARK  status: ('A' for Active; 'I' for Inactive)
REMARK    1  A    between atoms: C2_2  and  C3_3 
REMARK    2  A    between atoms: C8_9  and  C9_10 
REMARK    3  A    between atoms: C14_15  and  C15_16 
REMARK    4  A    between atoms: C15_16  and  C16_17 
REMARK       I    between atoms: N2_19  and  C17_20 
REMARK    5  A    between atoms: C17_20  and  C18_22 
ROOT
HETATM    1  C3  UNL     1      22.021   3.837  50.070  1.00  0.00     0.101 A 
HETATM    2  C4  UNL     1      22.825   4.848  50.010  1.00  0.00     0.034 A 
HETATM    3  N1  UNL     1      23.731   5.872  50.085  1.00  0.00    -0.393 N 
HETATM    4  C5  UNL     1      25.163   5.749  50.237  1.00  0.00     0.125 C 
HETATM    5  C6  UNL     1      25.689   5.206  48.940  1.00  0.00     0.075 C 
HETATM    6  C7  UNL     1      27.009   4.604  49.061  1.00  0.00     0.024 C 
HETATM    7  C8  UNL     1      27.910   5.407  48.436  1.00  0.00     0.071 C 
HETATM    8  N3  UNL     1      26.872   3.369  49.762  1.00  0.00    -0.245 NA
HETATM    9  C20 UNL     1      25.865   3.056  50.453  1.00  0.00     0.319 C 
HETATM   10  N4  UNL     1      24.541   3.515  50.916  1.00  0.00    -0.000 N 
HETATM   11  C21 UNL     1      23.138   3.649  50.905  1.00  0.00     0.224 A 
HETATM   12  C22 UNL     1      23.533   2.651  51.723  1.00  0.00     0.419 A 
HETATM   13 BR1  UNL     1      23.871   1.148  52.815  1.00  0.00    -0.165 Br
HETATM   14  H5  UNL     1      22.816   6.337  49.983  1.00  0.00     0.159 HD
HETATM   15  H27 UNL     1      24.482   2.914  49.987  1.00  0.00     0.290 HD
ENDROOT
BRANCH   7  16
HETATM   16  C9  UNL     1      29.350   5.337  48.207  1.00  0.00     0.010 C 
HETATM   17  C10 UNL     1      29.553   6.704  48.065  1.00  0.00     0.013 C 
HETATM   18  C11 UNL     1      28.388   7.677  48.200  1.00  0.00     0.063 C 
HETATM   19  N2  UNL     1      30.607   7.662  47.696  1.00  0.00    -0.313 N 
HETATM   20  C12 UNL     1      29.153   8.797  48.996  1.00  0.00     0.011 C 
HETATM   21  C13 UNL     1      28.299   9.774  49.616  1.00  0.00     0.012 C 
HETATM   22  C14 UNL     1      30.287   9.068  48.125  1.00  0.00     0.099 C 
HETATM   23  C17 UNL     1      31.667   7.125  46.954  1.00  0.00     0.247 C 
HETATM   24  O1  UNL     1      32.029   5.992  46.581  1.00  0.00    -0.268 OA
BRANCH  22  25
HETATM   25  C15 UNL     1      30.228   9.883  46.925  1.00  0.00     0.057 C 
BRANCH  25  26
HETATM   26  C16 UNL     1      30.718  11.288  47.018  1.00  0.00     0.224 C 
HETATM   27  F1  UNL     1      31.376  11.665  48.127  1.00  0.00    -0.255 F 
ENDBRANCH  25  26
ENDBRANCH  22  25
BRANCH  23  28
HETATM   28  C18 UNL     1      32.872   7.385  46.221  1.00  0.00     0.064 C 
HETATM   29  C19 UNL     1      33.902   7.952  46.801  1.00  0.00     0.017 C 
ENDBRANCH  23  28
ENDBRANCH   7  16
BRANCH   1  30
HETATM   30  C2  UNL     1      21.319   4.077  48.762  1.00  0.00    -0.023 C 
HETATM   31  C1  UNL     1      21.179   3.926  47.368  1.00  0.00     0.008 C 
ENDBRANCH   1  30
TORSDOF 5
ENDMDL
MODEL 9
REMARK VINA RESULT:      -7.4      2.797      3.879
REMARK  5 active torsions:
REMARK  status: ('A' for Active; 'I' for Inactive)
REMARK    1  A    between atoms: C2_2  and  C3_3 
REMARK    2  A    between atoms: C8_9  and  C9_10 
REMARK    3  A    between atoms: C14_15  and  C15_16 
REMARK    4  A    between atoms: C15_16  and  C16_17 
REMARK       I    between atoms: N2_19  and  C17_20 
REMARK    5  A    between atoms: C17_20  and  C18_22 
ROOT
HETATM    1  C3  UNL     1      29.464  10.013  48.933  1.00  0.00     0.101 A 
HETATM    2  C4  UNL     1      28.602   9.462  49.724  1.00  0.00     0.034 A 
HETATM    3  N1  UNL     1      27.587   8.987  50.511  1.00  0.00    -0.393 N 
HETATM    4  C5  UNL     1      26.288   8.534  50.067  1.00  0.00     0.125 C 
HETATM    5  C6  UNL     1      26.508   7.238  49.342  1.00  0.00     0.075 C 
HETATM    6  C7  UNL     1      25.409   6.879  48.457  1.00  0.00     0.024 C 
HETATM    7  C8  UNL     1      24.752   5.815  48.991  1.00  0.00     0.071 C 
HETATM    8  N3  UNL     1      25.442   7.754  47.330  1.00  0.00    -0.245 NA
HETATM    9  C20 UNL     1      26.071   8.845  47.301  1.00  0.00     0.319 C 
HETATM   10  N4  UNL     1      26.939   9.749  48.082  1.00  0.00    -0.000 N 
HETATM   11  C21 UNL     1      28.147  10.314  48.538  1.00  0.00     0.224 A 
HETATM   12  C22 UNL     1      27.618  11.030  47.524  1.00  0.00     0.419 A 
HETATM   13 BR1  UNL     1      27.110  12.094  46.049  1.00  0.00    -0.165 Br
HETATM   14  H5  UNL     1      28.347   9.212  51.170  1.00  0.00     0.159 HD
HETATM   15  H27 UNL     1      27.517   9.038  47.459  1.00  0.00     0.290 HD
ENDROOT
BRANCH   7  16
HETATM   16  C9  UNL     1      23.608   5.011  48.575  1.00  0.00     0.010 C 
HETATM   17  C10 UNL     1      23.504   4.268  49.744  1.00  0.00     0.013 C 
HETATM   18  C11 UNL     1      24.457   4.520  50.907  1.00  0.00     0.063 C 
HETATM   19  N2  UNL     1      22.767   3.122  50.298  1.00  0.00    -0.313 N 
HETATM   20  C12 UNL     1      23.403   4.373  52.066  1.00  0.00     0.011 C 
HETATM   21  C13 UNL     1      23.848   4.871  53.339  1.00  0.00     0.012 C 
HETATM   22  C14 UNL     1      22.840   3.058  51.799  1.00  0.00     0.099 C 
HETATM   23  C17 UNL     1      22.203   2.261  49.348  1.00  0.00     0.247 C 
HETATM   24  O1  UNL     1      22.066   2.244  48.109  1.00  0.00    -0.268 OA
BRANCH  22  25
HETATM   25  C15 UNL     1      23.479   1.802  52.148  1.00  0.00     0.057 C 
BRANCH  25  26
HETATM   26  C16 UNL     1      22.667   0.792  52.883  1.00  0.00     0.224 C 
HETATM   27  F1  UNL     1      22.050  -0.170  52.177  1.00  0.00    -0.255 F 
ENDBRANCH  25  26
ENDBRANCH  22  25
BRANCH  23  28
HETATM   28  C18 UNL     1      21.510   1.029  49.106  1.00  0.00     0.064 C 
HETATM   29  C19 UNL     1      20.294   0.841  49.560  1.00  0.00     0.017 C 
ENDBRANCH  23  28
ENDBRANCH   7  16
BRANCH   1  30
HETATM   30  C2  UNL     1      30.619   9.106  49.255  1.00  0.00    -0.023 C 
HETATM   31  C1  UNL     1      31.242   7.844  49.321  1.00  0.00     0.008 C 
ENDBRANCH   1  30
TORSDOF 5
ENDMDL
