MODEL 1
REMARK VINA RESULT:      -8.2      0.000      0.000
REMARK  6 active torsions:
REMARK  status: ('A' for Active; 'I' for Inactive)
REMARK    1  A    between atoms: C4_4  and  C5_5 
REMARK    2  A    between atoms: C6_6  and  C7_7 
REMARK    3  A    between atoms: C7_7  and  N1_8 
REMARK    4  A    between atoms: C9_10  and  C10_11 
REMARK    5  A    between atoms: C11_12  and  C13_15 
REMARK    6  A    between atoms: C13_15  and  C14_17 
ROOT
HETATM    1  C10 UNL     1      22.605   0.837  53.171  1.00  0.00     0.011 C 
HETATM    2  C11 UNL     1      21.758  -0.062  53.626  1.00  0.00     0.068 C 
HETATM    3  C12 UNL     1      22.104  -1.015  54.639  1.00  0.00     0.101 C 
HETATM    4  N2  UNL     1      22.370  -1.807  55.468  1.00  0.00    -0.191 NA
ENDROOT
BRANCH   2   5
HETATM    5  C13 UNL     1      20.401  -0.090  53.076  1.00  0.00     0.077 C 
HETATM    6  N3  UNL     1      19.482  -0.785  53.698  1.00  0.00    -0.301 NA
HETATM    7  H14 UNL     1      19.694  -1.313  54.569  1.00  0.00     0.186 HD
BRANCH   5   8
HETATM    8  C14 UNL     1      19.985   0.633  51.845  1.00  0.00     0.251 C 
HETATM    9  C15 UNL     1      18.713   0.106  51.345  1.00  0.00     0.085 C 
HETATM   10  N4  UNL     1      17.706  -0.318  50.931  1.00  0.00    -0.195 NA
HETATM   11  C16 UNL     1      19.822   2.052  52.210  1.00  0.00     0.085 C 
HETATM   12  N5  UNL     1      19.705   3.168  52.480  1.00  0.00    -0.195 NA
ENDBRANCH   5   8
ENDBRANCH   2   5
BRANCH   1  13
HETATM   13  C9  UNL     1      23.993   1.152  53.480  1.00  0.00     0.061 A 
HETATM   14  C2  UNL     1      24.527   2.008  52.362  1.00  0.00    -0.072 A 
HETATM   15  C1  UNL     1      23.848   3.289  52.013  1.00  0.00     0.044 C 
HETATM   16  C3  UNL     1      25.589   1.480  51.805  1.00  0.00     0.014 A 
HETATM   17  C4  UNL     1      25.827   0.234  52.524  1.00  0.00    -0.039 A 
HETATM   18  C8  UNL     1      24.930   0.026  53.485  1.00  0.00    -0.003 A 
BRANCH  17  19
HETATM   19  C5  UNL     1      26.923  -0.685  52.229  1.00  0.00     0.009 C 
HETATM   20  C6  UNL     1      27.827  -1.000  53.143  1.00  0.00     0.003 C 
BRANCH  20  21
HETATM   21  C7  UNL     1      28.994  -1.881  53.081  1.00  0.00     0.294 C 
BRANCH  21  22
HETATM   22  N1  UNL     1      28.570  -3.265  53.158  1.00  0.00     0.081 N 
HETATM   23  H9  UNL     1      27.564  -3.317  53.440  1.00  0.00     0.313 HD
HETATM   24  H10 UNL     1      28.689  -3.652  52.178  1.00  0.00     0.313 HD
ENDBRANCH  21  22
ENDBRANCH  20  21
ENDBRANCH  17  19
ENDBRANCH   1  13
TORSDOF 6
ENDMDL
MODEL 2
REMARK VINA RESULT:      -7.9      2.659      7.544
REMARK  6 active torsions:
REMARK  status: ('A' for Active; 'I' for Inactive)
REMARK    1  A    between atoms: C4_4  and  C5_5 
REMARK    2  A    between atoms: C6_6  and  C7_7 
REMARK    3  A    between atoms: C7_7  and  N1_8 
REMARK    4  A    between atoms: C9_10  and  C10_11 
REMARK    5  A    between atoms: C11_12  and  C13_15 
REMARK    6  A    between atoms: C13_15  and  C14_17 
ROOT
HETATM    1  C10 UNL     1      24.970   0.048  53.084  1.00  0.00     0.011 C 
HETATM    2  C11 UNL     1      26.179   0.260  52.609  1.00  0.00     0.068 C 
HETATM    3  C12 UNL     1      26.531   1.438  51.871  1.00  0.00     0.101 C 
HETATM    4  N2  UNL     1      26.838   2.397  51.262  1.00  0.00    -0.191 NA
ENDROOT
BRANCH   2   5
HETATM    5  C13 UNL     1      27.213  -0.750  52.845  1.00  0.00     0.077 C 
HETATM    6  N3  UNL     1      26.883  -2.016  52.789  1.00  0.00    -0.301 NA
HETATM    7  H14 UNL     1      25.910  -2.317  52.582  1.00  0.00     0.186 HD
BRANCH   5   8
HETATM    8  C14 UNL     1      28.635  -0.433  53.141  1.00  0.00     0.251 C 
HETATM    9  C15 UNL     1      28.729   0.512  54.256  1.00  0.00     0.085 C 
HETATM   10  N4  UNL     1      28.813   1.277  55.136  1.00  0.00    -0.195 NA
HETATM   11  C16 UNL     1      29.294  -1.699  53.509  1.00  0.00     0.085 C 
HETATM   12  N5  UNL     1      29.824  -2.686  53.787  1.00  0.00    -0.195 NA
ENDBRANCH   5   8
ENDBRANCH   2   5
BRANCH   1  13
HETATM   13  C9  UNL     1      23.730   0.814  53.045  1.00  0.00     0.061 A 
HETATM   14  C2  UNL     1      22.607  -0.118  53.413  1.00  0.00    -0.072 A 
HETATM   15  C1  UNL     1      22.638  -0.849  54.713  1.00  0.00     0.044 C 
HETATM   16  C3  UNL     1      21.687  -0.170  52.481  1.00  0.00     0.014 A 
HETATM   17  C4  UNL     1      22.147   0.732  51.431  1.00  0.00    -0.039 A 
HETATM   18  C8  UNL     1      23.310   1.305  51.731  1.00  0.00    -0.003 A 
BRANCH  17  19
HETATM   19  C5  UNL     1      21.419   0.982  50.190  1.00  0.00     0.009 C 
HETATM   20  C6  UNL     1      21.950   1.692  49.208  1.00  0.00     0.003 C 
BRANCH  20  21
HETATM   21  C7  UNL     1      21.422   2.069  47.896  1.00  0.00     0.294 C 
BRANCH  21  22
HETATM   22  N1  UNL     1      19.984   2.239  47.975  1.00  0.00     0.081 N 
HETATM   23  H9  UNL     1      19.521   1.769  47.163  1.00  0.00     0.313 HD
HETATM   24  H10 UNL     1      19.693   1.765  48.878  1.00  0.00     0.313 HD
ENDBRANCH  21  22
ENDBRANCH  20  21
ENDBRANCH  17  19
ENDBRANCH   1  13
TORSDOF 6
ENDMDL
MODEL 3
REMARK VINA RESULT:      -7.9      2.344      7.163
REMARK  6 active torsions:
REMARK  status: ('A' for Active; 'I' for Inactive)
REMARK    1  A    between atoms: C4_4  and  C5_5 
REMARK    2  A    between atoms: C6_6  and  C7_7 
REMARK    3  A    between atoms: C7_7  and  N1_8 
REMARK    4  A    between atoms: C9_10  and  C10_11 
REMARK    5  A    between atoms: C11_12  and  C13_15 
REMARK    6  A    between atoms: C13_15  and  C14_17 
ROOT
HETATM    1  C10 UNL     1      24.854   0.229  53.476  1.00  0.00     0.011 C 
HETATM    2  C11 UNL     1      26.033  -0.346  53.583  1.00  0.00     0.068 C 
HETATM    3  C12 UNL     1      26.444  -1.440  52.751  1.00  0.00     0.101 C 
HETATM    4  N2  UNL     1      26.798  -2.339  52.081  1.00  0.00    -0.191 NA
ENDROOT
BRANCH   2   5
HETATM    5  C13 UNL     1      26.969   0.152  54.593  1.00  0.00     0.077 C 
HETATM    6  N3  UNL     1      26.674  -0.006  55.859  1.00  0.00    -0.301 NA
HETATM    7  H14 UNL     1      25.796  -0.474  56.160  1.00  0.00     0.186 HD
BRANCH   5   8
HETATM    8  C14 UNL     1      28.255   0.828  54.276  1.00  0.00     0.251 C 
HETATM    9  C15 UNL     1      29.276  -0.157  53.911  1.00  0.00     0.085 C 
HETATM   10  N4  UNL     1      30.100  -0.937  53.631  1.00  0.00    -0.195 NA
HETATM   11  C16 UNL     1      28.003   1.726  53.135  1.00  0.00     0.085 C 
HETATM   12  N5  UNL     1      27.815   2.443  52.250  1.00  0.00    -0.195 NA
ENDBRANCH   5   8
ENDBRANCH   2   5
BRANCH   1  13
HETATM   13  C9  UNL     1      23.706   0.006  52.607  1.00  0.00     0.061 A 
HETATM   14  C2  UNL     1      22.995   1.323  52.444  1.00  0.00    -0.072 A 
HETATM   15  C1  UNL     1      23.729   2.508  51.916  1.00  0.00     0.044 C 
HETATM   16  C3  UNL     1      21.739   1.252  52.814  1.00  0.00     0.014 A 
HETATM   17  C4  UNL     1      21.540  -0.127  53.246  1.00  0.00    -0.039 A 
HETATM   18  C8  UNL     1      22.647  -0.856  53.137  1.00  0.00    -0.003 A 
BRANCH  17  19
HETATM   19  C5  UNL     1      20.272  -0.653  53.743  1.00  0.00     0.009 C 
HETATM   20  C6  UNL     1      19.188  -0.680  52.984  1.00  0.00     0.003 C 
BRANCH  20  21
HETATM   21  C7  UNL     1      17.830  -1.151  53.258  1.00  0.00     0.294 C 
BRANCH  21  22
HETATM   22  N1  UNL     1      17.880  -2.366  54.049  1.00  0.00     0.081 N 
HETATM   23  H9  UNL     1      17.384  -3.140  53.550  1.00  0.00     0.313 HD
HETATM   24  H10 UNL     1      18.911  -2.599  54.141  1.00  0.00     0.313 HD
ENDBRANCH  21  22
ENDBRANCH  20  21
ENDBRANCH  17  19
ENDBRANCH   1  13
TORSDOF 6
ENDMDL
MODEL 4
REMARK VINA RESULT:      -7.9      1.930      6.734
REMARK  6 active torsions:
REMARK  status: ('A' for Active; 'I' for Inactive)
REMARK    1  A    between atoms: C4_4  and  C5_5 
REMARK    2  A    between atoms: C6_6  and  C7_7 
REMARK    3  A    between atoms: C7_7  and  N1_8 
REMARK    4  A    between atoms: C9_10  and  C10_11 
REMARK    5  A    between atoms: C11_12  and  C13_15 
REMARK    6  A    between atoms: C13_15  and  C14_17 
ROOT
HETATM    1  C10 UNL     1      23.869   0.587  52.384  1.00  0.00     0.011 C 
HETATM    2  C11 UNL     1      23.916  -0.111  53.499  1.00  0.00     0.068 C 
HETATM    3  C12 UNL     1      22.740  -0.556  54.190  1.00  0.00     0.101 C 
HETATM    4  N2  UNL     1      21.788  -0.927  54.772  1.00  0.00    -0.191 NA
ENDROOT
BRANCH   2   5
HETATM    5  C13 UNL     1      25.225  -0.451  54.061  1.00  0.00     0.077 C 
HETATM    6  N3  UNL     1      25.281  -0.974  55.260  1.00  0.00    -0.301 NA
HETATM    7  H14 UNL     1      24.421  -1.152  55.818  1.00  0.00     0.186 HD
BRANCH   5   8
HETATM    8  C14 UNL     1      26.515  -0.248  53.350  1.00  0.00     0.251 C 
HETATM    9  C15 UNL     1      27.555   0.181  54.288  1.00  0.00     0.085 C 
HETATM   10  N4  UNL     1      28.389   0.537  55.026  1.00  0.00    -0.195 NA
HETATM   11  C16 UNL     1      26.890  -1.543  52.754  1.00  0.00     0.085 C 
HETATM   12  N5  UNL     1      27.188  -2.548  52.271  1.00  0.00    -0.195 NA
ENDBRANCH   5   8
ENDBRANCH   2   5
BRANCH   1  13
HETATM   13  C9  UNL     1      22.776   1.088  51.561  1.00  0.00     0.061 A 
HETATM   14  C2  UNL     1      22.180   2.276  52.269  1.00  0.00    -0.072 A 
HETATM   15  C1  UNL     1      23.038   3.441  52.626  1.00  0.00     0.044 C 
HETATM   16  C3  UNL     1      20.898   2.119  52.495  1.00  0.00     0.014 A 
HETATM   17  C4  UNL     1      20.564   0.810  51.945  1.00  0.00    -0.039 A 
HETATM   18  C8  UNL     1      21.620   0.204  51.408  1.00  0.00    -0.003 A 
BRANCH  17  19
HETATM   19  C5  UNL     1      19.227   0.225  51.979  1.00  0.00     0.009 C 
HETATM   20  C6  UNL     1      18.859  -0.607  52.940  1.00  0.00     0.003 C 
BRANCH  20  21
HETATM   21  C7  UNL     1      17.596  -1.306  53.180  1.00  0.00     0.294 C 
BRANCH  21  22
HETATM   22  N1  UNL     1      17.822  -2.450  54.041  1.00  0.00     0.081 N 
HETATM   23  H9  UNL     1      18.514  -3.100  53.600  1.00  0.00     0.313 HD
HETATM   24  H10 UNL     1      18.223  -2.053  54.938  1.00  0.00     0.313 HD
ENDBRANCH  21  22
ENDBRANCH  20  21
ENDBRANCH  17  19
ENDBRANCH   1  13
TORSDOF 6
ENDMDL
MODEL 5
REMARK VINA RESULT:      -7.7      4.417      6.813
REMARK  6 active torsions:
REMARK  status: ('A' for Active; 'I' for Inactive)
REMARK    1  A    between atoms: C4_4  and  C5_5 
REMARK    2  A    between atoms: C6_6  and  C7_7 
REMARK    3  A    between atoms: C7_7  and  N1_8 
REMARK    4  A    between atoms: C9_10  and  C10_11 
REMARK    5  A    between atoms: C11_12  and  C13_15 
REMARK    6  A    between atoms: C13_15  and  C14_17 
ROOT
HETATM    1  C10 UNL     1      25.811   3.586  50.822  1.00  0.00     0.011 C 
HETATM    2  C11 UNL     1      25.213   4.348  49.931  1.00  0.00     0.068 C 
HETATM    3  C12 UNL     1      24.052   3.929  49.201  1.00  0.00     0.101 C 
HETATM    4  N2  UNL     1      23.101   3.602  48.591  1.00  0.00    -0.191 NA
ENDROOT
BRANCH   2   5
HETATM    5  C13 UNL     1      25.753   5.685  49.674  1.00  0.00     0.077 C 
HETATM    6  N3  UNL     1      25.645   6.599  50.605  1.00  0.00    -0.301 NA
HETATM    7  H14 UNL     1      25.187   6.398  51.516  1.00  0.00     0.186 HD
BRANCH   5   8
HETATM    8  C14 UNL     1      26.434   6.079  48.412  1.00  0.00     0.251 C 
HETATM    9  C15 UNL     1      26.516   7.538  48.309  1.00  0.00     0.085 C 
HETATM   10  N4  UNL     1      26.573   8.702  48.210  1.00  0.00    -0.195 NA
HETATM   11  C16 UNL     1      27.792   5.510  48.456  1.00  0.00     0.085 C 
HETATM   12  N5  UNL     1      28.855   5.058  48.473  1.00  0.00    -0.195 NA
ENDBRANCH   5   8
ENDBRANCH   2   5
BRANCH   1  13
HETATM   13  C9  UNL     1      25.556   2.242  51.323  1.00  0.00     0.061 A 
HETATM   14  C2  UNL     1      24.990   2.372  52.712  1.00  0.00    -0.072 A 
HETATM   15  C1  UNL     1      23.755   3.175  52.944  1.00  0.00     0.044 C 
HETATM   16  C3  UNL     1      25.706   1.720  53.596  1.00  0.00     0.014 A 
HETATM   17  C4  UNL     1      26.795   1.112  52.841  1.00  0.00    -0.039 A 
HETATM   18  C8  UNL     1      26.730   1.396  51.543  1.00  0.00    -0.003 A 
BRANCH  17  19
HETATM   19  C5  UNL     1      27.842   0.287  53.437  1.00  0.00     0.009 C 
HETATM   20  C6  UNL     1      28.158  -0.897  52.937  1.00  0.00     0.003 C 
BRANCH  20  21
HETATM   21  C7  UNL     1      29.153  -1.886  53.355  1.00  0.00     0.294 C 
BRANCH  21  22
HETATM   22  N1  UNL     1      28.608  -3.222  53.214  1.00  0.00     0.081 N 
HETATM   23  H9  UNL     1      29.375  -3.904  53.012  1.00  0.00     0.313 HD
HETATM   24  H10 UNL     1      28.166  -3.447  54.152  1.00  0.00     0.313 HD
ENDBRANCH  21  22
ENDBRANCH  20  21
ENDBRANCH  17  19
ENDBRANCH   1  13
TORSDOF 6
ENDMDL
MODEL 6
REMARK VINA RESULT:      -7.6      2.802      7.405
REMARK  6 active torsions:
REMARK  status: ('A' for Active; 'I' for Inactive)
REMARK    1  A    between atoms: C4_4  and  C5_5 
REMARK    2  A    between atoms: C6_6  and  C7_7 
REMARK    3  A    between atoms: C7_7  and  N1_8 
REMARK    4  A    between atoms: C9_10  and  C10_11 
REMARK    5  A    between atoms: C11_12  and  C13_15 
REMARK    6  A    between atoms: C13_15  and  C14_17 
ROOT
HETATM    1  C10 UNL     1      24.063   1.568  52.412  1.00  0.00     0.011 C 
HETATM    2  C11 UNL     1      25.226   2.094  52.091  1.00  0.00     0.068 C 
HETATM    3  C12 UNL     1      25.485   2.688  50.812  1.00  0.00     0.101 C 
HETATM    4  N2  UNL     1      25.718   3.178  49.768  1.00  0.00    -0.191 NA
ENDROOT
BRANCH   2   5
HETATM    5  C13 UNL     1      26.304   2.073  53.082  1.00  0.00     0.077 C 
HETATM    6  N3  UNL     1      26.153   2.749  54.193  1.00  0.00    -0.301 NA
HETATM    7  H14 UNL     1      25.289   3.296  54.385  1.00  0.00     0.186 HD
BRANCH   5   8
HETATM    8  C14 UNL     1      27.575   1.321  52.915  1.00  0.00     0.251 C 
HETATM    9  C15 UNL     1      28.579   1.791  53.873  1.00  0.00     0.085 C 
HETATM   10  N4  UNL     1      29.391   2.169  54.624  1.00  0.00    -0.195 NA
HETATM   11  C16 UNL     1      27.275  -0.099  53.172  1.00  0.00     0.085 C 
HETATM   12  N5  UNL     1      27.049  -1.217  53.357  1.00  0.00    -0.195 NA
ENDBRANCH   5   8
ENDBRANCH   2   5
BRANCH   1  13
HETATM   13  C9  UNL     1      22.800   1.418  51.701  1.00  0.00     0.061 A 
HETATM   14  C2  UNL     1      21.873   2.502  52.184  1.00  0.00    -0.072 A 
HETATM   15  C1  UNL     1      22.278   3.933  52.078  1.00  0.00     0.044 C 
HETATM   16  C3  UNL     1      20.758   2.013  52.668  1.00  0.00     0.014 A 
HETATM   17  C4  UNL     1      20.878   0.565  52.533  1.00  0.00    -0.039 A 
HETATM   18  C8  UNL     1      22.034   0.203  51.983  1.00  0.00    -0.003 A 
BRANCH  17  19
HETATM   19  C5  UNL     1      19.850  -0.383  52.952  1.00  0.00     0.009 C 
HETATM   20  C6  UNL     1      18.649  -0.393  52.396  1.00  0.00     0.003 C 
BRANCH  20  21
HETATM   21  C7  UNL     1      17.477  -1.234  52.646  1.00  0.00     0.294 C 
BRANCH  21  22
HETATM   22  N1  UNL     1      17.586  -1.854  53.952  1.00  0.00     0.081 N 
HETATM   23  H9  UNL     1      18.498  -1.598  54.396  1.00  0.00     0.313 HD
HETATM   24  H10 UNL     1      16.784  -1.456  54.521  1.00  0.00     0.313 HD
ENDBRANCH  21  22
ENDBRANCH  20  21
ENDBRANCH  17  19
ENDBRANCH   1  13
TORSDOF 6
ENDMDL
MODEL 7
REMARK VINA RESULT:      -7.4      2.644      6.693
REMARK  6 active torsions:
REMARK  status: ('A' for Active; 'I' for Inactive)
REMARK    1  A    between atoms: C4_4  and  C5_5 
REMARK    2  A    between atoms: C6_6  and  C7_7 
REMARK    3  A    between atoms: C7_7  and  N1_8 
REMARK    4  A    between atoms: C9_10  and  C10_11 
REMARK    5  A    between atoms: C11_12  and  C13_15 
REMARK    6  A    between atoms: C13_15  and  C14_17 
ROOT
HETATM    1  C10 UNL     1      23.652   1.134  52.869  1.00  0.00     0.011 C 
HETATM    2  C11 UNL     1      23.874   0.081  53.627  1.00  0.00     0.068 C 
HETATM    3  C12 UNL     1      22.843  -0.562  54.388  1.00  0.00     0.101 C 
HETATM    4  N2  UNL     1      22.012  -1.102  55.021  1.00  0.00    -0.191 NA
ENDROOT
BRANCH   2   5
HETATM    5  C13 UNL     1      25.234  -0.459  53.698  1.00  0.00     0.077 C 
HETATM    6  N3  UNL     1      25.663  -0.941  54.837  1.00  0.00    -0.301 NA
HETATM    7  H14 UNL     1      25.062  -0.949  55.686  1.00  0.00     0.186 HD
BRANCH   5   8
HETATM    8  C14 UNL     1      26.173  -0.506  52.546  1.00  0.00     0.251 C 
HETATM    9  C15 UNL     1      26.992   0.708  52.502  1.00  0.00     0.085 C 
HETATM   10  N4  UNL     1      27.640   1.679  52.451  1.00  0.00    -0.195 NA
HETATM   11  C16 UNL     1      27.040  -1.681  52.742  1.00  0.00     0.085 C 
HETATM   12  N5  UNL     1      27.717  -2.607  52.877  1.00  0.00    -0.195 NA
ENDBRANCH   5   8
ENDBRANCH   2   5
BRANCH   1  13
HETATM   13  C9  UNL     1      22.460   1.915  52.564  1.00  0.00     0.061 A 
HETATM   14  C2  UNL     1      21.928   1.436  51.239  1.00  0.00    -0.072 A 
HETATM   15  C1  UNL     1      21.579  -0.001  51.049  1.00  0.00     0.044 C 
HETATM   16  C3  UNL     1      21.836   2.411  50.367  1.00  0.00     0.014 A 
HETATM   17  C4  UNL     1      22.302   3.602  51.066  1.00  0.00    -0.039 A 
HETATM   18  C8  UNL     1      22.664   3.344  52.320  1.00  0.00    -0.003 A 
BRANCH  17  19
HETATM   19  C5  UNL     1      22.369   4.931  50.463  1.00  0.00     0.009 C 
HETATM   20  C6  UNL     1      23.033   5.920  51.040  1.00  0.00     0.003 C 
BRANCH  20  21
HETATM   21  C7  UNL     1      23.236   7.311  50.633  1.00  0.00     0.294 C 
BRANCH  21  22
HETATM   22  N1  UNL     1      24.243   7.928  51.473  1.00  0.00     0.081 N 
HETATM   23  H9  UNL     1      24.054   8.952  51.568  1.00  0.00     0.313 HD
HETATM   24  H10 UNL     1      24.149   7.456  52.419  1.00  0.00     0.313 HD
ENDBRANCH  21  22
ENDBRANCH  20  21
ENDBRANCH  17  19
ENDBRANCH   1  13
TORSDOF 6
ENDMDL
MODEL 8
REMARK VINA RESULT:      -7.3      5.564      7.884
REMARK  6 active torsions:
REMARK  status: ('A' for Active; 'I' for Inactive)
REMARK    1  A    between atoms: C4_4  and  C5_5 
REMARK    2  A    between atoms: C6_6  and  C7_7 
REMARK    3  A    between atoms: C7_7  and  N1_8 
REMARK    4  A    between atoms: C9_10  and  C10_11 
REMARK    5  A    between atoms: C11_12  and  C13_15 
REMARK    6  A    between atoms: C13_15  and  C14_17 
ROOT
HETATM    1  C10 UNL     1      25.877   4.958  49.471  1.00  0.00     0.011 C 
HETATM    2  C11 UNL     1      26.825   5.794  49.105  1.00  0.00     0.068 C 
HETATM    3  C12 UNL     1      28.078   5.361  48.559  1.00  0.00     0.101 C 
HETATM    4  N2  UNL     1      29.113   5.024  48.112  1.00  0.00    -0.191 NA
ENDROOT
BRANCH   2   5
HETATM    5  C13 UNL     1      26.592   7.232  49.260  1.00  0.00     0.077 C 
HETATM    6  N3  UNL     1      26.416   7.716  50.464  1.00  0.00    -0.301 NA
HETATM    7  H14 UNL     1      26.439   7.106  51.305  1.00  0.00     0.186 HD
BRANCH   5   8
HETATM    8  C14 UNL     1      26.549   8.196  48.129  1.00  0.00     0.251 C 
HETATM    9  C15 UNL     1      25.366   7.957  47.297  1.00  0.00     0.085 C 
HETATM   10  N4  UNL     1      24.434   7.765  46.619  1.00  0.00    -0.195 NA
HETATM   11  C16 UNL     1      26.477   9.547  48.713  1.00  0.00     0.085 C 
HETATM   12  N5  UNL     1      26.434  10.611  49.159  1.00  0.00    -0.195 NA
ENDBRANCH   5   8
ENDBRANCH   2   5
BRANCH   1  13
HETATM   13  C9  UNL     1      25.763   3.505  49.457  1.00  0.00     0.061 A 
HETATM   14  C2  UNL     1      24.336   3.156  49.789  1.00  0.00    -0.072 A 
HETATM   15  C1  UNL     1      23.223   3.698  48.958  1.00  0.00     0.044 C 
HETATM   16  C3  UNL     1      24.254   2.370  50.834  1.00  0.00     0.014 A 
HETATM   17  C4  UNL     1      25.631   2.148  51.262  1.00  0.00    -0.039 A 
HETATM   18  C8  UNL     1      26.509   2.784  50.491  1.00  0.00    -0.003 A 
BRANCH  17  19
HETATM   19  C5  UNL     1      26.009   1.321  52.405  1.00  0.00     0.009 C 
HETATM   20  C6  UNL     1      26.715   0.213  52.254  1.00  0.00     0.003 C 
BRANCH  20  21
HETATM   21  C7  UNL     1      27.203  -0.761  53.232  1.00  0.00     0.294 C 
BRANCH  21  22
HETATM   22  N1  UNL     1      27.398  -0.114  54.515  1.00  0.00     0.081 N 
HETATM   23  H9  UNL     1      26.477   0.018  54.994  1.00  0.00     0.313 HD
HETATM   24  H10 UNL     1      28.004  -0.779  55.077  1.00  0.00     0.313 HD
ENDBRANCH  21  22
ENDBRANCH  20  21
ENDBRANCH  17  19
ENDBRANCH   1  13
TORSDOF 6
ENDMDL
MODEL 9
REMARK VINA RESULT:      -7.3      3.489      6.490
REMARK  6 active torsions:
REMARK  status: ('A' for Active; 'I' for Inactive)
REMARK    1  A    between atoms: C4_4  and  C5_5 
REMARK    2  A    between atoms: C6_6  and  C7_7 
REMARK    3  A    between atoms: C7_7  and  N1_8 
REMARK    4  A    between atoms: C9_10  and  C10_11 
REMARK    5  A    between atoms: C11_12  and  C13_15 
REMARK    6  A    between atoms: C13_15  and  C14_17 
ROOT
HETATM    1  C10 UNL     1      24.204   1.993  51.896  1.00  0.00     0.011 C 
HETATM    2  C11 UNL     1      23.858   1.041  52.736  1.00  0.00     0.068 C 
HETATM    3  C12 UNL     1      22.523   0.895  53.241  1.00  0.00     0.101 C 
HETATM    4  N2  UNL     1      21.435   0.761  53.668  1.00  0.00    -0.191 NA
ENDROOT
BRANCH   2   5
HETATM    5  C13 UNL     1      24.878   0.087  53.176  1.00  0.00     0.077 C 
HETATM    6  N3  UNL     1      24.541  -0.849  54.027  1.00  0.00    -0.301 NA
HETATM    7  H14 UNL     1      23.572  -0.929  54.394  1.00  0.00     0.186 HD
BRANCH   5   8
HETATM    8  C14 UNL     1      26.290   0.103  52.710  1.00  0.00     0.251 C 
HETATM    9  C15 UNL     1      27.110   0.940  53.589  1.00  0.00     0.085 C 
HETATM   10  N4  UNL     1      27.770   1.617  54.276  1.00  0.00    -0.195 NA
HETATM   11  C16 UNL     1      26.777  -1.287  52.756  1.00  0.00     0.085 C 
HETATM   12  N5  UNL     1      27.166  -2.374  52.774  1.00  0.00    -0.195 NA
ENDBRANCH   5   8
ENDBRANCH   2   5
BRANCH   1  13
HETATM   13  C9  UNL     1      23.474   3.083  51.260  1.00  0.00     0.061 A 
HETATM   14  C2  UNL     1      23.045   2.610  49.897  1.00  0.00    -0.072 A 
HETATM   15  C1  UNL     1      22.215   1.379  49.760  1.00  0.00     0.044 C 
HETATM   16  C3  UNL     1      23.487   3.395  48.944  1.00  0.00     0.014 A 
HETATM   17  C4  UNL     1      24.241   4.443  49.623  1.00  0.00    -0.039 A 
HETATM   18  C8  UNL     1      24.247   4.286  50.945  1.00  0.00    -0.003 A 
BRANCH  17  19
HETATM   19  C5  UNL     1      24.914   5.541  48.937  1.00  0.00     0.009 C 
HETATM   20  C6  UNL     1      26.234   5.623  48.891  1.00  0.00     0.003 C 
BRANCH  20  21
HETATM   21  C7  UNL     1      27.118   6.614  48.274  1.00  0.00     0.294 C 
BRANCH  21  22
HETATM   22  N1  UNL     1      28.419   6.577  48.913  1.00  0.00     0.081 N 
HETATM   23  H9  UNL     1      28.601   5.624  49.303  1.00  0.00     0.313 HD
HETATM   24  H10 UNL     1      29.117   6.790  48.143  1.00  0.00     0.313 HD
ENDBRANCH  21  22
ENDBRANCH  20  21
ENDBRANCH  17  19
ENDBRANCH   1  13
TORSDOF 6
ENDMDL
