MODEL 1
REMARK VINA RESULT:      -7.1      0.000      0.000
REMARK  7 active torsions:
REMARK  status: ('A' for Active; 'I' for Inactive)
REMARK    1  A    between atoms: O1_2  and  C2_3 
REMARK    2  A    between atoms: C6_9  and  N3_10 
REMARK    3  A    between atoms: N3_10  and  N4_11 
REMARK    4  A    between atoms: N4_11  and  C7_12 
REMARK    5  A    between atoms: C7_12  and  C8_13 
REMARK    6  A    between atoms: C9_14  and  C10_16 
REMARK    7  A    between atoms: C14_21  and  O2_22 
ROOT
HETATM    1  C2  UNL     1      27.182   0.100  53.672  1.00  0.00     0.103 A 
HETATM    2  C3  UNL     1      27.536   1.110  52.802  1.00  0.00     0.072 A 
HETATM    3  C4  UNL     1      26.622   1.775  52.008  1.00  0.00     0.075 A 
HETATM    4  N1  UNL     1      26.988   2.771  51.153  1.00  0.00    -0.241 NA
HETATM    5  C5  UNL     1      26.064   3.397  50.393  1.00  0.00     0.236 A 
HETATM    6  N2  UNL     1      24.747   3.052  50.458  1.00  0.00    -0.223 NA
HETATM    7  C6  UNL     1      24.415   2.066  51.309  1.00  0.00     0.151 A 
HETATM    8  C12 UNL     1      25.306   1.387  52.113  1.00  0.00     0.042 A 
HETATM    9  C13 UNL     1      24.920   0.380  52.972  1.00  0.00     0.057 A 
HETATM   10  C14 UNL     1      25.845  -0.275  53.762  1.00  0.00     0.102 A 
ENDROOT
BRANCH   7  11
HETATM   11  N3  UNL     1      23.031   1.743  51.341  1.00  0.00    -0.304 N 
HETATM   12  H6  UNL     1      22.328   1.725  52.110  1.00  0.00     0.182 HD
BRANCH  11  13
HETATM   13  N4  UNL     1      22.372   1.357  50.160  1.00  0.00    -0.235 NA
HETATM   14  H7  UNL     1      22.129   2.257  49.644  1.00  0.00     0.146 HD
BRANCH  13  15
HETATM   15  C7  UNL     1      21.078   0.770  50.500  1.00  0.00     0.139 C 
BRANCH  15  16
HETATM   16  C8  UNL     1      21.175   0.293  51.903  1.00  0.00     0.011 C 
HETATM   17  C9  UNL     1      20.269  -0.187  52.725  1.00  0.00     0.042 C 
HETATM   18 CL1  UNL     1      18.565  -0.434  52.423  1.00  0.00    -0.086 Cl
BRANCH  17  19
HETATM   19  C10 UNL     1      20.674  -0.589  54.097  1.00  0.00     0.210 C 
HETATM   20  C11 UNL     1      21.830  -1.561  53.927  1.00  0.00     0.051 C 
HETATM   21  F1  UNL     1      21.050   0.504  54.856  1.00  0.00    -0.244 F 
ENDBRANCH  17  19
ENDBRANCH  15  16
ENDBRANCH  13  15
ENDBRANCH  11  13
ENDBRANCH   7  11
BRANCH  10  22
HETATM   22  O2  UNL     1      25.507  -1.288  54.637  1.00  0.00    -0.353 OA
HETATM   23  C15 UNL     1      24.905  -1.018  55.884  1.00  0.00     0.210 C 
ENDBRANCH  10  22
BRANCH   1  24
HETATM   24  O1  UNL     1      28.110  -0.554  54.460  1.00  0.00    -0.353 OA
HETATM   25  C1  UNL     1      29.453  -0.580  54.008  1.00  0.00     0.210 C 
ENDBRANCH   1  24
TORSDOF 7
ENDMDL
MODEL 2
REMARK VINA RESULT:      -7.0      4.052      6.563
REMARK  7 active torsions:
REMARK  status: ('A' for Active; 'I' for Inactive)
REMARK    1  A    between atoms: O1_2  and  C2_3 
REMARK    2  A    between atoms: C6_9  and  N3_10 
REMARK    3  A    between atoms: N3_10  and  N4_11 
REMARK    4  A    between atoms: N4_11  and  C7_12 
REMARK    5  A    between atoms: C7_12  and  C8_13 
REMARK    6  A    between atoms: C9_14  and  C10_16 
REMARK    7  A    between atoms: C14_21  and  O2_22 
ROOT
HETATM    1  C2  UNL     1      22.787  -0.567  53.285  1.00  0.00     0.103 A 
HETATM    2  C3  UNL     1      23.891  -0.903  54.040  1.00  0.00     0.072 A 
HETATM    3  C4  UNL     1      25.048  -0.149  54.059  1.00  0.00     0.075 A 
HETATM    4  N1  UNL     1      26.131  -0.494  54.811  1.00  0.00    -0.241 NA
HETATM    5  C5  UNL     1      27.245   0.269  54.802  1.00  0.00     0.236 A 
HETATM    6  N2  UNL     1      27.318   1.400  54.045  1.00  0.00    -0.223 NA
HETATM    7  C6  UNL     1      26.235   1.716  53.312  1.00  0.00     0.151 A 
HETATM    8  C12 UNL     1      25.068   0.982  53.276  1.00  0.00     0.042 A 
HETATM    9  C13 UNL     1      23.982   1.345  52.509  1.00  0.00     0.057 A 
HETATM   10  C14 UNL     1      22.830   0.582  52.501  1.00  0.00     0.102 A 
ENDROOT
BRANCH   7  11
HETATM   11  N3  UNL     1      26.360   2.903  52.540  1.00  0.00    -0.304 N 
HETATM   12  H6  UNL     1      25.912   3.842  52.611  1.00  0.00     0.182 HD
BRANCH  11  13
HETATM   13  N4  UNL     1      27.231   2.935  51.437  1.00  0.00    -0.235 NA
HETATM   14  H7  UNL     1      27.633   3.922  51.401  1.00  0.00     0.146 HD
BRANCH  13  15
HETATM   15  C7  UNL     1      26.455   2.812  50.205  1.00  0.00     0.139 C 
BRANCH  15  16
HETATM   16  C8  UNL     1      25.875   4.150  49.926  1.00  0.00     0.011 C 
HETATM   17  C9  UNL     1      26.341   5.180  49.254  1.00  0.00     0.042 C 
HETATM   18 CL1  UNL     1      27.874   5.319  48.427  1.00  0.00    -0.086 Cl
BRANCH  17  19
HETATM   19  C10 UNL     1      25.515   6.409  49.144  1.00  0.00     0.210 C 
HETATM   20  C11 UNL     1      26.351   7.533  49.732  1.00  0.00     0.051 C 
HETATM   21  F1  UNL     1      25.175   6.677  47.830  1.00  0.00    -0.244 F 
ENDBRANCH  17  19
ENDBRANCH  15  16
ENDBRANCH  13  15
ENDBRANCH  11  13
ENDBRANCH   7  11
BRANCH  10  22
HETATM   22  O2  UNL     1      21.717   0.903  51.750  1.00  0.00    -0.353 OA
HETATM   23  C15 UNL     1      21.750   0.895  50.339  1.00  0.00     0.210 C 
ENDBRANCH  10  22
BRANCH   1  24
HETATM   24  O1  UNL     1      21.637  -1.333  53.279  1.00  0.00    -0.353 OA
HETATM   25  C1  UNL     1      20.878  -1.389  54.475  1.00  0.00     0.210 C 
ENDBRANCH   1  24
TORSDOF 7
ENDMDL
MODEL 3
REMARK VINA RESULT:      -7.0      3.273      6.012
REMARK  7 active torsions:
REMARK  status: ('A' for Active; 'I' for Inactive)
REMARK    1  A    between atoms: O1_2  and  C2_3 
REMARK    2  A    between atoms: C6_9  and  N3_10 
REMARK    3  A    between atoms: N3_10  and  N4_11 
REMARK    4  A    between atoms: N4_11  and  C7_12 
REMARK    5  A    between atoms: C7_12  and  C8_13 
REMARK    6  A    between atoms: C9_14  and  C10_16 
REMARK    7  A    between atoms: C14_21  and  O2_22 
ROOT
HETATM    1  C2  UNL     1      20.807   0.604  52.733  1.00  0.00     0.103 A 
HETATM    2  C3  UNL     1      20.614   1.902  52.307  1.00  0.00     0.072 A 
HETATM    3  C4  UNL     1      21.634   2.830  52.233  1.00  0.00     0.075 A 
HETATM    4  N1  UNL     1      21.426   4.108  51.809  1.00  0.00    -0.241 NA
HETATM    5  C5  UNL     1      22.451   4.987  51.751  1.00  0.00     0.236 A 
HETATM    6  N2  UNL     1      23.714   4.622  52.112  1.00  0.00    -0.223 NA
HETATM    7  C6  UNL     1      23.888   3.354  52.527  1.00  0.00     0.151 A 
HETATM    8  C12 UNL     1      22.889   2.409  52.610  1.00  0.00     0.042 A 
HETATM    9  C13 UNL     1      23.114   1.119  53.041  1.00  0.00     0.057 A 
HETATM   10  C14 UNL     1      22.084   0.201  53.109  1.00  0.00     0.102 A 
ENDROOT
BRANCH   7  11
HETATM   11  N3  UNL     1      25.221   3.023  52.892  1.00  0.00    -0.304 N 
HETATM   12  H6  UNL     1      25.662   2.771  53.803  1.00  0.00     0.182 HD
BRANCH  11  13
HETATM   13  N4  UNL     1      26.233   2.998  51.915  1.00  0.00    -0.235 NA
HETATM   14  H7  UNL     1      25.799   3.392  51.025  1.00  0.00     0.146 HD
BRANCH  13  15
HETATM   15  C7  UNL     1      26.550   1.611  51.584  1.00  0.00     0.139 C 
BRANCH  15  16
HETATM   16  C8  UNL     1      27.423   1.097  52.670  1.00  0.00     0.011 C 
HETATM   17  C9  UNL     1      27.628  -0.121  53.121  1.00  0.00     0.042 C 
HETATM   18 CL1  UNL     1      26.903  -1.610  52.565  1.00  0.00    -0.086 Cl
BRANCH  17  19
HETATM   19  C10 UNL     1      28.581  -0.328  54.242  1.00  0.00     0.210 C 
HETATM   20  C11 UNL     1      29.843  -0.903  53.621  1.00  0.00     0.051 C 
HETATM   21  F1  UNL     1      28.847   0.855  54.906  1.00  0.00    -0.244 F 
ENDBRANCH  17  19
ENDBRANCH  15  16
ENDBRANCH  13  15
ENDBRANCH  11  13
ENDBRANCH   7  11
BRANCH  10  22
HETATM   22  O2  UNL     1      22.260  -1.100  53.534  1.00  0.00    -0.353 OA
HETATM   23  C15 UNL     1      22.374  -1.422  54.903  1.00  0.00     0.210 C 
ENDBRANCH  10  22
BRANCH   1  24
HETATM   24  O1  UNL     1      19.774  -0.311  52.801  1.00  0.00    -0.353 OA
HETATM   25  C1  UNL     1      18.592  -0.023  52.073  1.00  0.00     0.210 C 
ENDBRANCH   1  24
TORSDOF 7
ENDMDL
MODEL 4
REMARK VINA RESULT:      -6.8      3.844      7.215
REMARK  7 active torsions:
REMARK  status: ('A' for Active; 'I' for Inactive)
REMARK    1  A    between atoms: O1_2  and  C2_3 
REMARK    2  A    between atoms: C6_9  and  N3_10 
REMARK    3  A    between atoms: N3_10  and  N4_11 
REMARK    4  A    between atoms: N4_11  and  C7_12 
REMARK    5  A    between atoms: C7_12  and  C8_13 
REMARK    6  A    between atoms: C9_14  and  C10_16 
REMARK    7  A    between atoms: C14_21  and  O2_22 
ROOT
HETATM    1  C2  UNL     1      19.197  -0.278  52.423  1.00  0.00     0.103 A 
HETATM    2  C3  UNL     1      19.745  -0.829  53.564  1.00  0.00     0.072 A 
HETATM    3  C4  UNL     1      21.097  -0.796  53.842  1.00  0.00     0.075 A 
HETATM    4  N1  UNL     1      21.621  -1.346  54.973  1.00  0.00    -0.241 NA
HETATM    5  C5  UNL     1      22.949  -1.293  55.210  1.00  0.00     0.236 A 
HETATM    6  N2  UNL     1      23.799  -0.693  54.329  1.00  0.00    -0.223 NA
HETATM    7  C6  UNL     1      23.253  -0.160  53.221  1.00  0.00     0.151 A 
HETATM    8  C12 UNL     1      21.909  -0.178  52.919  1.00  0.00     0.042 A 
HETATM    9  C13 UNL     1      21.394   0.382  51.769  1.00  0.00     0.057 A 
HETATM   10  C14 UNL     1      20.038   0.343  51.504  1.00  0.00     0.102 A 
ENDROOT
BRANCH   7  11
HETATM   11  N3  UNL     1      24.180   0.455  52.334  1.00  0.00    -0.304 N 
HETATM   12  H6  UNL     1      24.384   0.317  51.321  1.00  0.00     0.182 HD
BRANCH  11  13
HETATM   13  N4  UNL     1      25.043   1.459  52.805  1.00  0.00    -0.235 NA
HETATM   14  H7  UNL     1      24.585   2.389  52.557  1.00  0.00     0.146 HD
BRANCH  13  15
HETATM   15  C7  UNL     1      26.277   1.441  52.023  1.00  0.00     0.139 C 
BRANCH  15  16
HETATM   16  C8  UNL     1      27.332   0.869  52.896  1.00  0.00     0.011 C 
HETATM   17  C9  UNL     1      27.646  -0.376  53.184  1.00  0.00     0.042 C 
HETATM   18 CL1  UNL     1      26.886  -1.838  52.604  1.00  0.00    -0.086 Cl
BRANCH  17  19
HETATM   19  C10 UNL     1      28.777  -0.644  54.110  1.00  0.00     0.210 C 
HETATM   20  C11 UNL     1      30.032  -0.183  53.388  1.00  0.00     0.051 C 
HETATM   21  F1  UNL     1      28.618   0.026  55.310  1.00  0.00    -0.244 F 
ENDBRANCH  17  19
ENDBRANCH  15  16
ENDBRANCH  13  15
ENDBRANCH  11  13
ENDBRANCH   7  11
BRANCH  10  22
HETATM   22  O2  UNL     1      19.476   0.888  50.368  1.00  0.00    -0.353 OA
HETATM   23  C15 UNL     1      19.789   2.197  49.943  1.00  0.00     0.210 C 
ENDBRANCH  10  22
BRANCH   1  24
HETATM   24  O1  UNL     1      17.842  -0.320  52.161  1.00  0.00    -0.353 OA
HETATM   25  C1  UNL     1      17.034  -1.125  53.002  1.00  0.00     0.210 C 
ENDBRANCH   1  24
TORSDOF 7
ENDMDL
MODEL 5
REMARK VINA RESULT:      -6.6      3.000      4.424
REMARK  7 active torsions:
REMARK  status: ('A' for Active; 'I' for Inactive)
REMARK    1  A    between atoms: O1_2  and  C2_3 
REMARK    2  A    between atoms: C6_9  and  N3_10 
REMARK    3  A    between atoms: N3_10  and  N4_11 
REMARK    4  A    between atoms: N4_11  and  C7_12 
REMARK    5  A    between atoms: C7_12  and  C8_13 
REMARK    6  A    between atoms: C9_14  and  C10_16 
REMARK    7  A    between atoms: C14_21  and  O2_22 
ROOT
HETATM    1  C2  UNL     1      27.234   0.575  53.267  1.00  0.00     0.103 A 
HETATM    2  C3  UNL     1      26.746  -0.138  54.343  1.00  0.00     0.072 A 
HETATM    3  C4  UNL     1      25.412  -0.466  54.487  1.00  0.00     0.075 A 
HETATM    4  N1  UNL     1      24.947  -1.171  55.556  1.00  0.00    -0.241 NA
HETATM    5  C5  UNL     1      23.635  -1.472  55.661  1.00  0.00     0.236 A 
HETATM    6  N2  UNL     1      22.743  -1.082  54.706  1.00  0.00    -0.223 NA
HETATM    7  C6  UNL     1      23.232  -0.387  53.663  1.00  0.00     0.151 A 
HETATM    8  C12 UNL     1      24.556  -0.047  53.494  1.00  0.00     0.042 A 
HETATM    9  C13 UNL     1      25.012   0.667  52.407  1.00  0.00     0.057 A 
HETATM   10  C14 UNL     1      26.350   0.987  52.275  1.00  0.00     0.102 A 
ENDROOT
BRANCH   7  11
HETATM   11  N3  UNL     1      22.264  -0.004  52.694  1.00  0.00    -0.304 N 
HETATM   12  H6  UNL     1      22.205  -0.140  51.662  1.00  0.00     0.182 HD
BRANCH  11  13
HETATM   13  N4  UNL     1      21.116   0.705  53.090  1.00  0.00    -0.235 NA
HETATM   14  H7  UNL     1      20.364  -0.026  53.284  1.00  0.00     0.146 HD
BRANCH  13  15
HETATM   15  C7  UNL     1      20.601   1.464  51.953  1.00  0.00     0.139 C 
BRANCH  15  16
HETATM   16  C8  UNL     1      21.336   2.754  51.929  1.00  0.00     0.011 C 
HETATM   17  C9  UNL     1      22.247   3.223  51.104  1.00  0.00     0.042 C 
HETATM   18 CL1  UNL     1      22.928   2.443  49.697  1.00  0.00    -0.086 Cl
BRANCH  17  19
HETATM   19  C10 UNL     1      22.811   4.577  51.340  1.00  0.00     0.210 C 
HETATM   20  C11 UNL     1      23.469   4.527  52.709  1.00  0.00     0.051 C 
HETATM   21  F1  UNL     1      23.725   4.924  50.361  1.00  0.00    -0.244 F 
ENDBRANCH  17  19
ENDBRANCH  15  16
ENDBRANCH  13  15
ENDBRANCH  11  13
ENDBRANCH   7  11
BRANCH  10  22
HETATM   22  O2  UNL     1      26.853   1.700  51.206  1.00  0.00    -0.353 OA
HETATM   23  C15 UNL     1      26.339   2.965  50.852  1.00  0.00     0.210 C 
ENDBRANCH  10  22
BRANCH   1  24
HETATM   24  O1  UNL     1      28.572   0.894  53.139  1.00  0.00    -0.353 OA
HETATM   25  C1  UNL     1      29.518  -0.002  53.699  1.00  0.00     0.210 C 
ENDBRANCH   1  24
TORSDOF 7
ENDMDL
MODEL 6
REMARK VINA RESULT:      -6.5      5.447      8.012
REMARK  7 active torsions:
REMARK  status: ('A' for Active; 'I' for Inactive)
REMARK    1  A    between atoms: O1_2  and  C2_3 
REMARK    2  A    between atoms: C6_9  and  N3_10 
REMARK    3  A    between atoms: N3_10  and  N4_11 
REMARK    4  A    between atoms: N4_11  and  C7_12 
REMARK    5  A    between atoms: C7_12  and  C8_13 
REMARK    6  A    between atoms: C9_14  and  C10_16 
REMARK    7  A    between atoms: C14_21  and  O2_22 
ROOT
HETATM    1  C2  UNL     1      29.421   7.351  47.296  1.00  0.00     0.103 A 
HETATM    2  C3  UNL     1      28.099   7.736  47.390  1.00  0.00     0.072 A 
HETATM    3  C4  UNL     1      27.121   6.939  47.954  1.00  0.00     0.075 A 
HETATM    4  N1  UNL     1      25.820   7.334  48.039  1.00  0.00    -0.241 NA
HETATM    5  C5  UNL     1      24.893   6.526  48.597  1.00  0.00     0.236 A 
HETATM    6  N2  UNL     1      25.231   5.300  49.089  1.00  0.00    -0.223 NA
HETATM    7  C6  UNL     1      26.522   4.937  48.990  1.00  0.00     0.151 A 
HETATM    8  C12 UNL     1      27.517   5.712  48.434  1.00  0.00     0.042 A 
HETATM    9  C13 UNL     1      28.830   5.298  48.354  1.00  0.00     0.057 A 
HETATM   10  C14 UNL     1      29.797   6.106  47.788  1.00  0.00     0.102 A 
ENDROOT
BRANCH   7  11
HETATM   11  N3  UNL     1      26.824   3.651  49.517  1.00  0.00    -0.304 N 
HETATM   12  H6  UNL     1      26.949   2.718  49.070  1.00  0.00     0.182 HD
BRANCH  11  13
HETATM   13  N4  UNL     1      27.011   3.484  50.900  1.00  0.00    -0.235 NA
HETATM   14  H7  UNL     1      28.063   3.397  51.052  1.00  0.00     0.146 HD
BRANCH  13  15
HETATM   15  C7  UNL     1      26.475   2.187  51.307  1.00  0.00     0.139 C 
BRANCH  15  16
HETATM   16  C8  UNL     1      27.370   1.666  52.371  1.00  0.00     0.011 C 
HETATM   17  C9  UNL     1      27.528   0.456  52.861  1.00  0.00     0.042 C 
HETATM   18 CL1  UNL     1      26.695  -1.009  52.399  1.00  0.00    -0.086 Cl
BRANCH  17  19
HETATM   19  C10 UNL     1      28.520   0.236  53.945  1.00  0.00     0.210 C 
HETATM   20  C11 UNL     1      29.318  -0.993  53.543  1.00  0.00     0.051 C 
HETATM   21  F1  UNL     1      29.345   1.334  54.108  1.00  0.00    -0.244 F 
ENDBRANCH  17  19
ENDBRANCH  15  16
ENDBRANCH  13  15
ENDBRANCH  11  13
ENDBRANCH   7  11
BRANCH  10  22
HETATM   22  O2  UNL     1      31.123   5.736  47.686  1.00  0.00    -0.353 OA
HETATM   23  C15 UNL     1      31.500   4.433  47.298  1.00  0.00     0.210 C 
ENDBRANCH  10  22
BRANCH   1  24
HETATM   24  O1  UNL     1      30.385   8.161  46.729  1.00  0.00    -0.353 OA
HETATM   25  C1  UNL     1      30.441   8.226  45.314  1.00  0.00     0.210 C 
ENDBRANCH   1  24
TORSDOF 7
ENDMDL
MODEL 7
REMARK VINA RESULT:      -6.5      3.017      4.522
REMARK  7 active torsions:
REMARK  status: ('A' for Active; 'I' for Inactive)
REMARK    1  A    between atoms: O1_2  and  C2_3 
REMARK    2  A    between atoms: C6_9  and  N3_10 
REMARK    3  A    between atoms: N3_10  and  N4_11 
REMARK    4  A    between atoms: N4_11  and  C7_12 
REMARK    5  A    between atoms: C7_12  and  C8_13 
REMARK    6  A    between atoms: C9_14  and  C10_16 
REMARK    7  A    between atoms: C14_21  and  O2_22 
ROOT
HETATM    1  C2  UNL     1      27.211   0.652  53.321  1.00  0.00     0.103 A 
HETATM    2  C3  UNL     1      26.714  -0.058  54.395  1.00  0.00     0.072 A 
HETATM    3  C4  UNL     1      25.390  -0.438  54.499  1.00  0.00     0.075 A 
HETATM    4  N1  UNL     1      24.915  -1.139  55.566  1.00  0.00    -0.241 NA
HETATM    5  C5  UNL     1      23.613  -1.492  55.632  1.00  0.00     0.236 A 
HETATM    6  N2  UNL     1      22.742  -1.158  54.638  1.00  0.00    -0.223 NA
HETATM    7  C6  UNL     1      23.238  -0.465  53.598  1.00  0.00     0.151 A 
HETATM    8  C12 UNL     1      24.554  -0.075  53.468  1.00  0.00     0.042 A 
HETATM    9  C13 UNL     1      25.019   0.636  52.382  1.00  0.00     0.057 A 
HETATM   10  C14 UNL     1      26.346   1.008  52.290  1.00  0.00     0.102 A 
ENDROOT
BRANCH   7  11
HETATM   11  N3  UNL     1      22.291  -0.141  52.588  1.00  0.00    -0.304 N 
HETATM   12  H6  UNL     1      22.022  -0.609  51.696  1.00  0.00     0.182 HD
BRANCH  11  13
HETATM   13  N4  UNL     1      21.504   1.018  52.708  1.00  0.00    -0.235 NA
HETATM   14  H7  UNL     1      20.789   0.816  53.473  1.00  0.00     0.146 HD
BRANCH  13  15
HETATM   15  C7  UNL     1      20.705   1.186  51.497  1.00  0.00     0.139 C 
BRANCH  15  16
HETATM   16  C8  UNL     1      21.650   1.516  50.400  1.00  0.00     0.011 C 
HETATM   17  C9  UNL     1      22.396   2.577  50.182  1.00  0.00     0.042 C 
HETATM   18 CL1  UNL     1      22.527   4.019  51.159  1.00  0.00    -0.086 Cl
BRANCH  17  19
HETATM   19  C10 UNL     1      23.258   2.621  48.973  1.00  0.00     0.210 C 
HETATM   20  C11 UNL     1      22.405   2.103  47.827  1.00  0.00     0.051 C 
HETATM   21  F1  UNL     1      23.708   3.904  48.718  1.00  0.00    -0.244 F 
ENDBRANCH  17  19
ENDBRANCH  15  16
ENDBRANCH  13  15
ENDBRANCH  11  13
ENDBRANCH   7  11
BRANCH  10  22
HETATM   22  O2  UNL     1      26.859   1.719  51.224  1.00  0.00    -0.353 OA
HETATM   23  C15 UNL     1      26.401   3.017  50.912  1.00  0.00     0.210 C 
ENDBRANCH  10  22
BRANCH   1  24
HETATM   24  O1  UNL     1      28.538   1.023  53.233  1.00  0.00    -0.353 OA
HETATM   25  C1  UNL     1      29.511   0.098  53.691  1.00  0.00     0.210 C 
ENDBRANCH   1  24
TORSDOF 7
ENDMDL
MODEL 8
REMARK VINA RESULT:      -6.5      3.899      5.983
REMARK  7 active torsions:
REMARK  status: ('A' for Active; 'I' for Inactive)
REMARK    1  A    between atoms: O1_2  and  C2_3 
REMARK    2  A    between atoms: C6_9  and  N3_10 
REMARK    3  A    between atoms: N3_10  and  N4_11 
REMARK    4  A    between atoms: N4_11  and  C7_12 
REMARK    5  A    between atoms: C7_12  and  C8_13 
REMARK    6  A    between atoms: C9_14  and  C10_16 
REMARK    7  A    between atoms: C14_21  and  O2_22 
ROOT
HETATM    1  C2  UNL     1      25.751   0.179  53.635  1.00  0.00     0.103 A 
HETATM    2  C3  UNL     1      24.517  -0.134  53.102  1.00  0.00     0.072 A 
HETATM    3  C4  UNL     1      23.604   0.823  52.704  1.00  0.00     0.075 A 
HETATM    4  N1  UNL     1      22.390   0.496  52.179  1.00  0.00    -0.241 NA
HETATM    5  C5  UNL     1      21.523   1.460  51.802  1.00  0.00     0.236 A 
HETATM    6  N2  UNL     1      21.836   2.781  51.935  1.00  0.00    -0.223 NA
HETATM    7  C6  UNL     1      23.041   3.073  52.457  1.00  0.00     0.151 A 
HETATM    8  C12 UNL     1      23.971   2.139  52.861  1.00  0.00     0.042 A 
HETATM    9  C13 UNL     1      25.195   2.485  53.391  1.00  0.00     0.057 A 
HETATM   10  C14 UNL     1      26.100   1.518  53.784  1.00  0.00     0.102 A 
ENDROOT
BRANCH   7  11
HETATM   11  N3  UNL     1      23.320   4.462  52.575  1.00  0.00    -0.304 N 
HETATM   12  H6  UNL     1      22.884   5.224  53.137  1.00  0.00     0.182 HD
BRANCH  11  13
HETATM   13  N4  UNL     1      24.371   5.033  51.835  1.00  0.00    -0.235 NA
HETATM   14  H7  UNL     1      24.373   6.073  52.072  1.00  0.00     0.146 HD
BRANCH  13  15
HETATM   15  C7  UNL     1      24.041   4.983  50.413  1.00  0.00     0.139 C 
BRANCH  15  16
HETATM   16  C8  UNL     1      25.292   5.280  49.670  1.00  0.00     0.011 C 
HETATM   17  C9  UNL     1      25.997   6.385  49.556  1.00  0.00     0.042 C 
HETATM   18 CL1  UNL     1      25.676   7.945  50.275  1.00  0.00    -0.086 Cl
BRANCH  17  19
HETATM   19  C10 UNL     1      27.229   6.376  48.727  1.00  0.00     0.210 C 
HETATM   20  C11 UNL     1      27.636   4.919  48.590  1.00  0.00     0.051 C 
HETATM   21  F1  UNL     1      27.011   6.951  47.487  1.00  0.00    -0.244 F 
ENDBRANCH  17  19
ENDBRANCH  15  16
ENDBRANCH  13  15
ENDBRANCH  11  13
ENDBRANCH   7  11
BRANCH  10  22
HETATM   22  O2  UNL     1      27.337   1.815  54.320  1.00  0.00    -0.353 OA
HETATM   23  C15 UNL     1      28.386   2.322  53.524  1.00  0.00     0.210 C 
ENDBRANCH  10  22
BRANCH   1  24
HETATM   24  O1  UNL     1      26.653  -0.791  54.027  1.00  0.00    -0.353 OA
HETATM   25  C1  UNL     1      27.339  -1.500  53.010  1.00  0.00     0.210 C 
ENDBRANCH   1  24
TORSDOF 7
ENDMDL
MODEL 9
REMARK VINA RESULT:      -6.3      3.992      6.806
REMARK  7 active torsions:
REMARK  status: ('A' for Active; 'I' for Inactive)
REMARK    1  A    between atoms: O1_2  and  C2_3 
REMARK    2  A    between atoms: C6_9  and  N3_10 
REMARK    3  A    between atoms: N3_10  and  N4_11 
REMARK    4  A    between atoms: N4_11  and  C7_12 
REMARK    5  A    between atoms: C7_12  and  C8_13 
REMARK    6  A    between atoms: C9_14  and  C10_16 
REMARK    7  A    between atoms: C14_21  and  O2_22 
ROOT
HETATM    1  C2  UNL     1      19.772  -0.413  52.979  1.00  0.00     0.103 A 
HETATM    2  C3  UNL     1      20.390  -0.993  54.069  1.00  0.00     0.072 A 
HETATM    3  C4  UNL     1      21.758  -0.973  54.259  1.00  0.00     0.075 A 
HETATM    4  N1  UNL     1      22.351  -1.550  55.341  1.00  0.00    -0.241 NA
HETATM    5  C5  UNL     1      23.693  -1.509  55.491  1.00  0.00     0.236 A 
HETATM    6  N2  UNL     1      24.486  -0.892  54.569  1.00  0.00    -0.223 NA
HETATM    7  C6  UNL     1      23.873  -0.332  53.512  1.00  0.00     0.151 A 
HETATM    8  C12 UNL     1      22.511  -0.337  53.298  1.00  0.00     0.042 A 
HETATM    9  C13 UNL     1      21.925   0.251  52.198  1.00  0.00     0.057 A 
HETATM   10  C14 UNL     1      20.555   0.224  52.021  1.00  0.00     0.102 A 
ENDROOT
BRANCH   7  11
HETATM   11  N3  UNL     1      24.743   0.297  52.580  1.00  0.00    -0.304 N 
HETATM   12  H6  UNL     1      24.847   0.217  51.546  1.00  0.00     0.182 HD
BRANCH  11  13
HETATM   13  N4  UNL     1      25.693   1.232  53.027  1.00  0.00    -0.235 NA
HETATM   14  H7  UNL     1      26.056   0.868  53.961  1.00  0.00     0.146 HD
BRANCH  13  15
HETATM   15  C7  UNL     1      25.019   2.485  53.361  1.00  0.00     0.139 C 
BRANCH  15  16
HETATM   16  C8  UNL     1      24.428   3.005  52.102  1.00  0.00     0.011 C 
HETATM   17  C9  UNL     1      24.975   3.321  50.948  1.00  0.00     0.042 C 
HETATM   18 CL1  UNL     1      26.660   3.229  50.495  1.00  0.00    -0.086 Cl
BRANCH  17  19
HETATM   19  C10 UNL     1      24.111   3.827  49.850  1.00  0.00     0.210 C 
HETATM   20  C11 UNL     1      24.941   4.854  49.099  1.00  0.00     0.051 C 
HETATM   21  F1  UNL     1      23.706   2.804  49.012  1.00  0.00    -0.244 F 
ENDBRANCH  17  19
ENDBRANCH  15  16
ENDBRANCH  13  15
ENDBRANCH  11  13
ENDBRANCH   7  11
BRANCH  10  22
HETATM   22  O2  UNL     1      19.923   0.797  50.937  1.00  0.00    -0.353 OA
HETATM   23  C15 UNL     1      20.645   1.234  49.806  1.00  0.00     0.210 C 
ENDBRANCH  10  22
BRANCH   1  24
HETATM   24  O1  UNL     1      18.402  -0.443  52.806  1.00  0.00    -0.353 OA
HETATM   25  C1  UNL     1      17.706  -1.588  53.268  1.00  0.00     0.210 C 
ENDBRANCH   1  24
TORSDOF 7
ENDMDL
