MODEL 1
REMARK VINA RESULT:      -9.1      0.000      0.000
REMARK  3 active torsions:
REMARK  status: ('A' for Active; 'I' for Inactive)
REMARK    1  A    between atoms: C1_2  and  N2_3 
REMARK    2  A    between atoms: N2_3  and  C2_4 
REMARK    3  A    between atoms: C3_5  and  C4_6 
ROOT
HETATM    1  C2  UNL     1      25.763   1.292  52.407  1.00  0.00     0.036 C 
HETATM    2  C3  UNL     1      24.511   1.689  52.241  1.00  0.00    -0.036 C 
HETATM    3  C13 UNL     1      23.547   0.527  52.418  1.00  0.00     0.054 A 
HETATM    4  C14 UNL     1      22.128   0.864  52.261  1.00  0.00     0.041 A 
HETATM    5  C15 UNL     1      21.349   0.287  53.404  1.00  0.00    -0.026 A 
HETATM    6  C16 UNL     1      21.635  -0.448  54.449  1.00  0.00    -0.003 A 
HETATM    7  C17 UNL     1      23.047  -0.781  54.527  1.00  0.00     0.007 A 
HETATM    8  C18 UNL     1      23.865  -0.312  53.573  1.00  0.00    -0.050 A 
HETATM    9  C19 UNL     1      25.257  -0.732  53.713  1.00  0.00     0.010 C 
HETATM   10  C20 UNL     1      26.178   0.069  53.138  1.00  0.00     0.030 C 
ENDROOT
BRANCH   2  11
HETATM   11  C4  UNL     1      24.285   3.057  51.753  1.00  0.00     0.053 C 
HETATM   12  C5  UNL     1      23.382   3.890  52.542  1.00  0.00     0.000 C 
HETATM   13  C6  UNL     1      23.330   5.222  52.562  1.00  0.00     0.080 C 
HETATM   14  N3  UNL     1      24.153   6.148  51.808  1.00  0.00    -0.395 N 
HETATM   15  C7  UNL     1      24.815   5.899  50.514  1.00  0.00     0.153 C 
HETATM   16  H7  UNL     1      24.319   7.113  52.192  1.00  0.00     0.159 HD
HETATM   17  C8  UNL     1      24.122   4.700  49.929  1.00  0.00    -0.054 A 
HETATM   18  C9  UNL     1      23.161   4.707  48.995  1.00  0.00     0.005 A 
HETATM   19  C12 UNL     1      24.401   3.294  50.301  1.00  0.00     0.050 A 
HETATM   20  C10 UNL     1      22.769   3.332  48.715  1.00  0.00    -0.003 A 
HETATM   21  C11 UNL     1      23.475   2.490  49.464  1.00  0.00    -0.017 A 
ENDBRANCH   2  11
BRANCH   1  22
HETATM   22  N2  UNL     1      26.999   1.965  52.177  1.00  0.00    -0.351 N 
HETATM   23  H3  UNL     1      27.323   2.381  51.265  1.00  0.00     0.166 HD
BRANCH  22  24
HETATM   24  C1  UNL     1      27.978   2.161  53.225  1.00  0.00     0.197 C 
HETATM   25  N1  UNL     1      28.991   2.928  53.028  1.00  0.00    -0.295 NA
HETATM   26  H1  UNL     1      29.226   3.455  52.185  1.00  0.00     0.187 HD
ENDBRANCH  22  24
ENDBRANCH   1  22
TORSDOF 3
ENDMDL
MODEL 2
REMARK VINA RESULT:      -8.3      2.093      4.877
REMARK  3 active torsions:
REMARK  status: ('A' for Active; 'I' for Inactive)
REMARK    1  A    between atoms: C1_2  and  N2_3 
REMARK    2  A    between atoms: N2_3  and  C2_4 
REMARK    3  A    between atoms: C3_5  and  C4_6 
ROOT
HETATM    1  C2  UNL     1      25.380   2.157  53.212  1.00  0.00     0.036 C 
HETATM    2  C3  UNL     1      25.044   0.889  53.036  1.00  0.00    -0.036 C 
HETATM    3  C13 UNL     1      26.169   0.120  52.364  1.00  0.00     0.054 A 
HETATM    4  C14 UNL     1      25.898  -1.303  52.130  1.00  0.00     0.041 A 
HETATM    5  C15 UNL     1      27.066  -2.116  52.599  1.00  0.00    -0.026 A 
HETATM    6  C16 UNL     1      28.237  -1.851  53.119  1.00  0.00    -0.003 A 
HETATM    7  C17 UNL     1      28.461  -0.425  53.289  1.00  0.00     0.007 A 
HETATM    8  C18 UNL     1      27.485   0.420  52.924  1.00  0.00    -0.050 A 
HETATM    9  C19 UNL     1      27.817   1.833  53.094  1.00  0.00     0.010 C 
HETATM   10  C20 UNL     1      26.771   2.673  53.238  1.00  0.00     0.030 C 
ENDROOT
BRANCH   2  11
HETATM   11  C4  UNL     1      23.655   0.503  53.325  1.00  0.00     0.053 C 
HETATM   12  C5  UNL     1      23.447  -0.850  53.832  1.00  0.00     0.000 C 
HETATM   13  C6  UNL     1      22.402  -1.293  54.531  1.00  0.00     0.080 C 
HETATM   14  N3  UNL     1      21.235  -0.540  54.946  1.00  0.00    -0.395 N 
HETATM   15  C7  UNL     1      20.665   0.651  54.289  1.00  0.00     0.153 C 
HETATM   16  H7  UNL     1      20.709  -0.844  55.805  1.00  0.00     0.159 HD
HETATM   17  C8  UNL     1      21.237   0.659  52.898  1.00  0.00    -0.054 A 
HETATM   18  C9  UNL     1      20.632   0.232  51.781  1.00  0.00     0.005 A 
HETATM   19  C12 UNL     1      22.587   1.150  52.539  1.00  0.00     0.050 A 
HETATM   20  C10 UNL     1      21.540   0.417  50.656  1.00  0.00    -0.003 A 
HETATM   21  C11 UNL     1      22.685   0.950  51.072  1.00  0.00    -0.017 A 
ENDBRANCH   2  11
BRANCH   1  22
HETATM   22  N2  UNL     1      24.612   3.282  53.634  1.00  0.00    -0.351 N 
HETATM   23  H3  UNL     1      24.388   3.549  54.628  1.00  0.00     0.166 HD
BRANCH  22  24
HETATM   24  C1  UNL     1      24.038   4.221  52.693  1.00  0.00     0.197 C 
HETATM   25  N1  UNL     1      23.761   5.421  53.064  1.00  0.00    -0.295 NA
HETATM   26  H1  UNL     1      23.893   5.839  53.986  1.00  0.00     0.187 HD
ENDBRANCH  22  24
ENDBRANCH   1  22
TORSDOF 3
ENDMDL
MODEL 3
REMARK VINA RESULT:      -8.2      3.498      5.261
REMARK  3 active torsions:
REMARK  status: ('A' for Active; 'I' for Inactive)
REMARK    1  A    between atoms: C1_2  and  N2_3 
REMARK    2  A    between atoms: N2_3  and  C2_4 
REMARK    3  A    between atoms: C3_5  and  C4_6 
ROOT
HETATM    1  C2  UNL     1      20.967   0.157  53.205  1.00  0.00     0.036 C 
HETATM    2  C3  UNL     1      21.780   0.866  52.438  1.00  0.00    -0.036 C 
HETATM    3  C13 UNL     1      23.149   1.002  53.084  1.00  0.00     0.054 A 
HETATM    4  C14 UNL     1      24.132   1.767  52.307  1.00  0.00     0.041 A 
HETATM    5  C15 UNL     1      25.422   1.007  52.248  1.00  0.00    -0.026 A 
HETATM    6  C16 UNL     1      25.860  -0.125  52.740  1.00  0.00    -0.003 A 
HETATM    7  C17 UNL     1      24.855  -0.815  53.531  1.00  0.00     0.007 A 
HETATM    8  C18 UNL     1      23.643  -0.251  53.653  1.00  0.00    -0.050 A 
HETATM    9  C19 UNL     1      22.714  -0.997  54.498  1.00  0.00     0.010 C 
HETATM   10  C20 UNL     1      21.402  -0.788  54.262  1.00  0.00     0.030 C 
ENDROOT
BRANCH   2  11
HETATM   11  C4  UNL     1      21.206   1.526  51.256  1.00  0.00     0.053 C 
HETATM   12  C5  UNL     1      21.888   1.297  49.986  1.00  0.00     0.000 C 
HETATM   13  C6  UNL     1      21.372   1.423  48.764  1.00  0.00     0.080 C 
HETATM   14  N3  UNL     1      20.022   1.816  48.413  1.00  0.00    -0.395 N 
HETATM   15  C7  UNL     1      19.105   2.656  49.207  1.00  0.00     0.153 C 
HETATM   16  H7  UNL     1      19.614   1.489  47.500  1.00  0.00     0.159 HD
HETATM   17  C8  UNL     1      19.973   3.375  50.201  1.00  0.00    -0.054 A 
HETATM   18  C9  UNL     1      20.423   4.634  50.108  1.00  0.00     0.005 A 
HETATM   19  C12 UNL     1      20.478   2.792  51.465  1.00  0.00     0.050 A 
HETATM   20  C10 UNL     1      21.231   4.932  51.284  1.00  0.00    -0.003 A 
HETATM   21  C11 UNL     1      21.279   3.875  52.089  1.00  0.00    -0.017 A 
ENDBRANCH   2  11
BRANCH   1  22
HETATM   22  N2  UNL     1      19.565  -0.089  53.109  1.00  0.00    -0.351 N 
HETATM   23  H3  UNL     1      18.844   0.555  52.690  1.00  0.00     0.166 HD
BRANCH  22  24
HETATM   24  C1  UNL     1      18.962  -1.311  53.596  1.00  0.00     0.197 C 
HETATM   25  N1  UNL     1      17.715  -1.337  53.911  1.00  0.00    -0.295 NA
HETATM   26  H1  UNL     1      17.040  -0.571  53.866  1.00  0.00     0.187 HD
ENDBRANCH  22  24
ENDBRANCH   1  22
TORSDOF 3
ENDMDL
MODEL 4
REMARK VINA RESULT:      -8.2      1.597      1.980
REMARK  3 active torsions:
REMARK  status: ('A' for Active; 'I' for Inactive)
REMARK    1  A    between atoms: C1_2  and  N2_3 
REMARK    2  A    between atoms: N2_3  and  C2_4 
REMARK    3  A    between atoms: C3_5  and  C4_6 
ROOT
HETATM    1  C2  UNL     1      25.747   2.545  51.266  1.00  0.00     0.036 C 
HETATM    2  C3  UNL     1      24.435   2.425  51.402  1.00  0.00    -0.036 C 
HETATM    3  C13 UNL     1      24.055   0.991  51.729  1.00  0.00     0.054 A 
HETATM    4  C14 UNL     1      22.618   0.753  51.909  1.00  0.00     0.041 A 
HETATM    5  C15 UNL     1      22.397  -0.035  53.165  1.00  0.00    -0.026 A 
HETATM    6  C16 UNL     1      23.169  -0.563  54.081  1.00  0.00    -0.003 A 
HETATM    7  C17 UNL     1      24.579  -0.327  53.826  1.00  0.00     0.007 A 
HETATM    8  C18 UNL     1      24.919   0.383  52.740  1.00  0.00    -0.050 A 
HETATM    9  C19 UNL     1      26.359   0.534  52.545  1.00  0.00     0.010 C 
HETATM   10  C20 UNL     1      26.750   1.603  51.822  1.00  0.00     0.030 C 
ENDROOT
BRANCH   2  11
HETATM   11  C4  UNL     1      23.602   3.583  51.048  1.00  0.00     0.053 C 
HETATM   12  C5  UNL     1      22.572   3.965  52.011  1.00  0.00     0.000 C 
HETATM   13  C6  UNL     1      21.989   5.157  52.132  1.00  0.00     0.080 C 
HETATM   14  N3  UNL     1      22.237   6.345  51.339  1.00  0.00    -0.395 N 
HETATM   15  C7  UNL     1      22.734   6.401  49.952  1.00  0.00     0.153 C 
HETATM   16  H7  UNL     1      22.055   7.290  51.763  1.00  0.00     0.159 HD
HETATM   17  C8  UNL     1      22.506   5.027  49.385  1.00  0.00    -0.054 A 
HETATM   18  C9  UNL     1      21.492   4.645  48.595  1.00  0.00     0.005 A 
HETATM   19  C12 UNL     1      23.384   3.857  49.615  1.00  0.00     0.050 A 
HETATM   20  C10 UNL     1      21.653   3.232  48.277  1.00  0.00    -0.003 A 
HETATM   21  C11 UNL     1      22.747   2.750  48.859  1.00  0.00    -0.017 A 
ENDBRANCH   2  11
BRANCH   1  22
HETATM   22  N2  UNL     1      26.546   3.631  50.802  1.00  0.00    -0.351 N 
HETATM   23  H3  UNL     1      26.976   4.389  51.394  1.00  0.00     0.166 HD
BRANCH  22  24
HETATM   24  C1  UNL     1      26.871   3.807  49.402  1.00  0.00     0.197 C 
HETATM   25  N1  UNL     1      27.759   4.667  49.047  1.00  0.00    -0.295 NA
HETATM   26  H1  UNL     1      28.307   5.288  49.646  1.00  0.00     0.187 HD
ENDBRANCH  22  24
ENDBRANCH   1  22
TORSDOF 3
ENDMDL
MODEL 5
REMARK VINA RESULT:      -8.0      1.922      3.764
REMARK  3 active torsions:
REMARK  status: ('A' for Active; 'I' for Inactive)
REMARK    1  A    between atoms: C1_2  and  N2_3 
REMARK    2  A    between atoms: N2_3  and  C2_4 
REMARK    3  A    between atoms: C3_5  and  C4_6 
ROOT
HETATM    1  C2  UNL     1      22.868   2.060  52.596  1.00  0.00     0.036 C 
HETATM    2  C3  UNL     1      24.100   2.491  52.374  1.00  0.00    -0.036 C 
HETATM    3  C13 UNL     1      25.111   1.660  53.146  1.00  0.00     0.054 A 
HETATM    4  C14 UNL     1      26.513   2.054  52.961  1.00  0.00     0.041 A 
HETATM    5  C15 UNL     1      27.338   0.836  52.674  1.00  0.00    -0.026 A 
HETATM    6  C16 UNL     1      27.103  -0.449  52.587  1.00  0.00    -0.003 A 
HETATM    7  C17 UNL     1      25.707  -0.778  52.819  1.00  0.00     0.007 A 
HETATM    8  C18 UNL     1      24.851   0.224  53.072  1.00  0.00    -0.050 A 
HETATM    9  C19 UNL     1      23.480  -0.208  53.331  1.00  0.00     0.010 C 
HETATM   10  C20 UNL     1      22.517   0.706  53.089  1.00  0.00     0.030 C 
ENDROOT
BRANCH   2  11
HETATM   11  C4  UNL     1      24.262   3.742  51.618  1.00  0.00     0.053 C 
HETATM   12  C5  UNL     1      23.576   4.917  52.148  1.00  0.00     0.000 C 
HETATM   13  C6  UNL     1      23.874   6.194  51.912  1.00  0.00     0.080 C 
HETATM   14  N3  UNL     1      24.942   6.711  51.078  1.00  0.00    -0.395 N 
HETATM   15  C7  UNL     1      25.569   6.045  49.921  1.00  0.00     0.153 C 
HETATM   16  H7  UNL     1      25.338   7.663  51.287  1.00  0.00     0.159 HD
HETATM   17  C8  UNL     1      24.612   4.961  49.510  1.00  0.00    -0.054 A 
HETATM   18  C9  UNL     1      23.727   5.014  48.505  1.00  0.00     0.005 A 
HETATM   19  C12 UNL     1      24.496   3.638  50.165  1.00  0.00     0.050 A 
HETATM   20  C10 UNL     1      23.000   3.752  48.454  1.00  0.00    -0.003 A 
HETATM   21  C11 UNL     1      23.428   2.934  49.411  1.00  0.00    -0.017 A 
ENDBRANCH   2  11
BRANCH   1  22
HETATM   22  N2  UNL     1      21.603   2.613  52.240  1.00  0.00    -0.351 N 
HETATM   23  H3  UNL     1      21.438   3.500  51.696  1.00  0.00     0.166 HD
BRANCH  22  24
HETATM   24  C1  UNL     1      20.354   1.977  52.603  1.00  0.00     0.197 C 
HETATM   25  N1  UNL     1      19.233   2.523  52.286  1.00  0.00    -0.295 NA
HETATM   26  H1  UNL     1      19.082   3.400  51.784  1.00  0.00     0.187 HD
ENDBRANCH  22  24
ENDBRANCH   1  22
TORSDOF 3
ENDMDL
MODEL 6
REMARK VINA RESULT:      -7.8      2.557      4.166
REMARK  3 active torsions:
REMARK  status: ('A' for Active; 'I' for Inactive)
REMARK    1  A    between atoms: C1_2  and  N2_3 
REMARK    2  A    between atoms: N2_3  and  C2_4 
REMARK    3  A    between atoms: C3_5  and  C4_6 
ROOT
HETATM    1  C2  UNL     1      22.199   0.965  53.114  1.00  0.00     0.036 C 
HETATM    2  C3  UNL     1      23.148   1.601  52.445  1.00  0.00    -0.036 C 
HETATM    3  C13 UNL     1      24.518   1.290  53.025  1.00  0.00     0.054 A 
HETATM    4  C14 UNL     1      25.644   1.942  52.347  1.00  0.00     0.041 A 
HETATM    5  C15 UNL     1      26.716   0.930  52.075  1.00  0.00    -0.026 A 
HETATM    6  C16 UNL     1      26.878  -0.344  52.325  1.00  0.00    -0.003 A 
HETATM    7  C17 UNL     1      25.748  -0.923  53.032  1.00  0.00     0.007 A 
HETATM    8  C18 UNL     1      24.707  -0.128  53.325  1.00  0.00    -0.050 A 
HETATM    9  C19 UNL     1      23.638  -0.788  54.070  1.00  0.00     0.010 C 
HETATM   10  C20 UNL     1      22.410  -0.240  53.953  1.00  0.00     0.030 C 
ENDROOT
BRANCH   2  11
HETATM   11  C4  UNL     1      22.732   2.590  51.440  1.00  0.00     0.053 C 
HETATM   12  C5  UNL     1      21.814   3.632  51.891  1.00  0.00     0.000 C 
HETATM   13  C6  UNL     1      21.619   4.826  51.333  1.00  0.00     0.080 C 
HETATM   14  N3  UNL     1      22.267   5.365  50.153  1.00  0.00    -0.395 N 
HETATM   15  C7  UNL     1      22.838   4.603  49.026  1.00  0.00     0.153 C 
HETATM   16  H7  UNL     1      22.358   6.407  50.051  1.00  0.00     0.159 HD
HETATM   17  C8  UNL     1      22.234   3.230  49.118  1.00  0.00    -0.054 A 
HETATM   18  C9  UNL     1      21.201   2.761  48.404  1.00  0.00     0.005 A 
HETATM   19  C12 UNL     1      22.696   2.159  50.030  1.00  0.00     0.050 A 
HETATM   20  C10 UNL     1      20.939   1.385  48.807  1.00  0.00    -0.003 A 
HETATM   21  C11 UNL     1      21.795   1.011  49.753  1.00  0.00    -0.017 A 
ENDBRANCH   2  11
BRANCH   1  22
HETATM   22  N2  UNL     1      20.778   1.072  53.056  1.00  0.00    -0.351 N 
HETATM   23  H3  UNL     1      20.218   1.965  53.048  1.00  0.00     0.166 HD
BRANCH  22  24
HETATM   24  C1  UNL     1      19.918  -0.091  52.991  1.00  0.00     0.197 C 
HETATM   25  N1  UNL     1      18.932  -0.121  52.166  1.00  0.00    -0.295 NA
HETATM   26  H1  UNL     1      18.644   0.602  51.504  1.00  0.00     0.187 HD
ENDBRANCH  22  24
ENDBRANCH   1  22
TORSDOF 3
ENDMDL
MODEL 7
REMARK VINA RESULT:      -7.8      1.530      2.455
REMARK  3 active torsions:
REMARK  status: ('A' for Active; 'I' for Inactive)
REMARK    1  A    between atoms: C1_2  and  N2_3 
REMARK    2  A    between atoms: N2_3  and  C2_4 
REMARK    3  A    between atoms: C3_5  and  C4_6 
ROOT
HETATM    1  C2  UNL     1      24.583   1.151  52.032  1.00  0.00     0.036 C 
HETATM    2  C3  UNL     1      23.280   1.269  51.826  1.00  0.00    -0.036 C 
HETATM    3  C13 UNL     1      22.539   0.045  52.338  1.00  0.00     0.054 A 
HETATM    4  C14 UNL     1      21.082   0.080  52.163  1.00  0.00     0.041 A 
HETATM    5  C15 UNL     1      20.417  -0.306  53.450  1.00  0.00    -0.026 A 
HETATM    6  C16 UNL     1      20.827  -0.683  54.634  1.00  0.00    -0.003 A 
HETATM    7  C17 UNL     1      22.276  -0.736  54.732  1.00  0.00     0.007 A 
HETATM    8  C18 UNL     1      22.999  -0.397  53.654  1.00  0.00    -0.050 A 
HETATM    9  C19 UNL     1      24.443  -0.520  53.834  1.00  0.00     0.010 C 
HETATM   10  C20 UNL     1      25.208   0.250  53.032  1.00  0.00     0.030 C 
ENDROOT
BRANCH   2  11
HETATM   11  C4  UNL     1      22.816   2.403  51.014  1.00  0.00     0.053 C 
HETATM   12  C5  UNL     1      23.405   2.538  49.685  1.00  0.00     0.000 C 
HETATM   13  C6  UNL     1      22.891   3.189  48.642  1.00  0.00     0.080 C 
HETATM   14  N3  UNL     1      21.635   3.912  48.585  1.00  0.00    -0.395 N 
HETATM   15  C7  UNL     1      20.924   4.550  49.709  1.00  0.00     0.153 C 
HETATM   16  H7  UNL     1      21.146   4.016  47.660  1.00  0.00     0.159 HD
HETATM   17  C8  UNL     1      21.944   4.694  50.804  1.00  0.00    -0.054 A 
HETATM   18  C9  UNL     1      22.631   5.801  51.118  1.00  0.00     0.005 A 
HETATM   19  C12 UNL     1      22.358   3.611  51.726  1.00  0.00     0.050 A 
HETATM   20  C10 UNL     1      23.512   5.504  52.240  1.00  0.00    -0.003 A 
HETATM   21  C11 UNL     1      23.373   4.235  52.612  1.00  0.00    -0.017 A 
ENDBRANCH   2  11
BRANCH   1  22
HETATM   22  N2  UNL     1      25.679   1.943  51.582  1.00  0.00    -0.351 N 
HETATM   23  H3  UNL     1      25.632   2.748  50.903  1.00  0.00     0.166 HD
BRANCH  22  24
HETATM   24  C1  UNL     1      27.034   1.718  52.040  1.00  0.00     0.197 C 
HETATM   25  N1  UNL     1      27.805   2.715  52.295  1.00  0.00    -0.295 NA
HETATM   26  H1  UNL     1      27.591   3.711  52.216  1.00  0.00     0.187 HD
ENDBRANCH  22  24
ENDBRANCH   1  22
TORSDOF 3
ENDMDL
MODEL 8
REMARK VINA RESULT:      -7.6      8.620     12.033
REMARK  3 active torsions:
REMARK  status: ('A' for Active; 'I' for Inactive)
REMARK    1  A    between atoms: C1_2  and  N2_3 
REMARK    2  A    between atoms: N2_3  and  C2_4 
REMARK    3  A    between atoms: C3_5  and  C4_6 
ROOT
HETATM    1  C2  UNL     1      30.883   6.806  47.546  1.00  0.00     0.036 C 
HETATM    2  C3  UNL     1      32.134   7.043  47.183  1.00  0.00    -0.036 C 
HETATM    3  C13 UNL     1      32.242   8.371  46.452  1.00  0.00     0.054 A 
HETATM    4  C14 UNL     1      33.595   8.731  46.012  1.00  0.00     0.041 A 
HETATM    5  C15 UNL     1      33.885  10.148  46.406  1.00  0.00    -0.026 A 
HETATM    6  C16 UNL     1      33.219  11.105  47.001  1.00  0.00    -0.003 A 
HETATM    7  C17 UNL     1      31.875  10.699  47.375  1.00  0.00     0.007 A 
HETATM    8  C18 UNL     1      31.488   9.445  47.096  1.00  0.00    -0.050 A 
HETATM    9  C19 UNL     1      30.110   9.142  47.473  1.00  0.00     0.010 C 
HETATM   10  C20 UNL     1      29.830   7.840  47.694  1.00  0.00     0.030 C 
ENDROOT
BRANCH   2  11
HETATM   11  C4  UNL     1      33.115   5.963  47.364  1.00  0.00     0.053 C 
HETATM   12  C5  UNL     1      34.334   6.306  48.093  1.00  0.00     0.000 C 
HETATM   13  C6  UNL     1      35.152   5.467  48.727  1.00  0.00     0.080 C 
HETATM   14  N3  UNL     1      35.024   4.027  48.840  1.00  0.00    -0.395 N 
HETATM   15  C7  UNL     1      34.343   3.117  47.899  1.00  0.00     0.153 C 
HETATM   16  H7  UNL     1      35.452   3.539  49.668  1.00  0.00     0.159 HD
HETATM   17  C8  UNL     1      34.208   3.890  46.616  1.00  0.00    -0.054 A 
HETATM   18  C9  UNL     1      34.994   3.791  45.535  1.00  0.00     0.005 A 
HETATM   19  C12 UNL     1      33.161   4.902  46.341  1.00  0.00     0.050 A 
HETATM   20  C10 UNL     1      34.512   4.717  44.518  1.00  0.00    -0.003 A 
HETATM   21  C11 UNL     1      33.446   5.376  44.964  1.00  0.00    -0.017 A 
ENDBRANCH   2  11
BRANCH   1  22
HETATM   22  N2  UNL     1      30.269   5.640  48.091  1.00  0.00    -0.351 N 
HETATM   23  H3  UNL     1      30.766   4.799  48.487  1.00  0.00     0.166 HD
BRANCH  22  24
HETATM   24  C1  UNL     1      28.832   5.489  48.168  1.00  0.00     0.197 C 
HETATM   25  N1  UNL     1      28.291   4.962  49.209  1.00  0.00    -0.295 NA
HETATM   26  H1  UNL     1      28.755   4.609  50.047  1.00  0.00     0.187 HD
ENDBRANCH  22  24
ENDBRANCH   1  22
TORSDOF 3
ENDMDL
MODEL 9
REMARK VINA RESULT:      -7.4      2.617      4.780
REMARK  3 active torsions:
REMARK  status: ('A' for Active; 'I' for Inactive)
REMARK    1  A    between atoms: C1_2  and  N2_3 
REMARK    2  A    between atoms: N2_3  and  C2_4 
REMARK    3  A    between atoms: C3_5  and  C4_6 
ROOT
HETATM    1  C2  UNL     1      22.435   2.652  48.583  1.00  0.00     0.036 C 
HETATM    2  C3  UNL     1      23.052   2.907  49.726  1.00  0.00    -0.036 C 
HETATM    3  C13 UNL     1      22.225   2.421  50.905  1.00  0.00     0.054 A 
HETATM    4  C14 UNL     1      22.827   2.650  52.224  1.00  0.00     0.041 A 
HETATM    5  C15 UNL     1      22.753   1.389  53.031  1.00  0.00    -0.026 A 
HETATM    6  C16 UNL     1      22.264   0.190  52.842  1.00  0.00    -0.003 A 
HETATM    7  C17 UNL     1      21.647   0.038  51.535  1.00  0.00     0.007 A 
HETATM    8  C18 UNL     1      21.658   1.089  50.701  1.00  0.00    -0.050 A 
HETATM    9  C19 UNL     1      20.981   0.855  49.428  1.00  0.00     0.010 C 
HETATM   10  C20 UNL     1      21.377   1.629  48.396  1.00  0.00     0.030 C 
ENDROOT
BRANCH   2  11
HETATM   11  C4  UNL     1      24.265   3.736  49.680  1.00  0.00     0.053 C 
HETATM   12  C5  UNL     1      25.434   3.221  50.387  1.00  0.00     0.000 C 
HETATM   13  C6  UNL     1      26.709   3.543  50.171  1.00  0.00     0.080 C 
HETATM   14  N3  UNL     1      27.229   4.475  49.190  1.00  0.00    -0.395 N 
HETATM   15  C7  UNL     1      26.530   5.637  48.609  1.00  0.00     0.153 C 
HETATM   16  H7  UNL     1      28.208   4.345  48.829  1.00  0.00     0.159 HD
HETATM   17  C8  UNL     1      25.381   5.923  49.535  1.00  0.00    -0.054 A 
HETATM   18  C9  UNL     1      25.336   6.865  50.488  1.00  0.00     0.005 A 
HETATM   19  C12 UNL     1      24.092   5.194  49.539  1.00  0.00     0.050 A 
HETATM   20  C10 UNL     1      24.040   6.799  51.151  1.00  0.00    -0.003 A 
HETATM   21  C11 UNL     1      23.298   5.834  50.618  1.00  0.00    -0.017 A 
ENDBRANCH   2  11
BRANCH   1  22
HETATM   22  N2  UNL     1      22.726   3.062  47.248  1.00  0.00    -0.351 N 
HETATM   23  H3  UNL     1      23.668   3.035  46.777  1.00  0.00     0.166 HD
BRANCH  22  24
HETATM   24  C1  UNL     1      21.706   3.575  46.359  1.00  0.00     0.197 C 
HETATM   25  N1  UNL     1      21.949   3.705  45.102  1.00  0.00    -0.295 NA
HETATM   26  H1  UNL     1      22.813   3.486  44.604  1.00  0.00     0.187 HD
ENDBRANCH  22  24
ENDBRANCH   1  22
TORSDOF 3
ENDMDL
