MODEL 1
REMARK VINA RESULT:      -9.0      0.000      0.000
REMARK  3 active torsions:
REMARK  status: ('A' for Active; 'I' for Inactive)
REMARK       I    between atoms: C1_2  and  N1_3 
REMARK       I    between atoms: C1_2  and  N2_10 
REMARK    1  A    between atoms: N1_3  and  C2_4 
REMARK    2  A    between atoms: N2_10  and  C8_11 
REMARK    3  A    between atoms: C11_14  and  C12_15 
ROOT
HETATM    1  C8  UNL     1      22.163   0.052  53.786  1.00  0.00     0.036 A 
HETATM    2  C9  UNL     1      22.882   0.632  52.762  1.00  0.00     0.030 A 
HETATM    3  C10 UNL     1      24.226   0.397  52.628  1.00  0.00     0.016 A 
HETATM    4  C11 UNL     1      24.910  -0.411  53.491  1.00  0.00    -0.006 A 
HETATM    5  C19 UNL     1      24.170  -0.988  54.518  1.00  0.00     0.016 A 
HETATM    6  C20 UNL     1      22.806  -0.768  54.677  1.00  0.00     0.030 A 
ENDROOT
BRANCH   1   7
HETATM    7  N2  UNL     1      20.762   0.231  54.014  1.00  0.00    -0.309 N 
HETATM    8  C1  UNL     1      19.880  -0.794  53.608  1.00  0.00     0.325 C 
HETATM    9  O1  UNL     1      20.447  -1.778  53.074  1.00  0.00    -0.247 OA
HETATM   10  N1  UNL     1      18.486  -0.793  53.747  1.00  0.00    -0.309 N 
HETATM   11  H1  UNL     1      18.168   0.088  54.206  1.00  0.00     0.170 HD
HETATM   12  H7  UNL     1      20.333   1.090  54.473  1.00  0.00     0.170 HD
BRANCH  10  13
HETATM   13  C2  UNL     1      17.542  -1.768  53.371  1.00  0.00     0.036 A 
HETATM   14  C3  UNL     1      16.444  -1.596  52.566  1.00  0.00     0.029 A 
HETATM   15  C4  UNL     1      15.549  -2.575  52.224  1.00  0.00     0.002 A 
HETATM   16  C5  UNL     1      15.738  -3.849  52.713  1.00  0.00     0.000 A 
HETATM   17  C6  UNL     1      16.829  -4.068  53.527  1.00  0.00     0.002 A 
HETATM   18  C7  UNL     1      17.702  -3.051  53.843  1.00  0.00     0.029 A 
ENDBRANCH  10  13
ENDBRANCH   1   7
BRANCH   4  19
HETATM   19  C12 UNL     1      26.330  -0.737  53.454  1.00  0.00     0.079 A 
HETATM   20  N3  UNL     1      26.624  -2.005  53.051  1.00  0.00    -0.241 NA
HETATM   21  C13 UNL     1      27.895  -2.404  52.982  1.00  0.00     0.236 A 
HETATM   22  N4  UNL     1      28.930  -1.612  53.295  1.00  0.00    -0.217 NA
HETATM   23  C14 UNL     1      28.687  -0.338  53.702  1.00  0.00     0.174 A 
HETATM   24  C15 UNL     1      27.382   0.090  53.779  1.00  0.00     0.025 A 
HETATM   25  O2  UNL     1      29.696   0.526  54.037  1.00  0.00    -0.334 OA
HETATM   26  C16 UNL     1      27.035   1.445  54.209  1.00  0.00     0.047 C 
HETATM   27  C17 UNL     1      28.133   2.384  53.752  1.00  0.00     0.031 C 
HETATM   28  C18 UNL     1      29.510   1.910  54.079  1.00  0.00     0.178 C 
ENDBRANCH   4  19
TORSDOF 3
ENDMDL
MODEL 2
REMARK VINA RESULT:      -8.8      1.630      1.999
REMARK  3 active torsions:
REMARK  status: ('A' for Active; 'I' for Inactive)
REMARK       I    between atoms: C1_2  and  N1_3 
REMARK       I    between atoms: C1_2  and  N2_10 
REMARK    1  A    between atoms: N1_3  and  C2_4 
REMARK    2  A    between atoms: N2_10  and  C8_11 
REMARK    3  A    between atoms: C11_14  and  C12_15 
ROOT
HETATM    1  C8  UNL     1      22.117   1.165  52.694  1.00  0.00     0.036 A 
HETATM    2  C9  UNL     1      23.090   1.631  51.834  1.00  0.00     0.030 A 
HETATM    3  C10 UNL     1      24.378   1.170  51.917  1.00  0.00     0.016 A 
HETATM    4  C11 UNL     1      24.758   0.241  52.843  1.00  0.00    -0.006 A 
HETATM    5  C19 UNL     1      23.764  -0.218  53.703  1.00  0.00     0.016 A 
HETATM    6  C20 UNL     1      22.450   0.231  53.641  1.00  0.00     0.030 A 
ENDROOT
BRANCH   1   7
HETATM    7  N2  UNL     1      20.747   1.579  52.691  1.00  0.00    -0.309 N 
HETATM    8  C1  UNL     1      19.807   0.779  52.007  1.00  0.00     0.325 C 
HETATM    9  O1  UNL     1      20.298  -0.238  51.460  1.00  0.00    -0.247 OA
HETATM   10  N1  UNL     1      18.432   1.025  51.897  1.00  0.00    -0.309 N 
HETATM   11  H1  UNL     1      18.179   1.902  52.401  1.00  0.00     0.170 HD
HETATM   12  H7  UNL     1      20.383   2.454  53.174  1.00  0.00     0.170 HD
BRANCH  10  13
HETATM   13  C2  UNL     1      17.434   0.283  51.237  1.00  0.00     0.036 A 
HETATM   14  C3  UNL     1      17.165   0.261  49.890  1.00  0.00     0.029 A 
HETATM   15  C4  UNL     1      16.181  -0.478  49.289  1.00  0.00     0.002 A 
HETATM   16  C5  UNL     1      15.377  -1.276  50.071  1.00  0.00     0.000 A 
HETATM   17  C6  UNL     1      15.610  -1.285  51.431  1.00  0.00     0.002 A 
HETATM   18  C7  UNL     1      16.612  -0.524  51.990  1.00  0.00     0.029 A 
ENDBRANCH  10  13
ENDBRANCH   1   7
BRANCH   4  19
HETATM   19  C12 UNL     1      26.087  -0.323  53.031  1.00  0.00     0.079 A 
HETATM   20  N3  UNL     1      26.225  -1.625  52.650  1.00  0.00    -0.241 NA
HETATM   21  C13 UNL     1      27.403  -2.237  52.779  1.00  0.00     0.236 A 
HETATM   22  N4  UNL     1      28.491  -1.633  53.276  1.00  0.00    -0.217 NA
HETATM   23  C14 UNL     1      28.405  -0.334  53.670  1.00  0.00     0.174 A 
HETATM   24  C15 UNL     1      27.197   0.311  53.543  1.00  0.00     0.025 A 
HETATM   25  O2  UNL     1      29.477   0.345  54.185  1.00  0.00    -0.334 OA
HETATM   26  C16 UNL     1      27.019   1.708  53.944  1.00  0.00     0.047 C 
HETATM   27  C17 UNL     1      28.321   2.442  53.694  1.00  0.00     0.031 C 
HETATM   28  C18 UNL     1      29.525   1.740  54.230  1.00  0.00     0.178 C 
ENDBRANCH   4  19
TORSDOF 3
ENDMDL
MODEL 3
REMARK VINA RESULT:      -8.6      5.963      9.339
REMARK  3 active torsions:
REMARK  status: ('A' for Active; 'I' for Inactive)
REMARK       I    between atoms: C1_2  and  N1_3 
REMARK       I    between atoms: C1_2  and  N2_10 
REMARK    1  A    between atoms: N1_3  and  C2_4 
REMARK    2  A    between atoms: N2_10  and  C8_11 
REMARK    3  A    between atoms: C11_14  and  C12_15 
ROOT
HETATM    1  C8  UNL     1      23.961   4.456  50.582  1.00  0.00     0.036 A 
HETATM    2  C9  UNL     1      23.686   4.578  51.928  1.00  0.00     0.030 A 
HETATM    3  C10 UNL     1      24.010   3.575  52.804  1.00  0.00     0.016 A 
HETATM    4  C11 UNL     1      24.613   2.420  52.393  1.00  0.00    -0.006 A 
HETATM    5  C19 UNL     1      24.883   2.314  51.032  1.00  0.00     0.016 A 
HETATM    6  C20 UNL     1      24.566   3.315  50.122  1.00  0.00     0.030 A 
ENDROOT
BRANCH   1   7
HETATM    7  N2  UNL     1      23.665   5.442  49.588  1.00  0.00    -0.309 N 
HETATM    8  C1  UNL     1      24.626   6.441  49.327  1.00  0.00     0.325 C 
HETATM    9  O1  UNL     1      25.667   6.348  50.022  1.00  0.00    -0.247 OA
HETATM   10  N1  UNL     1      24.510   7.481  48.395  1.00  0.00    -0.309 N 
HETATM   11  H1  UNL     1      23.595   7.424  47.899  1.00  0.00     0.170 HD
HETATM   12  H7  UNL     1      22.762   5.474  49.024  1.00  0.00     0.170 HD
BRANCH  10  13
HETATM   13  C2  UNL     1      25.417   8.511  48.077  1.00  0.00     0.036 A 
HETATM   14  C3  UNL     1      25.486   9.762  48.639  1.00  0.00     0.029 A 
HETATM   15  C4  UNL     1      26.387  10.737  48.298  1.00  0.00     0.002 A 
HETATM   16  C5  UNL     1      27.313  10.471  47.314  1.00  0.00     0.000 A 
HETATM   17  C6  UNL     1      27.281   9.226  46.722  1.00  0.00     0.002 A 
HETATM   18  C7  UNL     1      26.355   8.278  47.098  1.00  0.00     0.029 A 
ENDBRANCH  10  13
ENDBRANCH   1   7
BRANCH   4  19
HETATM   19  C12 UNL     1      25.005   1.288  53.221  1.00  0.00     0.079 A 
HETATM   20  N3  UNL     1      24.028   0.361  53.436  1.00  0.00    -0.241 NA
HETATM   21  C13 UNL     1      24.284  -0.716  54.180  1.00  0.00     0.236 A 
HETATM   22  N4  UNL     1      25.475  -0.949  54.747  1.00  0.00    -0.217 NA
HETATM   23  C14 UNL     1      26.482  -0.053  54.562  1.00  0.00     0.174 A 
HETATM   24  C15 UNL     1      26.235   1.063  53.797  1.00  0.00     0.025 A 
HETATM   25  O2  UNL     1      27.725  -0.228  55.111  1.00  0.00    -0.334 OA
HETATM   26  C16 UNL     1      27.263   2.075  53.549  1.00  0.00     0.047 C 
HETATM   27  C17 UNL     1      28.609   1.381  53.497  1.00  0.00     0.031 C 
HETATM   28  C18 UNL     1      28.852   0.445  54.634  1.00  0.00     0.178 C 
ENDBRANCH   4  19
TORSDOF 3
ENDMDL
MODEL 4
REMARK VINA RESULT:      -8.5      6.266      7.820
REMARK  3 active torsions:
REMARK  status: ('A' for Active; 'I' for Inactive)
REMARK       I    between atoms: C1_2  and  N1_3 
REMARK       I    between atoms: C1_2  and  N2_10 
REMARK    1  A    between atoms: N1_3  and  C2_4 
REMARK    2  A    between atoms: N2_10  and  C8_11 
REMARK    3  A    between atoms: C11_14  and  C12_15 
ROOT
HETATM    1  C8  UNL     1      24.562   3.594  49.340  1.00  0.00     0.036 A 
HETATM    2  C9  UNL     1      25.919   3.391  49.479  1.00  0.00     0.030 A 
HETATM    3  C10 UNL     1      26.804   4.423  49.302  1.00  0.00     0.016 A 
HETATM    4  C11 UNL     1      26.391   5.686  48.984  1.00  0.00    -0.006 A 
HETATM    5  C19 UNL     1      25.019   5.872  48.847  1.00  0.00     0.016 A 
HETATM    6  C20 UNL     1      24.099   4.844  49.022  1.00  0.00     0.030 A 
ENDROOT
BRANCH   1   7
HETATM    7  N2  UNL     1      23.557   2.588  49.503  1.00  0.00    -0.309 N 
HETATM    8  C1  UNL     1      23.305   2.096  50.802  1.00  0.00     0.325 C 
HETATM    9  O1  UNL     1      24.017   2.615  51.695  1.00  0.00    -0.247 OA
HETATM   10  N1  UNL     1      22.366   1.117  51.151  1.00  0.00    -0.309 N 
HETATM   11  H1  UNL     1      21.855   0.785  50.304  1.00  0.00     0.170 HD
HETATM   12  H7  UNL     1      22.980   2.181  48.707  1.00  0.00     0.170 HD
BRANCH  10  13
HETATM   13  C2  UNL     1      22.056   0.575  52.413  1.00  0.00     0.036 A 
HETATM   14  C3  UNL     1      20.989   0.894  53.217  1.00  0.00     0.029 A 
HETATM   15  C4  UNL     1      20.724   0.340  54.442  1.00  0.00     0.002 A 
HETATM   16  C5  UNL     1      21.581  -0.618  54.938  1.00  0.00     0.000 A 
HETATM   17  C6  UNL     1      22.667  -0.969  54.164  1.00  0.00     0.002 A 
HETATM   18  C7  UNL     1      22.891  -0.384  52.938  1.00  0.00     0.029 A 
ENDBRANCH  10  13
ENDBRANCH   1   7
BRANCH   4  19
HETATM   19  C12 UNL     1      27.228   6.858  48.771  1.00  0.00     0.079 A 
HETATM   20  N3  UNL     1      26.645   8.051  49.079  1.00  0.00    -0.241 NA
HETATM   21  C13 UNL     1      27.327   9.187  48.921  1.00  0.00     0.236 A 
HETATM   22  N4  UNL     1      28.586   9.228  48.464  1.00  0.00    -0.217 NA
HETATM   23  C14 UNL     1      29.211   8.064  48.144  1.00  0.00     0.174 A 
HETATM   24  C15 UNL     1      28.522   6.884  48.301  1.00  0.00     0.025 A 
HETATM   25  O2  UNL     1      30.497   8.031  47.673  1.00  0.00    -0.334 OA
HETATM   26  C16 UNL     1      29.122   5.588  47.979  1.00  0.00     0.047 C 
HETATM   27  C17 UNL     1      30.606   5.665  48.276  1.00  0.00     0.031 C 
HETATM   28  C18 UNL     1      31.275   6.872  47.706  1.00  0.00     0.178 C 
ENDBRANCH   4  19
TORSDOF 3
ENDMDL
MODEL 5
REMARK VINA RESULT:      -8.5      1.987      2.673
REMARK  3 active torsions:
REMARK  status: ('A' for Active; 'I' for Inactive)
REMARK       I    between atoms: C1_2  and  N1_3 
REMARK       I    between atoms: C1_2  and  N2_10 
REMARK    1  A    between atoms: N1_3  and  C2_4 
REMARK    2  A    between atoms: N2_10  and  C8_11 
REMARK    3  A    between atoms: C11_14  and  C12_15 
ROOT
HETATM    1  C8  UNL     1      21.159  -0.395  53.777  1.00  0.00     0.036 A 
HETATM    2  C9  UNL     1      22.215  -1.236  53.494  1.00  0.00     0.030 A 
HETATM    3  C10 UNL     1      23.409  -0.735  53.044  1.00  0.00     0.016 A 
HETATM    4  C11 UNL     1      23.610   0.603  52.857  1.00  0.00    -0.006 A 
HETATM    5  C19 UNL     1      22.535   1.437  53.148  1.00  0.00     0.016 A 
HETATM    6  C20 UNL     1      21.313   0.956  53.606  1.00  0.00     0.030 A 
ENDROOT
BRANCH   1   7
HETATM    7  N2  UNL     1      19.876  -0.814  54.251  1.00  0.00    -0.309 N 
HETATM    8  C1  UNL     1      18.830  -0.962  53.314  1.00  0.00     0.325 C 
HETATM    9  O1  UNL     1      19.159  -0.698  52.132  1.00  0.00    -0.247 OA
HETATM   10  N1  UNL     1      17.516  -1.360  53.593  1.00  0.00    -0.309 N 
HETATM   11  H1  UNL     1      17.401  -1.543  54.613  1.00  0.00     0.170 HD
HETATM   12  H7  UNL     1      19.651  -1.026  55.269  1.00  0.00     0.170 HD
BRANCH  10  13
HETATM   13  C2  UNL     1      16.423  -1.531  52.722  1.00  0.00     0.036 A 
HETATM   14  C3  UNL     1      15.836  -0.578  51.927  1.00  0.00     0.029 A 
HETATM   15  C4  UNL     1      14.770  -0.787  51.091  1.00  0.00     0.002 A 
HETATM   16  C5  UNL     1      14.218  -2.047  51.021  1.00  0.00     0.000 A 
HETATM   17  C6  UNL     1      14.776  -3.036  51.804  1.00  0.00     0.002 A 
HETATM   18  C7  UNL     1      15.848  -2.777  52.628  1.00  0.00     0.029 A 
ENDBRANCH  10  13
ENDBRANCH   1   7
BRANCH   4  19
HETATM   19  C12 UNL     1      24.825   1.253  52.386  1.00  0.00     0.079 A 
HETATM   20  N3  UNL     1      24.644   2.177  51.399  1.00  0.00    -0.241 NA
HETATM   21  C13 UNL     1      25.692   2.831  50.899  1.00  0.00     0.236 A 
HETATM   22  N4  UNL     1      26.950   2.630  51.317  1.00  0.00    -0.217 NA
HETATM   23  C14 UNL     1      27.182   1.720  52.300  1.00  0.00     0.174 A 
HETATM   24  C15 UNL     1      26.111   1.036  52.827  1.00  0.00     0.025 A 
HETATM   25  O2  UNL     1      28.440   1.464  52.776  1.00  0.00    -0.334 OA
HETATM   26  C16 UNL     1      26.275   0.039  53.887  1.00  0.00     0.047 C 
HETATM   27  C17 UNL     1      27.431   0.468  54.767  1.00  0.00     0.031 C 
HETATM   28  C18 UNL     1      28.661   0.847  54.009  1.00  0.00     0.178 C 
ENDBRANCH   4  19
TORSDOF 3
ENDMDL
MODEL 6
REMARK VINA RESULT:      -8.4      3.884      4.710
REMARK  3 active torsions:
REMARK  status: ('A' for Active; 'I' for Inactive)
REMARK       I    between atoms: C1_2  and  N1_3 
REMARK       I    between atoms: C1_2  and  N2_10 
REMARK    1  A    between atoms: N1_3  and  C2_4 
REMARK    2  A    between atoms: N2_10  and  C8_11 
REMARK    3  A    between atoms: C11_14  and  C12_15 
ROOT
HETATM    1  C8  UNL     1      23.940   3.599  51.706  1.00  0.00     0.036 A 
HETATM    2  C9  UNL     1      24.936   3.255  50.815  1.00  0.00     0.030 A 
HETATM    3  C10 UNL     1      26.046   2.571  51.235  1.00  0.00     0.016 A 
HETATM    4  C11 UNL     1      26.220   2.201  52.539  1.00  0.00    -0.006 A 
HETATM    5  C19 UNL     1      25.206   2.556  53.423  1.00  0.00     0.016 A 
HETATM    6  C20 UNL     1      24.069   3.249  53.025  1.00  0.00     0.030 A 
ENDROOT
BRANCH   1   7
HETATM    7  N2  UNL     1      22.744   4.310  51.370  1.00  0.00    -0.309 N 
HETATM    8  C1  UNL     1      21.561   3.569  51.155  1.00  0.00     0.325 C 
HETATM    9  O1  UNL     1      21.700   2.329  51.287  1.00  0.00    -0.247 OA
HETATM   10  N1  UNL     1      20.305   4.091  50.821  1.00  0.00    -0.309 N 
HETATM   11  H1  UNL     1      20.350   5.130  50.749  1.00  0.00     0.170 HD
HETATM   12  H7  UNL     1      22.681   5.367  51.272  1.00  0.00     0.170 HD
BRANCH  10  13
HETATM   13  C2  UNL     1      19.085   3.425  50.591  1.00  0.00     0.036 A 
HETATM   14  C3  UNL     1      18.189   2.982  51.531  1.00  0.00     0.029 A 
HETATM   15  C4  UNL     1      17.010   2.336  51.263  1.00  0.00     0.002 A 
HETATM   16  C5  UNL     1      16.667   2.097  49.951  1.00  0.00     0.000 A 
HETATM   17  C6  UNL     1      17.539   2.525  48.972  1.00  0.00     0.002 A 
HETATM   18  C7  UNL     1      18.713   3.170  49.291  1.00  0.00     0.029 A 
ENDBRANCH  10  13
ENDBRANCH   1   7
BRANCH   4  19
HETATM   19  C12 UNL     1      27.349   1.477  53.105  1.00  0.00     0.079 A 
HETATM   20  N3  UNL     1      28.182   2.221  53.888  1.00  0.00    -0.241 NA
HETATM   21  C13 UNL     1      29.246   1.653  54.457  1.00  0.00     0.236 A 
HETATM   22  N4  UNL     1      29.557   0.359  54.300  1.00  0.00    -0.217 NA
HETATM   23  C14 UNL     1      28.758  -0.425  53.529  1.00  0.00     0.174 A 
HETATM   24  C15 UNL     1      27.656   0.146  52.935  1.00  0.00     0.025 A 
HETATM   25  O2  UNL     1      29.015  -1.755  53.325  1.00  0.00    -0.334 OA
HETATM   26  C16 UNL     1      26.744  -0.627  52.089  1.00  0.00     0.047 C 
HETATM   27  C17 UNL     1      26.692  -2.046  52.620  1.00  0.00     0.031 C 
HETATM   28  C18 UNL     1      28.035  -2.645  52.879  1.00  0.00     0.178 C 
ENDBRANCH   4  19
TORSDOF 3
ENDMDL
MODEL 7
REMARK VINA RESULT:      -8.3      2.988      4.036
REMARK  3 active torsions:
REMARK  status: ('A' for Active; 'I' for Inactive)
REMARK       I    between atoms: C1_2  and  N1_3 
REMARK       I    between atoms: C1_2  and  N2_10 
REMARK    1  A    between atoms: N1_3  and  C2_4 
REMARK    2  A    between atoms: N2_10  and  C8_11 
REMARK    3  A    between atoms: C11_14  and  C12_15 
ROOT
HETATM    1  C8  UNL     1      21.891   0.561  51.539  1.00  0.00     0.036 A 
HETATM    2  C9  UNL     1      22.258  -0.187  52.639  1.00  0.00     0.030 A 
HETATM    3  C10 UNL     1      23.522  -0.094  53.159  1.00  0.00     0.016 A 
HETATM    4  C11 UNL     1      24.469   0.732  52.622  1.00  0.00    -0.006 A 
HETATM    5  C19 UNL     1      24.082   1.477  51.513  1.00  0.00     0.016 A 
HETATM    6  C20 UNL     1      22.807   1.404  50.964  1.00  0.00     0.030 A 
ENDROOT
BRANCH   1   7
HETATM    7  N2  UNL     1      20.601   0.538  50.920  1.00  0.00    -0.309 N 
HETATM    8  C1  UNL     1      19.577   1.338  51.473  1.00  0.00     0.325 C 
HETATM    9  O1  UNL     1      19.930   1.999  52.480  1.00  0.00    -0.247 OA
HETATM   10  N1  UNL     1      18.261   1.442  51.005  1.00  0.00    -0.309 N 
HETATM   11  H1  UNL     1      18.124   0.836  50.167  1.00  0.00     0.170 HD
HETATM   12  H7  UNL     1      20.356  -0.044  50.063  1.00  0.00     0.170 HD
BRANCH  10  13
HETATM   13  C2  UNL     1      17.188   2.211  51.497  1.00  0.00     0.036 A 
HETATM   14  C3  UNL     1      17.136   3.576  51.632  1.00  0.00     0.029 A 
HETATM   15  C4  UNL     1      16.069   4.285  52.116  1.00  0.00     0.002 A 
HETATM   16  C5  UNL     1      14.939   3.602  52.510  1.00  0.00     0.000 A 
HETATM   17  C6  UNL     1      14.948   2.228  52.393  1.00  0.00     0.002 A 
HETATM   18  C7  UNL     1      16.046   1.558  51.899  1.00  0.00     0.029 A 
ENDBRANCH  10  13
ENDBRANCH   1   7
BRANCH   4  19
HETATM   19  C12 UNL     1      25.839   0.917  53.081  1.00  0.00     0.079 A 
HETATM   20  N3  UNL     1      26.089   2.108  53.696  1.00  0.00    -0.241 NA
HETATM   21  C13 UNL     1      27.312   2.377  54.155  1.00  0.00     0.236 A 
HETATM   22  N4  UNL     1      28.340   1.524  54.044  1.00  0.00    -0.217 NA
HETATM   23  C14 UNL     1      28.141   0.323  53.440  1.00  0.00     0.174 A 
HETATM   24  C15 UNL     1      26.885   0.030  52.961  1.00  0.00     0.025 A 
HETATM   25  O2  UNL     1      29.145  -0.596  53.293  1.00  0.00    -0.334 OA
HETATM   26  C16 UNL     1      26.586  -1.240  52.296  1.00  0.00     0.047 C 
HETATM   27  C17 UNL     1      27.449  -2.317  52.923  1.00  0.00     0.031 C 
HETATM   28  C18 UNL     1      28.891  -1.946  53.040  1.00  0.00     0.178 C 
ENDBRANCH   4  19
TORSDOF 3
ENDMDL
MODEL 8
REMARK VINA RESULT:      -8.3      5.518      7.554
REMARK  3 active torsions:
REMARK  status: ('A' for Active; 'I' for Inactive)
REMARK       I    between atoms: C1_2  and  N1_3 
REMARK       I    between atoms: C1_2  and  N2_10 
REMARK    1  A    between atoms: N1_3  and  C2_4 
REMARK    2  A    between atoms: N2_10  and  C8_11 
REMARK    3  A    between atoms: C11_14  and  C12_15 
ROOT
HETATM    1  C8  UNL     1      23.781   3.333  51.184  1.00  0.00     0.036 A 
HETATM    2  C9  UNL     1      24.910   3.142  50.414  1.00  0.00     0.030 A 
HETATM    3  C10 UNL     1      26.033   2.567  50.949  1.00  0.00     0.016 A 
HETATM    4  C11 UNL     1      26.090   2.161  52.252  1.00  0.00    -0.006 A 
HETATM    5  C19 UNL     1      24.942   2.361  53.013  1.00  0.00     0.016 A 
HETATM    6  C20 UNL     1      23.789   2.941  52.497  1.00  0.00     0.030 A 
ENDROOT
BRANCH   1   7
HETATM    7  N2  UNL     1      22.560   3.921  50.724  1.00  0.00    -0.309 N 
HETATM    8  C1  UNL     1      22.559   5.294  50.394  1.00  0.00     0.325 C 
HETATM    9  O1  UNL     1      23.668   5.861  50.549  1.00  0.00    -0.247 OA
HETATM   10  N1  UNL     1      21.464   6.036  49.931  1.00  0.00    -0.309 N 
HETATM   11  H1  UNL     1      20.620   5.428  49.855  1.00  0.00     0.170 HD
HETATM   12  H7  UNL     1      21.644   3.392  50.610  1.00  0.00     0.170 HD
BRANCH  10  13
HETATM   13  C2  UNL     1      21.381   7.398  49.583  1.00  0.00     0.036 A 
HETATM   14  C3  UNL     1      22.246   8.107  48.786  1.00  0.00     0.029 A 
HETATM   15  C4  UNL     1      22.127   9.436  48.473  1.00  0.00     0.002 A 
HETATM   16  C5  UNL     1      21.063  10.147  48.983  1.00  0.00     0.000 A 
HETATM   17  C6  UNL     1      20.170   9.474  49.789  1.00  0.00     0.002 A 
HETATM   18  C7  UNL     1      20.331   8.137  50.076  1.00  0.00     0.029 A 
ENDBRANCH  10  13
ENDBRANCH   1   7
BRANCH   4  19
HETATM   19  C12 UNL     1      27.219   1.541  52.933  1.00  0.00     0.079 A 
HETATM   20  N3  UNL     1      27.959   2.381  53.711  1.00  0.00    -0.241 NA
HETATM   21  C13 UNL     1      29.014   1.914  54.379  1.00  0.00     0.236 A 
HETATM   22  N4  UNL     1      29.404   0.632  54.330  1.00  0.00    -0.217 NA
HETATM   23  C14 UNL     1      28.698  -0.245  53.568  1.00  0.00     0.174 A 
HETATM   24  C15 UNL     1      27.606   0.222  52.872  1.00  0.00     0.025 A 
HETATM   25  O2  UNL     1      29.038  -1.568  53.471  1.00  0.00    -0.334 OA
HETATM   26  C16 UNL     1      26.793  -0.656  52.029  1.00  0.00     0.047 C 
HETATM   27  C17 UNL     1      26.784  -2.037  52.651  1.00  0.00     0.031 C 
HETATM   28  C18 UNL     1      28.138  -2.540  53.029  1.00  0.00     0.178 C 
ENDBRANCH   4  19
TORSDOF 3
ENDMDL
MODEL 9
REMARK VINA RESULT:      -8.3      7.752     10.293
REMARK  3 active torsions:
REMARK  status: ('A' for Active; 'I' for Inactive)
REMARK       I    between atoms: C1_2  and  N1_3 
REMARK       I    between atoms: C1_2  and  N2_10 
REMARK    1  A    between atoms: N1_3  and  C2_4 
REMARK    2  A    between atoms: N2_10  and  C8_11 
REMARK    3  A    between atoms: C11_14  and  C12_15 
ROOT
HETATM    1  C8  UNL     1      26.405   5.020  49.161  1.00  0.00     0.036 A 
HETATM    2  C9  UNL     1      27.641   4.793  48.593  1.00  0.00     0.030 A 
HETATM    3  C10 UNL     1      28.470   5.838  48.278  1.00  0.00     0.016 A 
HETATM    4  C11 UNL     1      28.118   7.137  48.508  1.00  0.00    -0.006 A 
HETATM    5  C19 UNL     1      26.868   7.348  49.081  1.00  0.00     0.016 A 
HETATM    6  C20 UNL     1      26.007   6.308  49.412  1.00  0.00     0.030 A 
ENDROOT
BRANCH   1   7
HETATM    7  N2  UNL     1      25.467   4.003  49.528  1.00  0.00    -0.309 N 
HETATM    8  C1  UNL     1      25.853   3.051  50.496  1.00  0.00     0.325 C 
HETATM    9  O1  UNL     1      27.017   3.211  50.939  1.00  0.00    -0.247 OA
HETATM   10  N1  UNL     1      25.073   1.991  50.975  1.00  0.00    -0.309 N 
HETATM   11  H1  UNL     1      24.137   1.991  50.514  1.00  0.00     0.170 HD
HETATM   12  H7  UNL     1      24.488   3.913  49.119  1.00  0.00     0.170 HD
BRANCH  10  13
HETATM   13  C2  UNL     1      25.382   1.005  51.932  1.00  0.00     0.036 A 
HETATM   14  C3  UNL     1      26.495   0.201  51.969  1.00  0.00     0.029 A 
HETATM   15  C4  UNL     1      26.757  -0.748  52.922  1.00  0.00     0.002 A 
HETATM   16  C5  UNL     1      25.849  -0.937  53.940  1.00  0.00     0.000 A 
HETATM   17  C6  UNL     1      24.716  -0.151  53.942  1.00  0.00     0.002 A 
HETATM   18  C7  UNL     1      24.496   0.791  52.962  1.00  0.00     0.029 A 
ENDBRANCH  10  13
ENDBRANCH   1   7
BRANCH   4  19
HETATM   19  C12 UNL     1      28.907   8.327  48.218  1.00  0.00     0.079 A 
HETATM   20  N3  UNL     1      29.725   8.741  49.227  1.00  0.00    -0.241 NA
HETATM   21  C13 UNL     1      30.491   9.821  49.064  1.00  0.00     0.236 A 
HETATM   22  N4  UNL     1      30.505  10.545  47.937  1.00  0.00    -0.217 NA
HETATM   23  C14 UNL     1      29.706  10.173  46.901  1.00  0.00     0.174 A 
HETATM   24  C15 UNL     1      28.910   9.061  47.053  1.00  0.00     0.025 A 
HETATM   25  O2  UNL     1      29.670  10.866  45.721  1.00  0.00    -0.334 OA
HETATM   26  C16 UNL     1      28.022   8.593  45.988  1.00  0.00     0.047 C 
HETATM   27  C17 UNL     1      28.673   8.905  44.656  1.00  0.00     0.031 C 
HETATM   28  C18 UNL     1      29.176  10.306  44.540  1.00  0.00     0.178 C 
ENDBRANCH   4  19
TORSDOF 3
ENDMDL
