MODEL 1
REMARK VINA RESULT:      -8.5      0.000      0.000
REMARK  6 active torsions:
REMARK  status: ('A' for Active; 'I' for Inactive)
REMARK    1  A    between atoms: N3_9  and  C7_10 
REMARK    2  A    between atoms: C14_19  and  O1_20 
REMARK    3  A    between atoms: O1_20  and  C15_21 
REMARK    4  A    between atoms: C15_21  and  C16_22 
REMARK    5  A    between atoms: C16_22  and  C17_23 
REMARK    6  A    between atoms: C17_23  and  N4_24 
ROOT
HETATM    1  C1  UNL     1      21.012  -0.699  53.910  1.00  0.00     0.047 C 
HETATM    2  C2  UNL     1      21.128   0.137  52.713  1.00  0.00    -0.039 C 
HETATM    3  C3  UNL     1      19.868  -0.044  52.241  1.00  0.00     0.071 C 
HETATM    4  C4  UNL     1      18.810   0.215  51.244  1.00  0.00     0.101 C 
HETATM    5  N1  UNL     1      18.495   0.889  50.114  1.00  0.00    -0.258 NA
HETATM    6  C5  UNL     1      19.687   1.661  49.762  1.00  0.00     0.227 C 
HETATM    7  N2  UNL     1      20.868   1.259  49.423  1.00  0.00    -0.263 NA
HETATM    8  C6  UNL     1      21.944   2.185  49.110  1.00  0.00     0.279 C 
HETATM    9  N3  UNL     1      22.924   2.179  50.214  1.00  0.00    -0.336 N 
HETATM   10  C13 UNL     1      22.989   1.492  51.488  1.00  0.00     0.130 C 
HETATM   11  C14 UNL     1      22.459   0.764  52.449  1.00  0.00     0.087 C 
ENDROOT
BRANCH  11  12
HETATM   12  O1  UNL     1      23.374   0.505  53.515  1.00  0.00    -0.349 OA
BRANCH  12  13
HETATM   13  C15 UNL     1      24.410  -0.438  53.261  1.00  0.00     0.177 C 
BRANCH  13  14
HETATM   14  C16 UNL     1      25.216  -0.692  54.508  1.00  0.00     0.057 C 
BRANCH  14  15
HETATM   15  C17 UNL     1      26.313   0.345  54.642  1.00  0.00     0.274 C 
BRANCH  15  16
HETATM   16  N4  UNL     1      26.984   0.659  53.399  1.00  0.00     0.092 N 
HETATM   17  C18 UNL     1      28.237  -0.141  53.357  1.00  0.00     0.298 C 
HETATM   18  C19 UNL     1      29.040   0.129  54.620  1.00  0.00     0.198 C 
HETATM   19  O2  UNL     1      29.061   1.475  54.930  1.00  0.00    -0.388 OA
HETATM   20  C20 UNL     1      28.822   2.224  53.804  1.00  0.00     0.198 C 
HETATM   21  C21 UNL     1      27.362   2.077  53.384  1.00  0.00     0.298 C 
ENDBRANCH  15  16
ENDBRANCH  14  15
ENDBRANCH  13  14
ENDBRANCH  12  13
ENDBRANCH  11  12
BRANCH   9  22
HETATM   22  C7  UNL     1      23.965   3.089  49.855  1.00  0.00     0.037 A 
HETATM   23  C8  UNL     1      25.272   2.785  50.179  1.00  0.00     0.033 A 
HETATM   24  C9  UNL     1      26.434   3.533  49.960  1.00  0.00     0.046 A 
HETATM   25  C10 UNL     1      26.157   4.750  49.317  1.00  0.00     0.138 A 
HETATM   26  F1  UNL     1      27.206   5.556  49.060  1.00  0.00    -0.204 F 
HETATM   27  C11 UNL     1      24.889   5.106  48.972  1.00  0.00     0.074 A 
HETATM   28 CL1  UNL     1      24.654   6.662  48.171  1.00  0.00    -0.081 Cl
HETATM   29  C12 UNL     1      23.790   4.300  49.228  1.00  0.00     0.056 A 
ENDBRANCH   9  22
TORSDOF 6
ENDMDL
MODEL 2
REMARK VINA RESULT:      -8.3      3.499      6.071
REMARK  6 active torsions:
REMARK  status: ('A' for Active; 'I' for Inactive)
REMARK    1  A    between atoms: N3_9  and  C7_10 
REMARK    2  A    between atoms: C14_19  and  O1_20 
REMARK    3  A    between atoms: O1_20  and  C15_21 
REMARK    4  A    between atoms: C15_21  and  C16_22 
REMARK    5  A    between atoms: C16_22  and  C17_23 
REMARK    6  A    between atoms: C17_23  and  N4_24 
ROOT
HETATM    1  C1  UNL     1      20.532   2.557  51.768  1.00  0.00     0.047 C 
HETATM    2  C2  UNL     1      21.373   1.538  52.400  1.00  0.00    -0.039 C 
HETATM    3  C3  UNL     1      20.378   0.718  52.826  1.00  0.00     0.071 C 
HETATM    4  C4  UNL     1      19.913  -0.510  53.501  1.00  0.00     0.101 C 
HETATM    5  N1  UNL     1      20.303  -1.642  54.131  1.00  0.00    -0.258 NA
HETATM    6  C5  UNL     1      21.766  -1.622  54.123  1.00  0.00     0.227 C 
HETATM    7  N2  UNL     1      22.589  -0.798  54.684  1.00  0.00    -0.263 NA
HETATM    8  C6  UNL     1      24.031  -0.935  54.561  1.00  0.00     0.279 C 
HETATM    9  N3  UNL     1      24.541   0.120  53.662  1.00  0.00    -0.336 N 
HETATM   10  C13 UNL     1      23.907   1.177  52.901  1.00  0.00     0.130 C 
HETATM   11  C14 UNL     1      22.849   1.778  52.396  1.00  0.00     0.087 C 
ENDROOT
BRANCH  11  12
HETATM   12  O1  UNL     1      23.181   2.950  51.652  1.00  0.00    -0.349 OA
BRANCH  12  13
HETATM   13  C15 UNL     1      24.276   2.851  50.748  1.00  0.00     0.177 C 
BRANCH  13  14
HETATM   14  C16 UNL     1      23.864   3.276  49.363  1.00  0.00     0.057 C 
BRANCH  14  15
HETATM   15  C17 UNL     1      24.374   4.673  49.070  1.00  0.00     0.274 C 
BRANCH  15  16
HETATM   16  N4  UNL     1      25.537   5.050  49.844  1.00  0.00     0.092 N 
HETATM   17  C18 UNL     1      25.360   6.472  50.246  1.00  0.00     0.298 C 
HETATM   18  C19 UNL     1      25.101   7.309  49.003  1.00  0.00     0.198 C 
HETATM   19  O2  UNL     1      25.948   6.958  47.969  1.00  0.00    -0.388 OA
HETATM   20  C20 UNL     1      27.079   6.359  48.466  1.00  0.00     0.198 C 
HETATM   21  C21 UNL     1      26.739   4.973  49.005  1.00  0.00     0.298 C 
ENDBRANCH  15  16
ENDBRANCH  14  15
ENDBRANCH  13  14
ENDBRANCH  12  13
ENDBRANCH  11  12
BRANCH   9  22
HETATM   22  C7  UNL     1      25.958  -0.046  53.584  1.00  0.00     0.037 A 
HETATM   23  C8  UNL     1      26.476  -1.212  53.057  1.00  0.00     0.033 A 
HETATM   24  C9  UNL     1      27.813  -1.600  52.915  1.00  0.00     0.046 A 
HETATM   25  C10 UNL     1      28.695  -0.619  53.395  1.00  0.00     0.138 A 
HETATM   26  F1  UNL     1      30.012  -0.890  53.312  1.00  0.00    -0.204 F 
HETATM   27  C11 UNL     1      28.245   0.551  53.924  1.00  0.00     0.074 A 
HETATM   28 CL1  UNL     1      29.442   1.713  54.503  1.00  0.00    -0.081 Cl
HETATM   29  C12 UNL     1      26.895   0.857  54.028  1.00  0.00     0.056 A 
ENDBRANCH   9  22
TORSDOF 6
ENDMDL
MODEL 3
REMARK VINA RESULT:      -7.9      3.751      7.721
REMARK  6 active torsions:
REMARK  status: ('A' for Active; 'I' for Inactive)
REMARK    1  A    between atoms: N3_9  and  C7_10 
REMARK    2  A    between atoms: C14_19  and  O1_20 
REMARK    3  A    between atoms: O1_20  and  C15_21 
REMARK    4  A    between atoms: C15_21  and  C16_22 
REMARK    5  A    between atoms: C16_22  and  C17_23 
REMARK    6  A    between atoms: C17_23  and  N4_24 
ROOT
HETATM    1  C1  UNL     1      26.314   3.572  50.115  1.00  0.00     0.047 C 
HETATM    2  C2  UNL     1      25.768   2.655  51.119  1.00  0.00    -0.039 C 
HETATM    3  C3  UNL     1      26.892   2.512  51.866  1.00  0.00     0.071 C 
HETATM    4  C4  UNL     1      27.612   1.946  53.024  1.00  0.00     0.101 C 
HETATM    5  N1  UNL     1      27.501   1.164  54.123  1.00  0.00    -0.258 NA
HETATM    6  C5  UNL     1      26.107   0.721  54.160  1.00  0.00     0.227 C 
HETATM    7  N2  UNL     1      25.448  -0.020  53.331  1.00  0.00    -0.263 NA
HETATM    8  C6  UNL     1      24.049  -0.356  53.531  1.00  0.00     0.279 C 
HETATM    9  N3  UNL     1      23.227   0.398  52.564  1.00  0.00    -0.336 N 
HETATM   10  C13 UNL     1      23.534   1.377  51.541  1.00  0.00     0.130 C 
HETATM   11  C14 UNL     1      24.350   2.216  50.937  1.00  0.00     0.087 C 
ENDROOT
BRANCH  11  12
HETATM   12  O1  UNL     1      23.738   2.886  49.834  1.00  0.00    -0.349 OA
BRANCH  12  13
HETATM   13  C15 UNL     1      22.834   2.125  49.040  1.00  0.00     0.177 C 
BRANCH  13  14
HETATM   14  C16 UNL     1      21.812   3.021  48.391  1.00  0.00     0.057 C 
BRANCH  14  15
HETATM   15  C17 UNL     1      21.929   4.431  48.938  1.00  0.00     0.274 C 
BRANCH  15  16
HETATM   16  N4  UNL     1      20.673   4.999  49.376  1.00  0.00     0.092 N 
HETATM   17  C18 UNL     1      20.983   5.992  50.441  1.00  0.00     0.298 C 
HETATM   18  C19 UNL     1      21.807   5.315  51.524  1.00  0.00     0.198 C 
HETATM   19  O2  UNL     1      21.309   4.064  51.835  1.00  0.00    -0.388 OA
HETATM   20  C20 UNL     1      19.980   3.986  51.494  1.00  0.00     0.198 C 
HETATM   21  C21 UNL     1      19.836   3.953  49.975  1.00  0.00     0.298 C 
ENDBRANCH  15  16
ENDBRANCH  14  15
ENDBRANCH  13  14
ENDBRANCH  12  13
ENDBRANCH  11  12
BRANCH   9  22
HETATM   22  C7  UNL     1      21.866   0.026  52.790  1.00  0.00     0.037 A 
HETATM   23  C8  UNL     1      21.564  -0.855  53.809  1.00  0.00     0.033 A 
HETATM   24  C9  UNL     1      20.323  -1.379  54.187  1.00  0.00     0.046 A 
HETATM   25  C10 UNL     1      19.285  -0.898  53.372  1.00  0.00     0.138 A 
HETATM   26  F1  UNL     1      18.042  -1.343  53.642  1.00  0.00    -0.204 F 
HETATM   27  C11 UNL     1      19.519  -0.028  52.352  1.00  0.00     0.074 A 
HETATM   28 CL1  UNL     1      18.140   0.507  51.387  1.00  0.00    -0.081 Cl
HETATM   29  C12 UNL     1      20.788   0.443  52.046  1.00  0.00     0.056 A 
ENDBRANCH   9  22
TORSDOF 6
ENDMDL
MODEL 4
REMARK VINA RESULT:      -7.9      3.563      6.611
REMARK  6 active torsions:
REMARK  status: ('A' for Active; 'I' for Inactive)
REMARK    1  A    between atoms: N3_9  and  C7_10 
REMARK    2  A    between atoms: C14_19  and  O1_20 
REMARK    3  A    between atoms: O1_20  and  C15_21 
REMARK    4  A    between atoms: C15_21  and  C16_22 
REMARK    5  A    between atoms: C16_22  and  C17_23 
REMARK    6  A    between atoms: C17_23  and  N4_24 
ROOT
HETATM    1  C1  UNL     1      20.868   1.472  51.012  1.00  0.00     0.047 C 
HETATM    2  C2  UNL     1      21.751   0.760  51.939  1.00  0.00    -0.039 C 
HETATM    3  C3  UNL     1      20.798   0.037  52.581  1.00  0.00     0.071 C 
HETATM    4  C4  UNL     1      20.393  -0.959  53.593  1.00  0.00     0.101 C 
HETATM    5  N1  UNL     1      20.835  -1.813  54.545  1.00  0.00    -0.258 NA
HETATM    6  C5  UNL     1      22.292  -1.684  54.554  1.00  0.00     0.227 C 
HETATM    7  N2  UNL     1      23.035  -0.668  54.848  1.00  0.00    -0.263 NA
HETATM    8  C6  UNL     1      24.487  -0.725  54.795  1.00  0.00     0.279 C 
HETATM    9  N3  UNL     1      24.958   0.041  53.624  1.00  0.00    -0.336 N 
HETATM   10  C13 UNL     1      24.283   0.764  52.565  1.00  0.00     0.130 C 
HETATM   11  C14 UNL     1      23.206   1.100  51.885  1.00  0.00     0.087 C 
ENDROOT
BRANCH  11  12
HETATM   12  O1  UNL     1      23.486   2.012  50.822  1.00  0.00    -0.349 OA
BRANCH  12  13
HETATM   13  C15 UNL     1      24.533   2.953  51.039  1.00  0.00     0.177 C 
BRANCH  13  14
HETATM   14  C16 UNL     1      23.977   4.347  51.166  1.00  0.00     0.057 C 
BRANCH  14  15
HETATM   15  C17 UNL     1      23.360   4.786  49.852  1.00  0.00     0.274 C 
BRANCH  15  16
HETATM   16  N4  UNL     1      21.941   5.057  49.929  1.00  0.00     0.092 N 
HETATM   17  C18 UNL     1      21.585   5.893  48.750  1.00  0.00     0.298 C 
HETATM   18  C19 UNL     1      22.486   7.117  48.721  1.00  0.00     0.198 C 
HETATM   19  O2  UNL     1      22.625   7.676  49.977  1.00  0.00    -0.388 OA
HETATM   20  C20 UNL     1      21.561   7.324  50.772  1.00  0.00     0.198 C 
HETATM   21  C21 UNL     1      21.651   5.844  51.133  1.00  0.00     0.298 C 
ENDBRANCH  15  16
ENDBRANCH  14  15
ENDBRANCH  13  14
ENDBRANCH  12  13
ENDBRANCH  11  12
BRANCH   9  22
HETATM   22  C7  UNL     1      26.385  -0.032  53.622  1.00  0.00     0.037 A 
HETATM   23  C8  UNL     1      27.005  -1.173  53.154  1.00  0.00     0.033 A 
HETATM   24  C9  UNL     1      28.370  -1.475  53.090  1.00  0.00     0.046 A 
HETATM   25  C10 UNL     1      29.159  -0.426  53.588  1.00  0.00     0.138 A 
HETATM   26  F1  UNL     1      30.494  -0.611  53.579  1.00  0.00    -0.204 F 
HETATM   27  C11 UNL     1      28.607   0.724  54.062  1.00  0.00     0.074 A 
HETATM   28 CL1  UNL     1      29.694   1.976  54.670  1.00  0.00    -0.081 Cl
HETATM   29  C12 UNL     1      27.237   0.941  54.089  1.00  0.00     0.056 A 
ENDBRANCH   9  22
TORSDOF 6
ENDMDL
MODEL 5
REMARK VINA RESULT:      -7.8      1.634      2.073
REMARK  6 active torsions:
REMARK  status: ('A' for Active; 'I' for Inactive)
REMARK    1  A    between atoms: N3_9  and  C7_10 
REMARK    2  A    between atoms: C14_19  and  O1_20 
REMARK    3  A    between atoms: O1_20  and  C15_21 
REMARK    4  A    between atoms: C15_21  and  C16_22 
REMARK    5  A    between atoms: C16_22  and  C17_23 
REMARK    6  A    between atoms: C17_23  and  N4_24 
ROOT
HETATM    1  C1  UNL     1      21.126  -1.570  54.345  1.00  0.00     0.047 C 
HETATM    2  C2  UNL     1      20.758  -0.469  53.452  1.00  0.00    -0.039 C 
HETATM    3  C3  UNL     1      19.478  -0.851  53.210  1.00  0.00     0.071 C 
HETATM    4  C4  UNL     1      18.165  -0.641  52.567  1.00  0.00     0.101 C 
HETATM    5  N1  UNL     1      17.439   0.181  51.774  1.00  0.00    -0.258 NA
HETATM    6  C5  UNL     1      18.324   1.296  51.437  1.00  0.00     0.227 C 
HETATM    7  N2  UNL     1      19.428   1.308  50.764  1.00  0.00    -0.263 NA
HETATM    8  C6  UNL     1      20.183   2.528  50.531  1.00  0.00     0.279 C 
HETATM    9  N3  UNL     1      21.402   2.509  51.365  1.00  0.00    -0.336 N 
HETATM   10  C13 UNL     1      21.932   1.575  52.338  1.00  0.00     0.130 C 
HETATM   11  C14 UNL     1      21.826   0.525  53.125  1.00  0.00     0.087 C 
ENDROOT
BRANCH  11  12
HETATM   12  O1  UNL     1      23.021   0.262  53.861  1.00  0.00    -0.349 OA
BRANCH  12  13
HETATM   13  C15 UNL     1      24.148  -0.192  53.119  1.00  0.00     0.177 C 
BRANCH  13  14
HETATM   14  C16 UNL     1      25.257  -0.620  54.044  1.00  0.00     0.057 C 
BRANCH  14  15
HETATM   15  C17 UNL     1      26.229   0.524  54.260  1.00  0.00     0.274 C 
BRANCH  15  16
HETATM   16  N4  UNL     1      27.099   0.779  53.133  1.00  0.00     0.092 N 
HETATM   17  C18 UNL     1      28.302  -0.080  53.298  1.00  0.00     0.298 C 
HETATM   18  C19 UNL     1      28.911   0.178  54.667  1.00  0.00     0.198 C 
HETATM   19  O2  UNL     1      28.951   1.528  54.959  1.00  0.00    -0.388 OA
HETATM   20  C20 UNL     1      28.928   2.264  53.799  1.00  0.00     0.198 C 
HETATM   21  C21 UNL     1      27.546   2.177  53.158  1.00  0.00     0.298 C 
ENDBRANCH  15  16
ENDBRANCH  14  15
ENDBRANCH  13  14
ENDBRANCH  12  13
ENDBRANCH  11  12
BRANCH   9  22
HETATM   22  C7  UNL     1      22.115   3.716  51.091  1.00  0.00     0.037 A 
HETATM   23  C8  UNL     1      21.503   4.932  51.319  1.00  0.00     0.033 A 
HETATM   24  C9  UNL     1      21.992   6.224  51.095  1.00  0.00     0.046 A 
HETATM   25  C10 UNL     1      23.292   6.204  50.564  1.00  0.00     0.138 A 
HETATM   26  F1  UNL     1      23.861   7.398  50.303  1.00  0.00    -0.204 F 
HETATM   27  C11 UNL     1      23.948   5.038  50.319  1.00  0.00     0.074 A 
HETATM   28 CL1  UNL     1      25.578   5.130  49.644  1.00  0.00    -0.081 Cl
HETATM   29  C12 UNL     1      23.386   3.795  50.572  1.00  0.00     0.056 A 
ENDBRANCH   9  22
TORSDOF 6
ENDMDL
MODEL 6
REMARK VINA RESULT:      -7.7      1.661      2.487
REMARK  6 active torsions:
REMARK  status: ('A' for Active; 'I' for Inactive)
REMARK    1  A    between atoms: N3_9  and  C7_10 
REMARK    2  A    between atoms: C14_19  and  O1_20 
REMARK    3  A    between atoms: O1_20  and  C15_21 
REMARK    4  A    between atoms: C15_21  and  C16_22 
REMARK    5  A    between atoms: C16_22  and  C17_23 
REMARK    6  A    between atoms: C17_23  and  N4_24 
ROOT
HETATM    1  C1  UNL     1      22.988  -0.919  54.708  1.00  0.00     0.047 C 
HETATM    2  C2  UNL     1      22.265  -0.240  53.630  1.00  0.00    -0.039 C 
HETATM    3  C3  UNL     1      21.047  -0.799  53.847  1.00  0.00     0.071 C 
HETATM    4  C4  UNL     1      19.616  -0.949  53.517  1.00  0.00     0.101 C 
HETATM    5  N1  UNL     1      18.616  -0.529  52.708  1.00  0.00    -0.258 NA
HETATM    6  C5  UNL     1      19.210   0.473  51.823  1.00  0.00     0.227 C 
HETATM    7  N2  UNL     1      20.138   0.349  50.932  1.00  0.00    -0.263 NA
HETATM    8  C6  UNL     1      20.611   1.473  50.141  1.00  0.00     0.279 C 
HETATM    9  N3  UNL     1      21.957   1.860  50.608  1.00  0.00    -0.336 N 
HETATM   10  C13 UNL     1      22.824   1.381  51.665  1.00  0.00     0.130 C 
HETATM   11  C14 UNL     1      23.059   0.669  52.748  1.00  0.00     0.087 C 
ENDROOT
BRANCH  11  12
HETATM   12  O1  UNL     1      24.405   0.793  53.210  1.00  0.00    -0.349 OA
BRANCH  12  13
HETATM   13  C15 UNL     1      24.992   2.089  53.147  1.00  0.00     0.177 C 
BRANCH  13  14
HETATM   14  C16 UNL     1      26.433   2.043  53.581  1.00  0.00     0.057 C 
BRANCH  14  15
HETATM   15  C17 UNL     1      27.135   0.863  52.937  1.00  0.00     0.274 C 
BRANCH  15  16
HETATM   16  N4  UNL     1      27.351  -0.254  53.830  1.00  0.00     0.092 N 
HETATM   17  C18 UNL     1      28.189   0.234  54.958  1.00  0.00     0.298 C 
HETATM   18  C19 UNL     1      29.448   0.876  54.397  1.00  0.00     0.198 C 
HETATM   19  O2  UNL     1      29.993   0.120  53.377  1.00  0.00    -0.388 OA
HETATM   20  C20 UNL     1      29.588  -1.188  53.489  1.00  0.00     0.198 C 
HETATM   21  C21 UNL     1      28.107  -1.305  53.138  1.00  0.00     0.298 C 
ENDBRANCH  15  16
ENDBRANCH  14  15
ENDBRANCH  13  14
ENDBRANCH  12  13
ENDBRANCH  11  12
BRANCH   9  22
HETATM   22  C7  UNL     1      22.384   2.954  49.795  1.00  0.00     0.037 A 
HETATM   23  C8  UNL     1      21.514   3.490  48.867  1.00  0.00     0.033 A 
HETATM   24  C9  UNL     1      21.725   4.528  47.952  1.00  0.00     0.046 A 
HETATM   25  C10 UNL     1      23.025   5.050  48.048  1.00  0.00     0.138 A 
HETATM   26  F1  UNL     1      23.341   6.055  47.207  1.00  0.00    -0.204 F 
HETATM   27  C11 UNL     1      23.928   4.565  48.943  1.00  0.00     0.074 A 
HETATM   28 CL1  UNL     1      25.537   5.292  48.973  1.00  0.00    -0.081 Cl
HETATM   29  C12 UNL     1      23.633   3.529  49.817  1.00  0.00     0.056 A 
ENDBRANCH   9  22
TORSDOF 6
ENDMDL
MODEL 7
REMARK VINA RESULT:      -7.6      3.914      6.403
REMARK  6 active torsions:
REMARK  status: ('A' for Active; 'I' for Inactive)
REMARK    1  A    between atoms: N3_9  and  C7_10 
REMARK    2  A    between atoms: C14_19  and  O1_20 
REMARK    3  A    between atoms: O1_20  and  C15_21 
REMARK    4  A    between atoms: C15_21  and  C16_22 
REMARK    5  A    between atoms: C16_22  and  C17_23 
REMARK    6  A    between atoms: C17_23  and  N4_24 
ROOT
HETATM    1  C1  UNL     1      21.610   4.519  51.097  1.00  0.00     0.047 C 
HETATM    2  C2  UNL     1      22.112   3.253  51.636  1.00  0.00    -0.039 C 
HETATM    3  C3  UNL     1      20.918   2.617  51.751  1.00  0.00     0.071 C 
HETATM    4  C4  UNL     1      20.113   1.431  52.106  1.00  0.00     0.101 C 
HETATM    5  N1  UNL     1      20.159   0.157  52.557  1.00  0.00    -0.258 NA
HETATM    6  C5  UNL     1      21.576  -0.145  52.763  1.00  0.00     0.227 C 
HETATM    7  N2  UNL     1      22.426   0.379  53.583  1.00  0.00    -0.263 NA
HETATM    8  C6  UNL     1      23.813  -0.051  53.644  1.00  0.00     0.279 C 
HETATM    9  N3  UNL     1      24.670   0.992  53.046  1.00  0.00    -0.336 N 
HETATM   10  C13 UNL     1      24.398   2.269  52.417  1.00  0.00     0.130 C 
HETATM   11  C14 UNL     1      23.583   3.159  51.890  1.00  0.00     0.087 C 
ENDROOT
BRANCH  11  12
HETATM   12  O1  UNL     1      24.262   4.332  51.439  1.00  0.00    -0.349 OA
BRANCH  12  13
HETATM   13  C15 UNL     1      25.373   4.139  50.569  1.00  0.00     0.177 C 
BRANCH  13  14
HETATM   14  C16 UNL     1      25.129   4.801  49.239  1.00  0.00     0.057 C 
BRANCH  14  15
HETATM   15  C17 UNL     1      26.217   5.819  48.955  1.00  0.00     0.274 C 
BRANCH  15  16
HETATM   16  N4  UNL     1      25.742   7.182  48.869  1.00  0.00     0.092 N 
HETATM   17  C18 UNL     1      26.267   7.756  47.600  1.00  0.00     0.298 C 
HETATM   18  C19 UNL     1      27.778   7.587  47.569  1.00  0.00     0.198 C 
HETATM   19  O2  UNL     1      28.350   7.901  48.787  1.00  0.00    -0.388 OA
HETATM   20  C20 UNL     1      27.524   8.739  49.496  1.00  0.00     0.198 C 
HETATM   21  C21 UNL     1      26.294   7.972  49.975  1.00  0.00     0.298 C 
ENDBRANCH  15  16
ENDBRANCH  14  15
ENDBRANCH  13  14
ENDBRANCH  12  13
ENDBRANCH  11  12
BRANCH   9  22
HETATM   22  C7  UNL     1      26.019   0.533  53.141  1.00  0.00     0.037 A 
HETATM   23  C8  UNL     1      27.033   1.445  53.358  1.00  0.00     0.033 A 
HETATM   24  C9  UNL     1      28.412   1.229  53.451  1.00  0.00     0.046 A 
HETATM   25  C10 UNL     1      28.738  -0.127  53.294  1.00  0.00     0.138 A 
HETATM   26  F1  UNL     1      30.045  -0.451  53.360  1.00  0.00    -0.204 F 
HETATM   27  C11 UNL     1      27.785  -1.074  53.078  1.00  0.00     0.074 A 
HETATM   28 CL1  UNL     1      28.309  -2.750  52.888  1.00  0.00    -0.081 Cl
HETATM   29  C12 UNL     1      26.433  -0.770  53.000  1.00  0.00     0.056 A 
ENDBRANCH   9  22
TORSDOF 6
ENDMDL
MODEL 8
REMARK VINA RESULT:      -7.6      3.265      5.556
REMARK  6 active torsions:
REMARK  status: ('A' for Active; 'I' for Inactive)
REMARK    1  A    between atoms: N3_9  and  C7_10 
REMARK    2  A    between atoms: C14_19  and  O1_20 
REMARK    3  A    between atoms: O1_20  and  C15_21 
REMARK    4  A    between atoms: C15_21  and  C16_22 
REMARK    5  A    between atoms: C16_22  and  C17_23 
REMARK    6  A    between atoms: C17_23  and  N4_24 
ROOT
HETATM    1  C1  UNL     1      18.337   1.334  49.735  1.00  0.00     0.047 C 
HETATM    2  C2  UNL     1      19.146   0.739  50.802  1.00  0.00    -0.039 C 
HETATM    3  C3  UNL     1      18.158   0.031  51.406  1.00  0.00     0.071 C 
HETATM    4  C4  UNL     1      17.686  -0.894  52.456  1.00  0.00     0.101 C 
HETATM    5  N1  UNL     1      18.057  -1.648  53.516  1.00  0.00    -0.258 NA
HETATM    6  C5  UNL     1      19.501  -1.458  53.657  1.00  0.00     0.227 C 
HETATM    7  N2  UNL     1      20.176  -0.391  53.934  1.00  0.00    -0.263 NA
HETATM    8  C6  UNL     1      21.627  -0.392  54.028  1.00  0.00     0.279 C 
HETATM    9  N3  UNL     1      22.188   0.295  52.848  1.00  0.00    -0.336 N 
HETATM   10  C13 UNL     1      21.600   0.900  51.670  1.00  0.00     0.130 C 
HETATM   11  C14 UNL     1      20.587   1.133  50.861  1.00  0.00     0.087 C 
ENDROOT
BRANCH  11  12
HETATM   12  O1  UNL     1      20.942   1.966  49.756  1.00  0.00    -0.349 OA
BRANCH  12  13
HETATM   13  C15 UNL     1      22.222   1.750  49.172  1.00  0.00     0.177 C 
BRANCH  13  14
HETATM   14  C16 UNL     1      22.889   3.062  48.852  1.00  0.00     0.057 C 
BRANCH  14  15
HETATM   15  C17 UNL     1      22.625   4.066  49.957  1.00  0.00     0.274 C 
BRANCH  15  16
HETATM   16  N4  UNL     1      23.733   4.244  50.869  1.00  0.00     0.092 N 
HETATM   17  C18 UNL     1      23.433   5.437  51.705  1.00  0.00     0.298 C 
HETATM   18  C19 UNL     1      23.140   6.618  50.795  1.00  0.00     0.198 C 
HETATM   19  O2  UNL     1      24.038   6.688  49.747  1.00  0.00    -0.388 OA
HETATM   20  C20 UNL     1      25.201   6.036  50.077  1.00  0.00     0.198 C 
HETATM   21  C21 UNL     1      24.959   4.529  50.113  1.00  0.00     0.298 C 
ENDBRANCH  15  16
ENDBRANCH  14  15
ENDBRANCH  13  14
ENDBRANCH  12  13
ENDBRANCH  11  12
BRANCH   9  22
HETATM   22  C7  UNL     1      23.609   0.282  52.992  1.00  0.00     0.037 A 
HETATM   23  C8  UNL     1      24.190  -0.565  53.915  1.00  0.00     0.033 A 
HETATM   24  C9  UNL     1      25.540  -0.721  54.245  1.00  0.00     0.046 A 
HETATM   25  C10 UNL     1      26.362   0.135  53.495  1.00  0.00     0.138 A 
HETATM   26  F1  UNL     1      27.687   0.074  53.736  1.00  0.00    -0.204 F 
HETATM   27  C11 UNL     1      25.850   0.992  52.570  1.00  0.00     0.074 A 
HETATM   28 CL1  UNL     1      26.975   2.028  51.687  1.00  0.00    -0.081 Cl
HETATM   29  C12 UNL     1      24.491   1.082  52.304  1.00  0.00     0.056 A 
ENDBRANCH   9  22
TORSDOF 6
ENDMDL
MODEL 9
REMARK VINA RESULT:      -7.6      3.221      4.534
REMARK  6 active torsions:
REMARK  status: ('A' for Active; 'I' for Inactive)
REMARK    1  A    between atoms: N3_9  and  C7_10 
REMARK    2  A    between atoms: C14_19  and  O1_20 
REMARK    3  A    between atoms: O1_20  and  C15_21 
REMARK    4  A    between atoms: C15_21  and  C16_22 
REMARK    5  A    between atoms: C16_22  and  C17_23 
REMARK    6  A    between atoms: C17_23  and  N4_24 
ROOT
HETATM    1  C1  UNL     1      22.819   2.766  51.671  1.00  0.00     0.047 C 
HETATM    2  C2  UNL     1      23.284   3.996  51.027  1.00  0.00    -0.039 C 
HETATM    3  C3  UNL     1      22.213   4.775  51.327  1.00  0.00     0.071 C 
HETATM    4  C4  UNL     1      21.503   6.069  51.286  1.00  0.00     0.101 C 
HETATM    5  N1  UNL     1      21.570   7.357  50.877  1.00  0.00    -0.258 NA
HETATM    6  C5  UNL     1      22.871   7.502  50.222  1.00  0.00     0.227 C 
HETATM    7  N2  UNL     1      23.332   6.937  49.155  1.00  0.00    -0.263 NA
HETATM    8  C6  UNL     1      24.669   7.203  48.651  1.00  0.00     0.279 C 
HETATM    9  N3  UNL     1      25.525   6.027  48.908  1.00  0.00    -0.336 N 
HETATM   10  C13 UNL     1      25.303   4.753  49.560  1.00  0.00     0.130 C 
HETATM   11  C14 UNL     1      24.591   3.932  50.305  1.00  0.00     0.087 C 
ENDROOT
BRANCH  11  12
HETATM   12  O1  UNL     1      25.216   2.660  50.478  1.00  0.00    -0.349 OA
BRANCH  12  13
HETATM   13  C15 UNL     1      26.630   2.655  50.653  1.00  0.00     0.177 C 
BRANCH  13  14
HETATM   14  C16 UNL     1      26.987   2.423  52.097  1.00  0.00     0.057 C 
BRANCH  14  15
HETATM   15  C17 UNL     1      26.073   1.374  52.700  1.00  0.00     0.274 C 
BRANCH  15  16
HETATM   16  N4  UNL     1      26.628   0.038  52.702  1.00  0.00     0.092 N 
HETATM   17  C18 UNL     1      26.002  -0.700  53.832  1.00  0.00     0.298 C 
HETATM   18  C19 UNL     1      26.202   0.093  55.113  1.00  0.00     0.198 C 
HETATM   19  O2  UNL     1      27.488   0.589  55.209  1.00  0.00    -0.388 OA
HETATM   20  C20 UNL     1      28.342  -0.160  54.438  1.00  0.00     0.198 C 
HETATM   21  C21 UNL     1      28.072   0.101  52.959  1.00  0.00     0.298 C 
ENDBRANCH  15  16
ENDBRANCH  14  15
ENDBRANCH  13  14
ENDBRANCH  12  13
ENDBRANCH  11  12
BRANCH   9  22
HETATM   22  C7  UNL     1      26.819   6.329  48.384  1.00  0.00     0.037 A 
HETATM   23  C8  UNL     1      27.842   5.414  48.534  1.00  0.00     0.033 A 
HETATM   24  C9  UNL     1      29.180   5.510  48.136  1.00  0.00     0.046 A 
HETATM   25  C10 UNL     1      29.449   6.734  47.502  1.00  0.00     0.138 A 
HETATM   26  F1  UNL     1      30.713   6.937  47.081  1.00  0.00    -0.204 F 
HETATM   27  C11 UNL     1      28.483   7.676  47.324  1.00  0.00     0.074 A 
HETATM   28 CL1  UNL     1      28.933   9.182  46.519  1.00  0.00    -0.081 Cl
HETATM   29  C12 UNL     1      27.175   7.497  47.752  1.00  0.00     0.056 A 
ENDBRANCH   9  22
TORSDOF 6
ENDMDL
