MODEL 1
REMARK VINA RESULT:      -8.6      0.000      0.000
REMARK  2 active torsions:
REMARK  status: ('A' for Active; 'I' for Inactive)
REMARK    1  A    between atoms: C2_2  and  C3_3 
REMARK       I    between atoms: C3_3  and  N1_5 
REMARK    2  A    between atoms: N1_5  and  C4_6 
ROOT
HETATM    1  C4  UNL     1      25.299  -0.735  54.243  1.00  0.00     0.032 A 
HETATM    2  C5  UNL     1      24.473  -1.177  55.189  1.00  0.00     0.009 A 
HETATM    3  C6  UNL     1      22.992  -1.134  55.298  1.00  0.00     0.089 A 
HETATM    4  C7  UNL     1      22.457  -0.500  54.077  1.00  0.00     0.043 A 
HETATM    5  N2  UNL     1      21.152  -0.420  53.979  1.00  0.00    -0.292 NA
HETATM    6  C8  UNL     1      20.476   0.171  52.841  1.00  0.00     0.158 C 
HETATM    7  C9  UNL     1      21.343   0.085  51.587  1.00  0.00     0.044 A 
HETATM    8  C10 UNL     1      20.686   0.771  50.422  1.00  0.00     0.038 A 
HETATM    9  C11 UNL     1      21.548   1.878  49.958  1.00  0.00    -0.025 A 
HETATM   10  C12 UNL     1      22.707   2.440  50.253  1.00  0.00     0.015 A 
HETATM   11  C13 UNL     1      23.341   1.755  51.396  1.00  0.00     0.018 A 
HETATM   12 BR1  UNL     1      24.988   2.479  52.008  1.00  0.00    -0.051 Br
HETATM   13  C14 UNL     1      22.631   0.747  51.870  1.00  0.00    -0.022 A 
HETATM   14  C15 UNL     1      23.289   0.080  53.017  1.00  0.00    -0.001 A 
HETATM   15  C16 UNL     1      24.629  -0.071  53.098  1.00  0.00     0.043 A 
ENDROOT
BRANCH   1  16
HETATM   16  N1  UNL     1      26.718  -0.842  54.263  1.00  0.00    -0.327 N 
HETATM   17  C3  UNL     1      27.592   0.257  54.492  1.00  0.00     0.221 C 
HETATM   18  O1  UNL     1      27.327   1.465  54.709  1.00  0.00    -0.273 OA
HETATM   19  H6  UNL     1      27.079  -1.783  54.098  1.00  0.00     0.169 HD
BRANCH  17  20
HETATM   20  C2  UNL     1      29.041  -0.037  54.478  1.00  0.00     0.098 C 
HETATM   21  C1  UNL     1      29.381  -1.166  53.539  1.00  0.00     0.014 C 
ENDBRANCH  17  20
ENDBRANCH   1  16
TORSDOF 2
ENDMDL
MODEL 2
REMARK VINA RESULT:      -8.0      2.483      4.223
REMARK  2 active torsions:
REMARK  status: ('A' for Active; 'I' for Inactive)
REMARK    1  A    between atoms: C2_2  and  C3_3 
REMARK       I    between atoms: C3_3  and  N1_5 
REMARK    2  A    between atoms: N1_5  and  C4_6 
ROOT
HETATM    1  C4  UNL     1      26.259   1.160  51.979  1.00  0.00     0.032 A 
HETATM    2  C5  UNL     1      27.072   0.675  52.917  1.00  0.00     0.009 A 
HETATM    3  C6  UNL     1      26.791  -0.088  54.160  1.00  0.00     0.089 A 
HETATM    4  C7  UNL     1      25.334  -0.312  54.246  1.00  0.00     0.043 A 
HETATM    5  N2  UNL     1      24.907  -1.016  55.266  1.00  0.00    -0.292 NA
HETATM    6  C8  UNL     1      23.508  -1.325  55.488  1.00  0.00     0.158 C 
HETATM    7  C9  UNL     1      22.734  -1.319  54.172  1.00  0.00     0.044 A 
HETATM    8  C10 UNL     1      21.267  -1.553  54.400  1.00  0.00     0.038 A 
HETATM    9  C11 UNL     1      20.504  -0.384  53.917  1.00  0.00    -0.025 A 
HETATM   10  C12 UNL     1      20.718   0.791  53.350  1.00  0.00     0.015 A 
HETATM   11  C13 UNL     1      22.161   1.005  53.129  1.00  0.00     0.018 A 
HETATM   12 BR1  UNL     1      22.662   2.682  52.386  1.00  0.00    -0.051 Br
HETATM   13  C14 UNL     1      22.915   0.000  53.535  1.00  0.00    -0.022 A 
HETATM   14  C15 UNL     1      24.358   0.243  53.303  1.00  0.00    -0.001 A 
HETATM   15  C16 UNL     1      24.818   0.907  52.220  1.00  0.00     0.043 A 
ENDROOT
BRANCH   1  16
HETATM   16  N1  UNL     1      26.664   1.882  50.822  1.00  0.00    -0.327 N 
HETATM   17  C3  UNL     1      26.257   3.215  50.537  1.00  0.00     0.221 C 
HETATM   18  O1  UNL     1      25.512   3.986  51.190  1.00  0.00    -0.273 OA
HETATM   19  H6  UNL     1      27.282   1.368  50.191  1.00  0.00     0.169 HD
BRANCH  17  20
HETATM   20  C2  UNL     1      26.775   3.811  49.286  1.00  0.00     0.098 C 
HETATM   21  C1  UNL     1      26.268   5.215  49.075  1.00  0.00     0.014 C 
ENDBRANCH  17  20
ENDBRANCH   1  16
TORSDOF 2
ENDMDL
MODEL 3
REMARK VINA RESULT:      -7.7      2.153      3.714
REMARK  2 active torsions:
REMARK  status: ('A' for Active; 'I' for Inactive)
REMARK    1  A    between atoms: C2_2  and  C3_3 
REMARK       I    between atoms: C3_3  and  N1_5 
REMARK    2  A    between atoms: N1_5  and  C4_6 
ROOT
HETATM    1  C4  UNL     1      25.130   2.423  51.998  1.00  0.00     0.032 A 
HETATM    2  C5  UNL     1      24.727   2.768  50.776  1.00  0.00     0.009 A 
HETATM    3  C6  UNL     1      23.496   2.429  50.016  1.00  0.00     0.089 A 
HETATM    4  C7  UNL     1      22.639   1.589  50.876  1.00  0.00     0.043 A 
HETATM    5  N2  UNL     1      21.479   1.231  50.380  1.00  0.00    -0.292 NA
HETATM    6  C8  UNL     1      20.525   0.412  51.102  1.00  0.00     0.158 C 
HETATM    7  C9  UNL     1      20.710   0.562  52.610  1.00  0.00     0.044 A 
HETATM    8  C10 UNL     1      19.783  -0.348  53.367  1.00  0.00     0.038 A 
HETATM    9  C11 UNL     1      20.580  -1.290  54.180  1.00  0.00    -0.025 A 
HETATM   10  C12 UNL     1      21.844  -1.569  54.443  1.00  0.00     0.015 A 
HETATM   11  C13 UNL     1      22.741  -0.667  53.697  1.00  0.00     0.018 A 
HETATM   12 BR1  UNL     1      24.607  -0.974  53.896  1.00  0.00    -0.051 Br
HETATM   13  C14 UNL     1      22.104   0.210  52.942  1.00  0.00    -0.022 A 
HETATM   14  C15 UNL     1      23.028   1.101  52.203  1.00  0.00    -0.001 A 
HETATM   15  C16 UNL     1      24.195   1.534  52.729  1.00  0.00     0.043 A 
ENDROOT
BRANCH   1  16
HETATM   16  N1  UNL     1      26.349   2.824  52.614  1.00  0.00    -0.327 N 
HETATM   17  C3  UNL     1      27.429   1.937  52.884  1.00  0.00     0.221 C 
HETATM   18  O1  UNL     1      27.536   0.708  52.657  1.00  0.00    -0.273 OA
HETATM   19  H6  UNL     1      26.400   3.815  52.856  1.00  0.00     0.169 HD
BRANCH  17  20
HETATM   20  C2  UNL     1      28.621   2.527  53.530  1.00  0.00     0.098 C 
HETATM   21  C1  UNL     1      29.349   1.529  54.394  1.00  0.00     0.014 C 
ENDBRANCH  17  20
ENDBRANCH   1  16
TORSDOF 2
ENDMDL
MODEL 4
REMARK VINA RESULT:      -7.7      3.362      4.532
REMARK  2 active torsions:
REMARK  status: ('A' for Active; 'I' for Inactive)
REMARK    1  A    between atoms: C2_2  and  C3_3 
REMARK       I    between atoms: C3_3  and  N1_5 
REMARK    2  A    between atoms: N1_5  and  C4_6 
ROOT
HETATM    1  C4  UNL     1      26.141   2.701  51.179  1.00  0.00     0.032 A 
HETATM    2  C5  UNL     1      26.808   1.712  51.773  1.00  0.00     0.009 A 
HETATM    3  C6  UNL     1      26.337   0.545  52.561  1.00  0.00     0.089 A 
HETATM    4  C7  UNL     1      24.861   0.577  52.598  1.00  0.00     0.043 A 
HETATM    5  N2  UNL     1      24.266  -0.413  53.219  1.00  0.00    -0.292 NA
HETATM    6  C8  UNL     1      22.826  -0.525  53.337  1.00  0.00     0.158 C 
HETATM    7  C9  UNL     1      22.127   0.203  52.191  1.00  0.00     0.044 A 
HETATM    8  C10 UNL     1      20.633   0.165  52.351  1.00  0.00     0.038 A 
HETATM    9  C11 UNL     1      20.119   1.545  52.466  1.00  0.00    -0.025 A 
HETATM   10  C12 UNL     1      20.569   2.788  52.467  1.00  0.00     0.015 A 
HETATM   11  C13 UNL     1      22.035   2.809  52.306  1.00  0.00     0.018 A 
HETATM   12 BR1  UNL     1      22.867   4.518  52.361  1.00  0.00    -0.051 Br
HETATM   13  C14 UNL     1      22.574   1.609  52.196  1.00  0.00    -0.022 A 
HETATM   14  C15 UNL     1      24.047   1.660  52.037  1.00  0.00    -0.001 A 
HETATM   15  C16 UNL     1      24.668   2.637  51.342  1.00  0.00     0.043 A 
ENDROOT
BRANCH   1  16
HETATM   16  N1  UNL     1      26.723   3.771  50.444  1.00  0.00    -0.327 N 
HETATM   17  C3  UNL     1      26.029   4.521  49.454  1.00  0.00     0.221 C 
HETATM   18  O1  UNL     1      24.848   4.414  49.044  1.00  0.00    -0.273 OA
HETATM   19  H6  UNL     1      27.697   3.972  50.678  1.00  0.00     0.169 HD
BRANCH  17  20
HETATM   20  C2  UNL     1      26.791   5.600  48.788  1.00  0.00     0.098 C 
HETATM   21  C1  UNL     1      28.201   5.180  48.461  1.00  0.00     0.014 C 
ENDBRANCH  17  20
ENDBRANCH   1  16
TORSDOF 2
ENDMDL
MODEL 5
REMARK VINA RESULT:      -7.6      1.455      1.954
REMARK  2 active torsions:
REMARK  status: ('A' for Active; 'I' for Inactive)
REMARK    1  A    between atoms: C2_2  and  C3_3 
REMARK       I    between atoms: C3_3  and  N1_5 
REMARK    2  A    between atoms: N1_5  and  C4_6 
ROOT
HETATM    1  C4  UNL     1      24.703   0.499  53.282  1.00  0.00     0.032 A 
HETATM    2  C5  UNL     1      23.721  -0.144  53.912  1.00  0.00     0.009 A 
HETATM    3  C6  UNL     1      22.288  -0.330  53.566  1.00  0.00     0.089 A 
HETATM    4  C7  UNL     1      22.037   0.329  52.269  1.00  0.00     0.043 A 
HETATM    5  N2  UNL     1      20.825   0.226  51.781  1.00  0.00    -0.292 NA
HETATM    6  C8  UNL     1      20.424   0.813  50.518  1.00  0.00     0.158 C 
HETATM    7  C9  UNL     1      21.623   0.971  49.586  1.00  0.00     0.044 A 
HETATM    8  C10 UNL     1      21.233   1.657  48.306  1.00  0.00     0.038 A 
HETATM    9  C11 UNL     1      21.995   2.917  48.176  1.00  0.00    -0.025 A 
HETATM   10  C12 UNL     1      22.905   3.613  48.834  1.00  0.00     0.015 A 
HETATM   11  C13 UNL     1      23.280   2.925  50.085  1.00  0.00     0.018 A 
HETATM   12 BR1  UNL     1      24.530   3.824  51.201  1.00  0.00    -0.051 Br
HETATM   13  C14 UNL     1      22.641   1.786  50.276  1.00  0.00    -0.022 A 
HETATM   14  C15 UNL     1      23.035   1.119  51.539  1.00  0.00    -0.001 A 
HETATM   15  C16 UNL     1      24.297   1.159  52.018  1.00  0.00     0.043 A 
ENDROOT
BRANCH   1  16
HETATM   16  N1  UNL     1      26.050   0.599  53.729  1.00  0.00    -0.327 N 
HETATM   17  C3  UNL     1      26.982  -0.475  53.682  1.00  0.00     0.221 C 
HETATM   18  O1  UNL     1      26.835  -1.651  53.268  1.00  0.00    -0.273 OA
HETATM   19  H6  UNL     1      26.313   1.516  54.097  1.00  0.00     0.169 HD
BRANCH  17  20
HETATM   20  C2  UNL     1      28.342  -0.192  54.190  1.00  0.00     0.098 C 
HETATM   21  C1  UNL     1      29.395  -0.994  53.467  1.00  0.00     0.014 C 
ENDBRANCH  17  20
ENDBRANCH   1  16
TORSDOF 2
ENDMDL
MODEL 6
REMARK VINA RESULT:      -7.6      2.548      3.700
REMARK  2 active torsions:
REMARK  status: ('A' for Active; 'I' for Inactive)
REMARK    1  A    between atoms: C2_2  and  C3_3 
REMARK       I    between atoms: C3_3  and  N1_5 
REMARK    2  A    between atoms: N1_5  and  C4_6 
ROOT
HETATM    1  C4  UNL     1      26.323   1.545  52.144  1.00  0.00     0.032 A 
HETATM    2  C5  UNL     1      26.634   2.206  51.029  1.00  0.00     0.009 A 
HETATM    3  C6  UNL     1      25.796   2.996  50.091  1.00  0.00     0.089 A 
HETATM    4  C7  UNL     1      24.411   3.003  50.600  1.00  0.00     0.043 A 
HETATM    5  N2  UNL     1      23.535   3.698  49.916  1.00  0.00    -0.292 NA
HETATM    6  C8  UNL     1      22.139   3.806  50.290  1.00  0.00     0.158 C 
HETATM    7  C9  UNL     1      21.960   3.599  51.792  1.00  0.00     0.044 A 
HETATM    8  C10 UNL     1      20.508   3.624  52.178  1.00  0.00     0.038 A 
HETATM    9  C11 UNL     1      20.138   2.324  52.776  1.00  0.00    -0.025 A 
HETATM   10  C12 UNL     1      20.692   1.162  53.073  1.00  0.00     0.015 A 
HETATM   11  C13 UNL     1      22.118   1.154  52.693  1.00  0.00     0.018 A 
HETATM   12 BR1  UNL     1      23.060  -0.472  52.980  1.00  0.00    -0.051 Br
HETATM   13  C14 UNL     1      22.528   2.285  52.149  1.00  0.00    -0.022 A 
HETATM   14  C15 UNL     1      23.962   2.248  51.775  1.00  0.00    -0.001 A 
HETATM   15  C16 UNL     1      24.887   1.593  52.510  1.00  0.00     0.043 A 
ENDROOT
BRANCH   1  16
HETATM   16  N1  UNL     1      27.235   0.821  52.961  1.00  0.00    -0.327 N 
HETATM   17  C3  UNL     1      28.183   1.435  53.827  1.00  0.00     0.221 C 
HETATM   18  O1  UNL     1      28.404   2.651  54.044  1.00  0.00    -0.273 OA
HETATM   19  H6  UNL     1      27.165  -0.196  52.884  1.00  0.00     0.169 HD
BRANCH  17  20
HETATM   20  C2  UNL     1      29.053   0.526  54.605  1.00  0.00     0.098 C 
HETATM   21  C1  UNL     1      29.738  -0.490  53.727  1.00  0.00     0.014 C 
ENDBRANCH  17  20
ENDBRANCH   1  16
TORSDOF 2
ENDMDL
MODEL 7
REMARK VINA RESULT:      -7.4      3.011      5.271
REMARK  2 active torsions:
REMARK  status: ('A' for Active; 'I' for Inactive)
REMARK    1  A    between atoms: C2_2  and  C3_3 
REMARK       I    between atoms: C3_3  and  N1_5 
REMARK    2  A    between atoms: N1_5  and  C4_6 
ROOT
HETATM    1  C4  UNL     1      24.318   1.000  52.319  1.00  0.00     0.032 A 
HETATM    2  C5  UNL     1      25.641   0.851  52.385  1.00  0.00     0.009 A 
HETATM    3  C6  UNL     1      26.744   1.556  51.683  1.00  0.00     0.089 A 
HETATM    4  C7  UNL     1      26.152   2.594  50.817  1.00  0.00     0.043 A 
HETATM    5  N2  UNL     1      26.989   3.352  50.151  1.00  0.00    -0.292 NA
HETATM    6  C8  UNL     1      26.563   4.416  49.264  1.00  0.00     0.158 C 
HETATM    7  C9  UNL     1      25.192   4.949  49.670  1.00  0.00     0.044 A 
HETATM    8  C10 UNL     1      24.703   5.994  48.706  1.00  0.00     0.038 A 
HETATM    9  C11 UNL     1      23.443   5.536  48.087  1.00  0.00    -0.025 A 
HETATM   10  C12 UNL     1      22.623   4.500  48.125  1.00  0.00     0.015 A 
HETATM   11  C13 UNL     1      23.113   3.485  49.078  1.00  0.00     0.018 A 
HETATM   12 BR1  UNL     1      22.093   1.886  49.207  1.00  0.00    -0.051 Br
HETATM   13  C14 UNL     1      24.241   3.821  49.677  1.00  0.00    -0.022 A 
HETATM   14  C15 UNL     1      24.710   2.784  50.625  1.00  0.00    -0.001 A 
HETATM   15  C16 UNL     1      23.861   2.043  51.369  1.00  0.00     0.043 A 
ENDROOT
BRANCH   1  16
HETATM   16  N1  UNL     1      23.361   0.249  53.057  1.00  0.00    -0.327 N 
HETATM   17  C3  UNL     1      23.691  -0.599  54.150  1.00  0.00     0.221 C 
HETATM   18  O1  UNL     1      24.808  -0.852  54.664  1.00  0.00    -0.273 OA
HETATM   19  H6  UNL     1      22.394   0.361  52.743  1.00  0.00     0.169 HD
BRANCH  17  20
HETATM   20  C2  UNL     1      22.567  -1.305  54.803  1.00  0.00     0.098 C 
HETATM   21  C1  UNL     1      21.262  -0.568  54.634  1.00  0.00     0.014 C 
ENDBRANCH  17  20
ENDBRANCH   1  16
TORSDOF 2
ENDMDL
MODEL 8
REMARK VINA RESULT:      -7.2      3.591      7.044
REMARK  2 active torsions:
REMARK  status: ('A' for Active; 'I' for Inactive)
REMARK    1  A    between atoms: C2_2  and  C3_3 
REMARK       I    between atoms: C3_3  and  N1_5 
REMARK    2  A    between atoms: N1_5  and  C4_6 
ROOT
HETATM    1  C4  UNL     1      23.952   3.618  49.346  1.00  0.00     0.032 A 
HETATM    2  C5  UNL     1      25.115   4.264  49.271  1.00  0.00     0.009 A 
HETATM    3  C6  UNL     1      26.395   4.068  50.000  1.00  0.00     0.089 A 
HETATM    4  C7  UNL     1      26.238   2.916  50.910  1.00  0.00     0.043 A 
HETATM    5  N2  UNL     1      27.293   2.568  51.606  1.00  0.00    -0.292 NA
HETATM    6  C8  UNL     1      27.298   1.457  52.537  1.00  0.00     0.158 C 
HETATM    7  C9  UNL     1      26.245   0.420  52.155  1.00  0.00     0.044 A 
HETATM    8  C10 UNL     1      26.185  -0.694  53.162  1.00  0.00     0.038 A 
HETATM    9  C11 UNL     1      24.836  -0.735  53.764  1.00  0.00    -0.025 A 
HETATM   10  C12 UNL     1      23.680  -0.099  53.684  1.00  0.00     0.015 A 
HETATM   11  C13 UNL     1      23.754   0.988  52.689  1.00  0.00     0.018 A 
HETATM   12 BR1  UNL     1      22.197   2.062  52.495  1.00  0.00    -0.051 Br
HETATM   13  C14 UNL     1      24.933   1.092  52.103  1.00  0.00    -0.022 A 
HETATM   14  C15 UNL     1      24.979   2.192  51.112  1.00  0.00    -0.001 A 
HETATM   15  C16 UNL     1      23.920   2.517  50.339  1.00  0.00     0.043 A 
ENDROOT
BRANCH   1  16
HETATM   16  N1  UNL     1      22.790   3.910  48.579  1.00  0.00    -0.327 N 
HETATM   17  C3  UNL     1      22.247   3.033  47.599  1.00  0.00     0.221 C 
HETATM   18  O1  UNL     1      22.639   1.901  47.226  1.00  0.00    -0.273 OA
HETATM   19  H6  UNL     1      22.359   4.814  48.781  1.00  0.00     0.169 HD
BRANCH  17  20
HETATM   20  C2  UNL     1      21.031   3.500  46.896  1.00  0.00     0.098 C 
HETATM   21  C1  UNL     1      21.171   4.918  46.404  1.00  0.00     0.014 C 
ENDBRANCH  17  20
ENDBRANCH   1  16
TORSDOF 2
ENDMDL
MODEL 9
REMARK VINA RESULT:      -6.8      3.178      6.325
REMARK  2 active torsions:
REMARK  status: ('A' for Active; 'I' for Inactive)
REMARK    1  A    between atoms: C2_2  and  C3_3 
REMARK       I    between atoms: C3_3  and  N1_5 
REMARK    2  A    between atoms: N1_5  and  C4_6 
ROOT
HETATM    1  C4  UNL     1      20.757   1.989  52.622  1.00  0.00     0.032 A 
HETATM    2  C5  UNL     1      20.529   0.829  53.236  1.00  0.00     0.009 A 
HETATM    3  C6  UNL     1      21.455  -0.237  53.697  1.00  0.00     0.089 A 
HETATM    4  C7  UNL     1      22.836   0.188  53.395  1.00  0.00     0.043 A 
HETATM    5  N2  UNL     1      23.797  -0.617  53.778  1.00  0.00    -0.292 NA
HETATM    6  C8  UNL     1      25.202  -0.338  53.559  1.00  0.00     0.158 C 
HETATM    7  C9  UNL     1      25.449   1.165  53.451  1.00  0.00     0.044 A 
HETATM    8  C10 UNL     1      26.889   1.461  53.138  1.00  0.00     0.038 A 
HETATM    9  C11 UNL     1      26.972   2.175  51.847  1.00  0.00    -0.025 A 
HETATM   10  C12 UNL     1      26.173   2.629  50.897  1.00  0.00     0.015 A 
HETATM   11  C13 UNL     1      24.764   2.334  51.219  1.00  0.00     0.018 A 
HETATM   12 BR1  UNL     1      23.474   2.851  49.921  1.00  0.00    -0.051 Br
HETATM   13  C14 UNL     1      24.603   1.695  52.363  1.00  0.00    -0.022 A 
HETATM   14  C15 UNL     1      23.180   1.410  52.660  1.00  0.00    -0.001 A 
HETATM   15  C16 UNL     1      22.186   2.264  52.333  1.00  0.00     0.043 A 
ENDROOT
BRANCH   1  16
HETATM   16  N1  UNL     1      19.765   2.931  52.232  1.00  0.00    -0.327 N 
HETATM   17  C3  UNL     1      19.334   3.118  50.888  1.00  0.00     0.221 C 
HETATM   18  O1  UNL     1      19.703   2.540  49.838  1.00  0.00    -0.273 OA
HETATM   19  H6  UNL     1      19.371   3.481  52.998  1.00  0.00     0.169 HD
BRANCH  17  20
HETATM   20  C2  UNL     1      18.292   4.143  50.665  1.00  0.00     0.098 C 
HETATM   21  C1  UNL     1      17.089   3.929  51.548  1.00  0.00     0.014 C 
ENDBRANCH  17  20
ENDBRANCH   1  16
TORSDOF 2
ENDMDL
