MODEL 1
REMARK VINA RESULT:      -8.1      0.000      0.000
REMARK  3 active torsions:
REMARK  status: ('A' for Active; 'I' for Inactive)
REMARK    1  A    between atoms: C5_5  and  S1_6 
REMARK    2  A    between atoms: S1_6  and  N1_9 
REMARK       I    between atoms: N1_9  and  C6_10 
REMARK    3  A    between atoms: C6_10  and  C7_12 
ROOT
HETATM    1  S1  UNL     1      24.281   2.175  52.253  1.00  0.00     0.256 S 
HETATM    2  O1  UNL     1      24.642   2.875  50.971  1.00  0.00    -0.201 OA
HETATM    3  O2  UNL     1      24.445   3.069  53.451  1.00  0.00    -0.201 OA
ENDROOT
BRANCH   1   4
HETATM    4  C5  UNL     1      22.624   1.650  52.094  1.00  0.00     0.139 C 
HETATM    5  C4  UNL     1      22.124   0.702  52.849  1.00  0.00    -0.042 A 
HETATM    6  C3  UNL     1      20.720   0.274  52.696  1.00  0.00     0.014 A 
HETATM    7  C12 UNL     1      22.935   0.030  53.873  1.00  0.00     0.066 A 
HETATM    8  C2  UNL     1      20.142  -0.673  53.418  1.00  0.00    -0.062 A 
HETATM    9  C1  UNL     1      18.698  -0.979  53.126  1.00  0.00     0.048 C 
HETATM   10  C14 UNL     1      20.915  -1.346  54.428  1.00  0.00     0.003 A 
HETATM   11  C13 UNL     1      22.167  -0.997  54.595  1.00  0.00    -0.022 A 
ENDBRANCH   1   4
BRANCH   1  12
HETATM   12  N1  UNL     1      25.303   0.769  52.431  1.00  0.00    -0.247 N 
HETATM   13  C6  UNL     1      26.670   0.877  52.818  1.00  0.00     0.266 C 
HETATM   14  O3  UNL     1      27.107   2.057  53.029  1.00  0.00    -0.267 OA
HETATM   15  H6  UNL     1      24.869  -0.163  52.240  1.00  0.00     0.182 HD
BRANCH  13  16
HETATM   16  C7  UNL     1      27.521  -0.298  52.965  1.00  0.00     0.050 A 
HETATM   17  C8  UNL     1      28.833  -0.292  53.387  1.00  0.00     0.020 A 
HETATM   18  C9  UNL     1      29.508  -1.472  53.478  1.00  0.00     0.020 A 
HETATM   19  C10 UNL     1      28.918  -2.680  53.158  1.00  0.00     0.116 A 
HETATM   20  N2  UNL     1      27.638  -2.704  52.745  1.00  0.00    -0.272 NA
HETATM   21  C11 UNL     1      26.979  -1.528  52.660  1.00  0.00     0.133 A 
ENDBRANCH  13  16
ENDBRANCH   1  12
TORSDOF 3
ENDMDL
MODEL 2
REMARK VINA RESULT:      -7.8      4.503      6.642
REMARK  3 active torsions:
REMARK  status: ('A' for Active; 'I' for Inactive)
REMARK    1  A    between atoms: C5_5  and  S1_6 
REMARK    2  A    between atoms: S1_6  and  N1_9 
REMARK       I    between atoms: N1_9  and  C6_10 
REMARK    3  A    between atoms: C6_10  and  C7_12 
ROOT
HETATM    1  S1  UNL     1      24.291   3.761  50.861  1.00  0.00     0.256 S 
HETATM    2  O1  UNL     1      23.103   3.963  51.763  1.00  0.00    -0.201 OA
HETATM    3  O2  UNL     1      24.003   2.781  49.758  1.00  0.00    -0.201 OA
ENDROOT
BRANCH   1   4
HETATM    4  C5  UNL     1      24.700   5.327  50.207  1.00  0.00     0.139 C 
HETATM    5  C4  UNL     1      25.811   5.529  49.541  1.00  0.00    -0.042 A 
HETATM    6  C3  UNL     1      26.137   6.862  48.997  1.00  0.00     0.014 A 
HETATM    7  C12 UNL     1      26.774   4.443  49.311  1.00  0.00     0.066 A 
HETATM    8  C2  UNL     1      27.237   7.145  48.316  1.00  0.00    -0.062 A 
HETATM    9  C1  UNL     1      27.403   8.562  47.835  1.00  0.00     0.048 C 
HETATM   10  C14 UNL     1      28.195   6.099  48.077  1.00  0.00     0.003 A 
HETATM   11  C13 UNL     1      27.944   4.901  48.543  1.00  0.00    -0.022 A 
ENDBRANCH   1   4
BRANCH   1  12
HETATM   12  N1  UNL     1      25.632   3.183  51.820  1.00  0.00    -0.247 N 
HETATM   13  C6  UNL     1      25.609   1.907  52.453  1.00  0.00     0.266 C 
HETATM   14  O3  UNL     1      24.555   1.208  52.280  1.00  0.00    -0.267 OA
HETATM   15  H6  UNL     1      26.459   3.816  51.913  1.00  0.00     0.182 HD
BRANCH  13  16
HETATM   16  C7  UNL     1      26.729   1.427  53.253  1.00  0.00     0.050 A 
HETATM   17  C8  UNL     1      27.998   1.966  53.264  1.00  0.00     0.020 A 
HETATM   18  C9  UNL     1      28.950   1.412  54.066  1.00  0.00     0.020 A 
HETATM   19  C10 UNL     1      28.683   0.320  54.872  1.00  0.00     0.116 A 
HETATM   20  N2  UNL     1      27.451  -0.218  54.873  1.00  0.00    -0.272 NA
HETATM   21  C11 UNL     1      26.515   0.341  54.074  1.00  0.00     0.133 A 
ENDBRANCH  13  16
ENDBRANCH   1  12
TORSDOF 3
ENDMDL
MODEL 3
REMARK VINA RESULT:      -7.8      3.933      6.947
REMARK  3 active torsions:
REMARK  status: ('A' for Active; 'I' for Inactive)
REMARK    1  A    between atoms: C5_5  and  S1_6 
REMARK    2  A    between atoms: S1_6  and  N1_9 
REMARK       I    between atoms: N1_9  and  C6_10 
REMARK    3  A    between atoms: C6_10  and  C7_12 
ROOT
HETATM    1  S1  UNL     1      24.828   2.098  51.940  1.00  0.00     0.256 S 
HETATM    2  O1  UNL     1      23.572   1.832  51.155  1.00  0.00    -0.201 OA
HETATM    3  O2  UNL     1      24.538   2.729  53.274  1.00  0.00    -0.201 OA
ENDROOT
BRANCH   1   4
HETATM    4  C5  UNL     1      25.631   0.561  52.144  1.00  0.00     0.139 C 
HETATM    5  C4  UNL     1      26.850   0.476  52.621  1.00  0.00    -0.042 A 
HETATM    6  C3  UNL     1      27.509  -0.834  52.784  1.00  0.00     0.014 A 
HETATM    7  C12 UNL     1      27.605   1.675  53.009  1.00  0.00     0.066 A 
HETATM    8  C2  UNL     1      28.735  -1.002  53.256  1.00  0.00    -0.062 A 
HETATM    9  C1  UNL     1      29.247  -2.414  53.355  1.00  0.00     0.048 C 
HETATM   10  C14 UNL     1      29.495   0.156  53.645  1.00  0.00     0.003 A 
HETATM   11  C13 UNL     1      28.946   1.339  53.515  1.00  0.00    -0.022 A 
ENDBRANCH   1   4
BRANCH   1  12
HETATM   12  N1  UNL     1      25.860   3.154  51.007  1.00  0.00    -0.247 N 
HETATM   13  C6  UNL     1      25.365   4.344  50.399  1.00  0.00     0.266 C 
HETATM   14  O3  UNL     1      24.127   4.596  50.574  1.00  0.00    -0.267 OA
HETATM   15  H6  UNL     1      26.864   2.877  50.911  1.00  0.00     0.182 HD
BRANCH  13  16
HETATM   16  C7  UNL     1      26.229   5.224  49.620  1.00  0.00     0.050 A 
HETATM   17  C8  UNL     1      27.329   4.829  48.889  1.00  0.00     0.020 A 
HETATM   18  C9  UNL     1      28.045   5.765  48.206  1.00  0.00     0.020 A 
HETATM   19  C10 UNL     1      27.705   7.105  48.224  1.00  0.00     0.116 A 
HETATM   20  N2  UNL     1      26.634   7.507  48.932  1.00  0.00    -0.272 NA
HETATM   21  C11 UNL     1      25.931   6.569  49.604  1.00  0.00     0.133 A 
ENDBRANCH  13  16
ENDBRANCH   1  12
TORSDOF 3
ENDMDL
MODEL 4
REMARK VINA RESULT:      -7.3      3.883      5.415
REMARK  3 active torsions:
REMARK  status: ('A' for Active; 'I' for Inactive)
REMARK    1  A    between atoms: C5_5  and  S1_6 
REMARK    2  A    between atoms: S1_6  and  N1_9 
REMARK       I    between atoms: N1_9  and  C6_10 
REMARK    3  A    between atoms: C6_10  and  C7_12 
ROOT
HETATM    1  S1  UNL     1      22.616   2.260  50.208  1.00  0.00     0.256 S 
HETATM    2  O1  UNL     1      22.065   1.228  49.261  1.00  0.00    -0.201 OA
HETATM    3  O2  UNL     1      21.565   3.242  50.647  1.00  0.00    -0.201 OA
ENDROOT
BRANCH   1   4
HETATM    4  C5  UNL     1      23.265   1.394  51.577  1.00  0.00     0.139 C 
HETATM    5  C4  UNL     1      22.501   0.681  52.369  1.00  0.00    -0.042 A 
HETATM    6  C3  UNL     1      23.072  -0.043  53.522  1.00  0.00     0.014 A 
HETATM    7  C12 UNL     1      21.053   0.576  52.145  1.00  0.00     0.066 A 
HETATM    8  C2  UNL     1      22.369  -0.781  54.366  1.00  0.00    -0.062 A 
HETATM    9  C1  UNL     1      23.119  -1.450  55.486  1.00  0.00     0.048 C 
HETATM   10  C14 UNL     1      20.949  -0.901  54.168  1.00  0.00     0.003 A 
HETATM   11  C13 UNL     1      20.402  -0.273  53.157  1.00  0.00    -0.022 A 
ENDBRANCH   1   4
BRANCH   1  12
HETATM   12  N1  UNL     1      23.916   3.113  49.412  1.00  0.00    -0.247 N 
HETATM   13  C6  UNL     1      24.710   4.079  50.095  1.00  0.00     0.266 C 
HETATM   14  O3  UNL     1      24.420   4.287  51.320  1.00  0.00    -0.267 OA
HETATM   15  H6  UNL     1      24.091   2.886  48.407  1.00  0.00     0.182 HD
BRANCH  13  16
HETATM   16  C7  UNL     1      25.795   4.790  49.428  1.00  0.00     0.050 A 
HETATM   17  C8  UNL     1      27.045   4.276  49.156  1.00  0.00     0.020 A 
HETATM   18  C9  UNL     1      27.963   5.059  48.524  1.00  0.00     0.020 A 
HETATM   19  C10 UNL     1      27.681   6.358  48.145  1.00  0.00     0.116 A 
HETATM   20  N2  UNL     1      26.467   6.875  48.402  1.00  0.00    -0.272 NA
HETATM   21  C11 UNL     1      25.564   6.089  49.030  1.00  0.00     0.133 A 
ENDBRANCH  13  16
ENDBRANCH   1  12
TORSDOF 3
ENDMDL
MODEL 5
REMARK VINA RESULT:      -7.2      4.337      7.549
REMARK  3 active torsions:
REMARK  status: ('A' for Active; 'I' for Inactive)
REMARK    1  A    between atoms: C5_5  and  S1_6 
REMARK    2  A    between atoms: S1_6  and  N1_9 
REMARK       I    between atoms: N1_9  and  C6_10 
REMARK    3  A    between atoms: C6_10  and  C7_12 
ROOT
HETATM    1  S1  UNL     1      24.034   3.777  50.599  1.00  0.00     0.256 S 
HETATM    2  O1  UNL     1      23.785   5.045  51.371  1.00  0.00    -0.201 OA
HETATM    3  O2  UNL     1      23.112   3.644  49.419  1.00  0.00    -0.201 OA
ENDROOT
BRANCH   1   4
HETATM    4  C5  UNL     1      25.701   3.821  50.083  1.00  0.00     0.139 C 
HETATM    5  C4  UNL     1      26.184   4.825  49.392  1.00  0.00    -0.042 A 
HETATM    6  C3  UNL     1      27.597   4.840  48.965  1.00  0.00     0.014 A 
HETATM    7  C12 UNL     1      25.343   5.969  49.014  1.00  0.00     0.066 A 
HETATM    8  C2  UNL     1      28.157   5.815  48.266  1.00  0.00    -0.062 A 
HETATM    9  C1  UNL     1      29.614   5.663  47.919  1.00  0.00     0.048 C 
HETATM   10  C14 UNL     1      27.356   6.947  47.884  1.00  0.00     0.003 A 
HETATM   11  C13 UNL     1      26.096   6.972  48.242  1.00  0.00    -0.022 A 
ENDBRANCH   1   4
BRANCH   1  12
HETATM   12  N1  UNL     1      23.811   2.415  51.671  1.00  0.00    -0.247 N 
HETATM   13  C6  UNL     1      22.543   2.109  52.243  1.00  0.00     0.266 C 
HETATM   14  O3  UNL     1      21.579   2.883  51.931  1.00  0.00    -0.267 OA
HETATM   15  H6  UNL     1      24.652   1.828  51.877  1.00  0.00     0.182 HD
BRANCH  13  16
HETATM   16  C7  UNL     1      22.360   0.971  53.137  1.00  0.00     0.050 A 
HETATM   17  C8  UNL     1      21.172   0.595  53.726  1.00  0.00     0.020 A 
HETATM   18  C9  UNL     1      21.149  -0.495  54.542  1.00  0.00     0.020 A 
HETATM   19  C10 UNL     1      22.285  -1.240  54.802  1.00  0.00     0.116 A 
HETATM   20  N2  UNL     1      23.453  -0.887  54.235  1.00  0.00    -0.272 NA
HETATM   21  C11 UNL     1      23.462   0.196  53.427  1.00  0.00     0.133 A 
ENDBRANCH  13  16
ENDBRANCH   1  12
TORSDOF 3
ENDMDL
MODEL 6
REMARK VINA RESULT:      -7.2      1.983      2.909
REMARK  3 active torsions:
REMARK  status: ('A' for Active; 'I' for Inactive)
REMARK    1  A    between atoms: C5_5  and  S1_6 
REMARK    2  A    between atoms: S1_6  and  N1_9 
REMARK       I    between atoms: N1_9  and  C6_10 
REMARK    3  A    between atoms: C6_10  and  C7_12 
ROOT
HETATM    1  S1  UNL     1      22.629   1.500  52.186  1.00  0.00     0.256 S 
HETATM    2  O1  UNL     1      22.749   1.197  50.717  1.00  0.00    -0.201 OA
HETATM    3  O2  UNL     1      22.356   2.957  52.442  1.00  0.00    -0.201 OA
ENDROOT
BRANCH   1   4
HETATM    4  C5  UNL     1      21.332   0.509  52.803  1.00  0.00     0.139 C 
HETATM    5  C4  UNL     1      20.199   0.373  52.156  1.00  0.00    -0.042 A 
HETATM    6  C3  UNL     1      19.115  -0.471  52.696  1.00  0.00     0.014 A 
HETATM    7  C12 UNL     1      19.962   1.052  50.875  1.00  0.00     0.066 A 
HETATM    8  C2  UNL     1      17.945  -0.657  52.105  1.00  0.00    -0.062 A 
HETATM    9  C1  UNL     1      16.957  -1.554  52.801  1.00  0.00     0.048 C 
HETATM   10  C14 UNL     1      17.689  -0.004  50.849  1.00  0.00     0.003 A 
HETATM   11  C13 UNL     1      18.625   0.755  50.335  1.00  0.00    -0.022 A 
ENDBRANCH   1   4
BRANCH   1  12
HETATM   12  N1  UNL     1      24.117   1.038  52.977  1.00  0.00    -0.247 N 
HETATM   13  C6  UNL     1      25.360   1.656  52.660  1.00  0.00     0.266 C 
HETATM   14  O3  UNL     1      25.328   2.567  51.768  1.00  0.00    -0.267 OA
HETATM   15  H6  UNL     1      24.058   0.283  53.698  1.00  0.00     0.182 HD
BRANCH  13  16
HETATM   16  C7  UNL     1      26.601   1.268  53.322  1.00  0.00     0.050 A 
HETATM   17  C8  UNL     1      27.848   1.792  53.061  1.00  0.00     0.020 A 
HETATM   18  C9  UNL     1      28.923   1.332  53.761  1.00  0.00     0.020 A 
HETATM   19  C10 UNL     1      28.802   0.351  54.727  1.00  0.00     0.116 A 
HETATM   20  N2  UNL     1      27.592  -0.171  54.995  1.00  0.00    -0.272 NA
HETATM   21  C11 UNL     1      26.534   0.294  54.295  1.00  0.00     0.133 A 
ENDBRANCH  13  16
ENDBRANCH   1  12
TORSDOF 3
ENDMDL
MODEL 7
REMARK VINA RESULT:      -7.2      1.745      2.106
REMARK  3 active torsions:
REMARK  status: ('A' for Active; 'I' for Inactive)
REMARK    1  A    between atoms: C5_5  and  S1_6 
REMARK    2  A    between atoms: S1_6  and  N1_9 
REMARK       I    between atoms: N1_9  and  C6_10 
REMARK    3  A    between atoms: C6_10  and  C7_12 
ROOT
HETATM    1  S1  UNL     1      23.436   2.637  50.710  1.00  0.00     0.256 S 
HETATM    2  O1  UNL     1      23.989   2.786  49.319  1.00  0.00    -0.201 OA
HETATM    3  O2  UNL     1      23.273   3.964  51.398  1.00  0.00    -0.201 OA
ENDROOT
BRANCH   1   4
HETATM    4  C5  UNL     1      21.898   1.826  50.558  1.00  0.00     0.139 C 
HETATM    5  C4  UNL     1      21.339   1.208  51.571  1.00  0.00    -0.042 A 
HETATM    6  C3  UNL     1      20.038   0.528  51.419  1.00  0.00     0.014 A 
HETATM    7  C12 UNL     1      21.983   1.165  52.891  1.00  0.00     0.066 A 
HETATM    8  C2  UNL     1      19.412  -0.117  52.391  1.00  0.00    -0.062 A 
HETATM    9  C1  UNL     1      18.089  -0.752  52.055  1.00  0.00     0.048 C 
HETATM   10  C14 UNL     1      20.020  -0.172  53.693  1.00  0.00     0.003 A 
HETATM   11  C13 UNL     1      21.176   0.418  53.871  1.00  0.00    -0.022 A 
ENDBRANCH   1   4
BRANCH   1  12
HETATM   12  N1  UNL     1      24.517   1.626  51.639  1.00  0.00    -0.247 N 
HETATM   13  C6  UNL     1      25.897   1.945  51.793  1.00  0.00     0.266 C 
HETATM   14  O3  UNL     1      26.301   3.008  51.215  1.00  0.00    -0.267 OA
HETATM   15  H6  UNL     1      24.108   0.772  52.081  1.00  0.00     0.182 HD
BRANCH  13  16
HETATM   16  C7  UNL     1      26.797   1.099  52.568  1.00  0.00     0.050 A 
HETATM   17  C8  UNL     1      27.007  -0.248  52.367  1.00  0.00     0.020 A 
HETATM   18  C9  UNL     1      27.882  -0.913  53.172  1.00  0.00     0.020 A 
HETATM   19  C10 UNL     1      28.569  -0.277  54.190  1.00  0.00     0.116 A 
HETATM   20  N2  UNL     1      28.376   1.037  54.400  1.00  0.00    -0.272 NA
HETATM   21  C11 UNL     1      27.506   1.685  53.595  1.00  0.00     0.133 A 
ENDBRANCH  13  16
ENDBRANCH   1  12
TORSDOF 3
ENDMDL
MODEL 8
REMARK VINA RESULT:      -6.9      5.561      7.527
REMARK  3 active torsions:
REMARK  status: ('A' for Active; 'I' for Inactive)
REMARK    1  A    between atoms: C5_5  and  S1_6 
REMARK    2  A    between atoms: S1_6  and  N1_9 
REMARK       I    between atoms: N1_9  and  C6_10 
REMARK    3  A    between atoms: C6_10  and  C7_12 
ROOT
HETATM    1  S1  UNL     1      25.220   4.148  50.459  1.00  0.00     0.256 S 
HETATM    2  O1  UNL     1      24.451   3.779  49.219  1.00  0.00    -0.201 OA
HETATM    3  O2  UNL     1      24.311   4.508  51.602  1.00  0.00    -0.201 OA
ENDROOT
BRANCH   1   4
HETATM    4  C5  UNL     1      26.211   2.770  50.866  1.00  0.00     0.139 C 
HETATM    5  C4  UNL     1      25.752   1.777  51.589  1.00  0.00    -0.042 A 
HETATM    6  C3  UNL     1      26.608   0.623  51.922  1.00  0.00     0.014 A 
HETATM    7  C12 UNL     1      24.373   1.774  52.097  1.00  0.00     0.066 A 
HETATM    8  C2  UNL     1      26.219  -0.416  52.645  1.00  0.00    -0.062 A 
HETATM    9  C1  UNL     1      27.229  -1.506  52.884  1.00  0.00     0.048 C 
HETATM   10  C14 UNL     1      24.873  -0.444  53.153  1.00  0.00     0.003 A 
HETATM   11  C13 UNL     1      24.080   0.563  52.882  1.00  0.00    -0.022 A 
ENDBRANCH   1   4
BRANCH   1  12
HETATM   12  N1  UNL     1      26.260   5.502  50.091  1.00  0.00    -0.247 N 
HETATM   13  C6  UNL     1      25.739   6.805  49.846  1.00  0.00     0.266 C 
HETATM   14  O3  UNL     1      24.471   6.929  49.910  1.00  0.00    -0.267 OA
HETATM   15  H6  UNL     1      27.289   5.318  50.058  1.00  0.00     0.182 HD
BRANCH  13  16
HETATM   16  C7  UNL     1      26.610   7.934  49.539  1.00  0.00     0.050 A 
HETATM   17  C8  UNL     1      27.822   7.860  48.888  1.00  0.00     0.020 A 
HETATM   18  C9  UNL     1      28.531   9.003  48.668  1.00  0.00     0.020 A 
HETATM   19  C10 UNL     1      28.071  10.240  49.080  1.00  0.00     0.116 A 
HETATM   20  N2  UNL     1      26.890  10.330  49.717  1.00  0.00    -0.272 NA
HETATM   21  C11 UNL     1      26.197   9.190  49.928  1.00  0.00     0.133 A 
ENDBRANCH  13  16
ENDBRANCH   1  12
TORSDOF 3
ENDMDL
MODEL 9
REMARK VINA RESULT:      -6.9      5.379      7.560
REMARK  3 active torsions:
REMARK  status: ('A' for Active; 'I' for Inactive)
REMARK    1  A    between atoms: C5_5  and  S1_6 
REMARK    2  A    between atoms: S1_6  and  N1_9 
REMARK       I    between atoms: N1_9  and  C6_10 
REMARK    3  A    between atoms: C6_10  and  C7_12 
ROOT
HETATM    1  S1  UNL     1      24.701   4.819  50.317  1.00  0.00     0.256 S 
HETATM    2  O1  UNL     1      23.997   5.982  50.964  1.00  0.00    -0.201 OA
HETATM    3  O2  UNL     1      23.851   4.158  49.267  1.00  0.00    -0.201 OA
ENDROOT
BRANCH   1   4
HETATM    4  C5  UNL     1      26.172   5.446  49.619  1.00  0.00     0.139 C 
HETATM    5  C4  UNL     1      26.156   6.348  48.667  1.00  0.00    -0.042 A 
HETATM    6  C3  UNL     1      27.413   6.864  48.091  1.00  0.00     0.014 A 
HETATM    7  C12 UNL     1      24.893   6.878  48.136  1.00  0.00     0.066 A 
HETATM    8  C2  UNL     1      27.480   7.771  47.129  1.00  0.00    -0.062 A 
HETATM    9  C1  UNL     1      28.851   8.182  46.663  1.00  0.00     0.048 C 
HETATM   10  C14 UNL     1      26.257   8.307  46.593  1.00  0.00     0.003 A 
HETATM   11  C13 UNL     1      25.118   7.875  47.076  1.00  0.00    -0.022 A 
ENDBRANCH   1   4
BRANCH   1  12
HETATM   12  N1  UNL     1      25.114   3.656  51.553  1.00  0.00    -0.247 N 
HETATM   13  C6  UNL     1      26.018   2.584  51.303  1.00  0.00     0.266 C 
HETATM   14  O3  UNL     1      26.511   2.520  50.128  1.00  0.00    -0.267 OA
HETATM   15  H6  UNL     1      24.668   3.777  52.491  1.00  0.00     0.182 HD
BRANCH  13  16
HETATM   16  C7  UNL     1      26.362   1.613  52.336  1.00  0.00     0.050 A 
HETATM   17  C8  UNL     1      26.622   0.276  52.128  1.00  0.00     0.020 A 
HETATM   18  C9  UNL     1      26.932  -0.516  53.193  1.00  0.00     0.020 A 
HETATM   19  C10 UNL     1      26.992  -0.019  54.482  1.00  0.00     0.116 A 
HETATM   20  N2  UNL     1      26.741   1.283  54.703  1.00  0.00    -0.272 NA
HETATM   21  C11 UNL     1      26.436   2.059  53.639  1.00  0.00     0.133 A 
ENDBRANCH  13  16
ENDBRANCH   1  12
TORSDOF 3
ENDMDL
