MODEL 1
REMARK VINA RESULT:      -6.9      0.000      0.000
REMARK  7 active torsions:
REMARK  status: ('A' for Active; 'I' for Inactive)
REMARK    1  A    between atoms: C2_2  and  C3_3 
REMARK    2  A    between atoms: C3_3  and  N1_5 
REMARK    3  A    between atoms: N1_5  and  C4_6 
REMARK       I    between atoms: N1_5  and  C10_15 
REMARK    4  A    between atoms: C4_6  and  C5_7 
REMARK    5  A    between atoms: C6_8  and  P1_9 
REMARK    6  A    between atoms: C7_10  and  N2_11 
REMARK    7  A    between atoms: C10_15  and  C11_17 
ROOT
HETATM    1  N1  UNL     1      24.617   0.832  52.924  1.00  0.00    -0.313 N 
HETATM    2  C10 UNL     1      25.695  -0.079  53.050  1.00  0.00     0.256 C 
HETATM    3  O1  UNL     1      25.491  -1.303  52.886  1.00  0.00    -0.267 OA
ENDROOT
BRANCH   1   4
HETATM    4  C3  UNL     1      23.333   0.260  52.585  1.00  0.00     0.274 C 
HETATM    5  F1  UNL     1      22.767   0.765  51.449  1.00  0.00    -0.227 F 
BRANCH   4   6
HETATM    6  C2  UNL     1      22.339   0.482  53.734  1.00  0.00     0.055 C 
HETATM    7  C1  UNL     1      22.269  -0.800  54.536  1.00  0.00     0.010 C 
ENDBRANCH   4   6
ENDBRANCH   1   4
BRANCH   1   8
HETATM    8  C4  UNL     1      24.646   2.270  53.087  1.00  0.00     0.169 C 
BRANCH   8   9
HETATM    9  C5  UNL     1      24.953   3.008  51.826  1.00  0.00    -0.021 A 
HETATM   10  C6  UNL     1      24.071   3.892  51.343  1.00  0.00    -0.001 A 
HETATM   11  C7  UNL     1      24.320   4.645  50.116  1.00  0.00     0.055 A 
HETATM   12  C8  UNL     1      25.320   4.702  49.250  1.00  0.00     0.051 A 
HETATM   13  S1  UNL     1      26.493   3.649  49.678  1.00  0.00    -0.098 SA
HETATM   14  C9  UNL     1      26.178   2.833  51.056  1.00  0.00     0.060 A 
BRANCH  10  15
HETATM   15  P1  UNL     1      22.461   4.308  52.099  1.00  0.00    -0.103 P 
HETATM   16  H9  UNL     1      21.449   3.960  51.087  1.00  0.00     0.059 HD
HETATM   17  H10 UNL     1      22.183   3.559  53.299  1.00  0.00     0.059 HD
ENDBRANCH  10  15
BRANCH  11  18
HETATM   18  N2  UNL     1      23.437   5.584  49.521  1.00  0.00    -0.397 N 
HETATM   19  H11 UNL     1      23.277   5.840  48.499  1.00  0.00     0.156 HD
HETATM   20  H12 UNL     1      22.737   6.239  49.965  1.00  0.00     0.156 HD
ENDBRANCH  11  18
ENDBRANCH   8   9
ENDBRANCH   1   8
BRANCH   2  21
HETATM   21  C11 UNL     1      27.108  -0.034  53.340  1.00  0.00     0.032 A 
HETATM   22  C12 UNL     1      27.923  -1.141  53.050  1.00  0.00     0.017 A 
HETATM   23  C13 UNL     1      29.298  -1.094  53.329  1.00  0.00     0.001 A 
HETATM   24  C14 UNL     1      29.804   0.060  53.887  1.00  0.00     0.000 A 
HETATM   25  C15 UNL     1      29.034   1.175  54.187  1.00  0.00     0.001 A 
HETATM   26  C16 UNL     1      27.673   1.088  53.896  1.00  0.00     0.017 A 
ENDBRANCH   2  21
TORSDOF 7
ENDMDL
MODEL 2
REMARK VINA RESULT:      -6.9      2.739      4.422
REMARK  7 active torsions:
REMARK  status: ('A' for Active; 'I' for Inactive)
REMARK    1  A    between atoms: C2_2  and  C3_3 
REMARK    2  A    between atoms: C3_3  and  N1_5 
REMARK    3  A    between atoms: N1_5  and  C4_6 
REMARK       I    between atoms: N1_5  and  C10_15 
REMARK    4  A    between atoms: C4_6  and  C5_7 
REMARK    5  A    between atoms: C6_8  and  P1_9 
REMARK    6  A    between atoms: C7_10  and  N2_11 
REMARK    7  A    between atoms: C10_15  and  C11_17 
ROOT
HETATM    1  N1  UNL     1      25.430   1.699  52.641  1.00  0.00    -0.313 N 
HETATM    2  C10 UNL     1      26.704   1.362  53.162  1.00  0.00     0.256 C 
HETATM    3  O1  UNL     1      27.364   2.224  53.786  1.00  0.00    -0.267 OA
ENDROOT
BRANCH   1   4
HETATM    4  C3  UNL     1      24.970   3.046  52.900  1.00  0.00     0.274 C 
HETATM    5  F1  UNL     1      23.957   3.137  53.811  1.00  0.00    -0.227 F 
BRANCH   4   6
HETATM    6  C2  UNL     1      24.477   3.691  51.597  1.00  0.00     0.055 C 
HETATM    7  C1  UNL     1      23.427   4.719  51.961  1.00  0.00     0.010 C 
ENDBRANCH   4   6
ENDBRANCH   1   4
BRANCH   1   8
HETATM    8  C4  UNL     1      24.527   0.856  51.888  1.00  0.00     0.169 C 
BRANCH   8   9
HETATM    9  C5  UNL     1      23.454   0.235  52.720  1.00  0.00    -0.021 A 
HETATM   10  C6  UNL     1      22.177   0.323  52.329  1.00  0.00    -0.001 A 
HETATM   11  C7  UNL     1      21.087  -0.268  53.102  1.00  0.00     0.055 A 
HETATM   12  C8  UNL     1      21.018  -0.968  54.224  1.00  0.00     0.051 A 
HETATM   13  S1  UNL     1      22.511  -1.150  54.862  1.00  0.00    -0.098 SA
HETATM   14  C9  UNL     1      23.699  -0.480  53.966  1.00  0.00     0.060 A 
BRANCH  10  15
HETATM   15  P1  UNL     1      21.583   1.158  50.817  1.00  0.00    -0.103 P 
HETATM   16  H9  UNL     1      20.606   0.236  50.214  1.00  0.00     0.059 HD
HETATM   17  H10 UNL     1      20.924   2.414  51.079  1.00  0.00     0.059 HD
ENDBRANCH  10  15
BRANCH  11  18
HETATM   18  N2  UNL     1      19.706  -0.208  52.776  1.00  0.00    -0.397 N 
HETATM   19  H11 UNL     1      18.845  -0.124  53.399  1.00  0.00     0.156 HD
HETATM   20  H12 UNL     1      19.225  -0.231  51.836  1.00  0.00     0.156 HD
ENDBRANCH  11  18
ENDBRANCH   8   9
ENDBRANCH   1   8
BRANCH   2  21
HETATM   21  C11 UNL     1      27.575   0.213  53.202  1.00  0.00     0.032 A 
HETATM   22  C12 UNL     1      27.094  -1.053  52.827  1.00  0.00     0.017 A 
HETATM   23  C13 UNL     1      27.945  -2.168  52.863  1.00  0.00     0.001 A 
HETATM   24  C14 UNL     1      29.247  -1.974  53.274  1.00  0.00     0.000 A 
HETATM   25  C15 UNL     1      29.761  -0.741  53.653  1.00  0.00     0.001 A 
HETATM   26  C16 UNL     1      28.884   0.342  53.604  1.00  0.00     0.017 A 
ENDBRANCH   2  21
TORSDOF 7
ENDMDL
MODEL 3
REMARK VINA RESULT:      -6.7      2.591      5.348
REMARK  7 active torsions:
REMARK  status: ('A' for Active; 'I' for Inactive)
REMARK    1  A    between atoms: C2_2  and  C3_3 
REMARK    2  A    between atoms: C3_3  and  N1_5 
REMARK    3  A    between atoms: N1_5  and  C4_6 
REMARK       I    between atoms: N1_5  and  C10_15 
REMARK    4  A    between atoms: C4_6  and  C5_7 
REMARK    5  A    between atoms: C6_8  and  P1_9 
REMARK    6  A    between atoms: C7_10  and  N2_11 
REMARK    7  A    between atoms: C10_15  and  C11_17 
ROOT
HETATM    1  N1  UNL     1      23.901   0.937  52.299  1.00  0.00    -0.313 N 
HETATM    2  C10 UNL     1      22.786   0.314  52.913  1.00  0.00     0.256 C 
HETATM    3  O1  UNL     1      22.927  -0.250  54.022  1.00  0.00    -0.267 OA
ENDROOT
BRANCH   1   4
HETATM    4  C3  UNL     1      25.144   0.889  53.035  1.00  0.00     0.274 C 
HETATM    5  F1  UNL     1      25.569   2.096  53.515  1.00  0.00    -0.227 F 
BRANCH   4   6
HETATM    6  C2  UNL     1      26.261   0.329  52.143  1.00  0.00     0.055 C 
HETATM    7  C1  UNL     1      26.509  -1.105  52.561  1.00  0.00     0.010 C 
ENDBRANCH   4   6
ENDBRANCH   1   4
BRANCH   1   8
HETATM    8  C4  UNL     1      23.945   1.624  51.026  1.00  0.00     0.169 C 
BRANCH   8   9
HETATM    9  C5  UNL     1      23.765   3.101  51.137  1.00  0.00    -0.021 A 
HETATM   10  C6  UNL     1      24.735   3.922  50.715  1.00  0.00    -0.001 A 
HETATM   11  C7  UNL     1      24.612   5.375  50.796  1.00  0.00     0.055 A 
HETATM   12  C8  UNL     1      23.670   6.204  51.220  1.00  0.00     0.051 A 
HETATM   13  S1  UNL     1      22.401   5.358  51.805  1.00  0.00    -0.098 SA
HETATM   14  C9  UNL     1      22.577   3.740  51.690  1.00  0.00     0.060 A 
BRANCH  10  15
HETATM   15  P1  UNL     1      26.325   3.399  49.984  1.00  0.00    -0.103 P 
HETATM   16  H9  UNL     1      26.485   1.983  50.358  1.00  0.00     0.059 HD
HETATM   17  H10 UNL     1      26.352   3.496  48.546  1.00  0.00     0.059 HD
ENDBRANCH  10  15
BRANCH  11  18
HETATM   18  N2  UNL     1      25.593   6.319  50.393  1.00  0.00    -0.397 N 
HETATM   19  H11 UNL     1      26.236   6.336  49.543  1.00  0.00     0.156 HD
HETATM   20  H12 UNL     1      25.902   7.219  50.850  1.00  0.00     0.156 HD
ENDBRANCH  11  18
ENDBRANCH   8   9
ENDBRANCH   1   8
BRANCH   2  21
HETATM   21  C11 UNL     1      21.387   0.101  52.631  1.00  0.00     0.032 A 
HETATM   22  C12 UNL     1      20.560  -0.517  53.584  1.00  0.00     0.017 A 
HETATM   23  C13 UNL     1      19.199  -0.719  53.309  1.00  0.00     0.001 A 
HETATM   24  C14 UNL     1      18.717  -0.294  52.089  1.00  0.00     0.000 A 
HETATM   25  C15 UNL     1      19.499   0.321  51.122  1.00  0.00     0.001 A 
HETATM   26  C16 UNL     1      20.846   0.502  51.432  1.00  0.00     0.017 A 
ENDBRANCH   2  21
TORSDOF 7
ENDMDL
MODEL 4
REMARK VINA RESULT:      -6.6      2.677      4.300
REMARK  7 active torsions:
REMARK  status: ('A' for Active; 'I' for Inactive)
REMARK    1  A    between atoms: C2_2  and  C3_3 
REMARK    2  A    between atoms: C3_3  and  N1_5 
REMARK    3  A    between atoms: N1_5  and  C4_6 
REMARK       I    between atoms: N1_5  and  C10_15 
REMARK    4  A    between atoms: C4_6  and  C5_7 
REMARK    5  A    between atoms: C6_8  and  P1_9 
REMARK    6  A    between atoms: C7_10  and  N2_11 
REMARK    7  A    between atoms: C10_15  and  C11_17 
ROOT
HETATM    1  N1  UNL     1      25.024   3.195  51.531  1.00  0.00    -0.313 N 
HETATM    2  C10 UNL     1      26.245   2.483  51.443  1.00  0.00     0.256 C 
HETATM    3  O1  UNL     1      26.921   2.544  50.391  1.00  0.00    -0.267 OA
ENDROOT
BRANCH   1   4
HETATM    4  C3  UNL     1      24.655   3.977  50.371  1.00  0.00     0.274 C 
HETATM    5  F1  UNL     1      23.916   5.092  50.647  1.00  0.00    -0.227 F 
BRANCH   4   6
HETATM    6  C2  UNL     1      23.842   3.116  49.394  1.00  0.00     0.055 C 
HETATM    7  C1  UNL     1      23.012   4.050  48.538  1.00  0.00     0.010 C 
ENDBRANCH   4   6
ENDBRANCH   1   4
BRANCH   1   8
HETATM    8  C4  UNL     1      24.101   3.243  52.644  1.00  0.00     0.169 C 
BRANCH   8   9
HETATM    9  C5  UNL     1      23.193   2.061  52.719  1.00  0.00    -0.021 A 
HETATM   10  C6  UNL     1      21.890   2.207  52.447  1.00  0.00    -0.001 A 
HETATM   11  C7  UNL     1      20.956   1.085  52.501  1.00  0.00     0.055 A 
HETATM   12  C8  UNL     1      21.072  -0.207  52.770  1.00  0.00     0.051 A 
HETATM   13  S1  UNL     1      22.619  -0.562  53.157  1.00  0.00    -0.098 SA
HETATM   14  C9  UNL     1      23.629   0.717  53.079  1.00  0.00     0.060 A 
BRANCH  10  15
HETATM   15  P1  UNL     1      21.072   3.769  51.973  1.00  0.00    -0.103 P 
HETATM   16  H9  UNL     1      20.694   3.603  50.559  1.00  0.00     0.059 HD
HETATM   17  H10 UNL     1      19.879   4.044  52.734  1.00  0.00     0.059 HD
ENDBRANCH  10  15
BRANCH  11  18
HETATM   18  N2  UNL     1      19.560   1.150  52.250  1.00  0.00    -0.397 N 
HETATM   19  H11 UNL     1      18.990   1.820  51.647  1.00  0.00     0.156 HD
HETATM   20  H12 UNL     1      18.773   0.541  52.605  1.00  0.00     0.156 HD
ENDBRANCH  11  18
ENDBRANCH   8   9
ENDBRANCH   1   8
BRANCH   2  21
HETATM   21  C11 UNL     1      27.041   1.614  52.275  1.00  0.00     0.032 A 
HETATM   22  C12 UNL     1      27.946   2.158  53.203  1.00  0.00     0.017 A 
HETATM   23  C13 UNL     1      28.717   1.310  54.014  1.00  0.00     0.001 A 
HETATM   24  C14 UNL     1      28.551  -0.050  53.867  1.00  0.00     0.000 A 
HETATM   25  C15 UNL     1      27.668  -0.627  52.964  1.00  0.00     0.001 A 
HETATM   26  C16 UNL     1      26.922   0.248  52.176  1.00  0.00     0.017 A 
ENDBRANCH   2  21
TORSDOF 7
ENDMDL
MODEL 5
REMARK VINA RESULT:      -6.6      2.888      6.152
REMARK  7 active torsions:
REMARK  status: ('A' for Active; 'I' for Inactive)
REMARK    1  A    between atoms: C2_2  and  C3_3 
REMARK    2  A    between atoms: C3_3  and  N1_5 
REMARK    3  A    between atoms: N1_5  and  C4_6 
REMARK       I    between atoms: N1_5  and  C10_15 
REMARK    4  A    between atoms: C4_6  and  C5_7 
REMARK    5  A    between atoms: C6_8  and  P1_9 
REMARK    6  A    between atoms: C7_10  and  N2_11 
REMARK    7  A    between atoms: C10_15  and  C11_17 
ROOT
HETATM    1  N1  UNL     1      24.772   1.547  52.074  1.00  0.00    -0.313 N 
HETATM    2  C10 UNL     1      23.454   1.042  51.957  1.00  0.00     0.256 C 
HETATM    3  O1  UNL     1      22.818   1.217  50.891  1.00  0.00    -0.267 OA
ENDROOT
BRANCH   1   4
HETATM    4  C3  UNL     1      25.303   2.225  50.912  1.00  0.00     0.274 C 
HETATM    5  F1  UNL     1      26.643   2.050  50.713  1.00  0.00    -0.227 F 
BRANCH   4   6
HETATM    6  C2  UNL     1      25.047   3.735  51.023  1.00  0.00     0.055 C 
HETATM    7  C1  UNL     1      25.699   4.401  49.828  1.00  0.00     0.010 C 
ENDBRANCH   4   6
ENDBRANCH   1   4
BRANCH   1   8
HETATM    8  C4  UNL     1      25.658   1.460  53.215  1.00  0.00     0.169 C 
BRANCH   8   9
HETATM    9  C5  UNL     1      26.622   0.323  53.139  1.00  0.00    -0.021 A 
HETATM   10  C6  UNL     1      27.921   0.537  53.383  1.00  0.00    -0.001 A 
HETATM   11  C7  UNL     1      28.908  -0.538  53.325  1.00  0.00     0.055 A 
HETATM   12  C8  UNL     1      28.851  -1.838  53.076  1.00  0.00     0.051 A 
HETATM   13  S1  UNL     1      27.317  -2.274  52.725  1.00  0.00    -0.098 SA
HETATM   14  C9  UNL     1      26.246  -1.045  52.806  1.00  0.00     0.060 A 
BRANCH  10  15
HETATM   15  P1  UNL     1      28.669   2.145  53.820  1.00  0.00    -0.103 P 
HETATM   16  H9  UNL     1      29.916   2.225  53.040  1.00  0.00     0.059 HD
HETATM   17  H10 UNL     1      27.841   3.273  53.475  1.00  0.00     0.059 HD
ENDBRANCH  10  15
BRANCH  11  18
HETATM   18  N2  UNL     1      30.304  -0.401  53.549  1.00  0.00    -0.397 N 
HETATM   19  H11 UNL     1      31.111  -0.279  52.864  1.00  0.00     0.156 HD
HETATM   20  H12 UNL     1      30.852  -0.389  54.451  1.00  0.00     0.156 HD
ENDBRANCH  11  18
ENDBRANCH   8   9
ENDBRANCH   1   8
BRANCH   2  21
HETATM   21  C11 UNL     1      22.509   0.311  52.766  1.00  0.00     0.032 A 
HETATM   22  C12 UNL     1      22.954  -0.438  53.868  1.00  0.00     0.017 A 
HETATM   23  C13 UNL     1      22.033  -1.145  54.657  1.00  0.00     0.001 A 
HETATM   24  C14 UNL     1      20.700  -1.074  54.312  1.00  0.00     0.000 A 
HETATM   25  C15 UNL     1      20.220  -0.345  53.232  1.00  0.00     0.001 A 
HETATM   26  C16 UNL     1      21.167   0.342  52.473  1.00  0.00     0.017 A 
ENDBRANCH   2  21
TORSDOF 7
ENDMDL
MODEL 6
REMARK VINA RESULT:      -6.6      2.907      5.747
REMARK  7 active torsions:
REMARK  status: ('A' for Active; 'I' for Inactive)
REMARK    1  A    between atoms: C2_2  and  C3_3 
REMARK    2  A    between atoms: C3_3  and  N1_5 
REMARK    3  A    between atoms: N1_5  and  C4_6 
REMARK       I    between atoms: N1_5  and  C10_15 
REMARK    4  A    between atoms: C4_6  and  C5_7 
REMARK    5  A    between atoms: C6_8  and  P1_9 
REMARK    6  A    between atoms: C7_10  and  N2_11 
REMARK    7  A    between atoms: C10_15  and  C11_17 
ROOT
HETATM    1  N1  UNL     1      24.778   2.048  51.795  1.00  0.00    -0.313 N 
HETATM    2  C10 UNL     1      24.727   3.366  51.278  1.00  0.00     0.256 C 
HETATM    3  O1  UNL     1      23.804   4.134  51.634  1.00  0.00    -0.267 OA
ENDROOT
BRANCH   1   4
HETATM    4  C3  UNL     1      23.741   1.691  52.737  1.00  0.00     0.274 C 
HETATM    5  F1  UNL     1      24.146   0.860  53.742  1.00  0.00    -0.227 F 
BRANCH   4   6
HETATM    6  C2  UNL     1      22.583   0.998  52.005  1.00  0.00     0.055 C 
HETATM    7  C1  UNL     1      21.384   1.003  52.931  1.00  0.00     0.010 C 
ENDBRANCH   4   6
ENDBRANCH   1   4
BRANCH   1   8
HETATM    8  C4  UNL     1      25.748   1.015  51.500  1.00  0.00     0.169 C 
BRANCH   8   9
HETATM    9  C5  UNL     1      26.945   1.048  52.391  1.00  0.00    -0.021 A 
HETATM   10  C6  UNL     1      27.488  -0.100  52.816  1.00  0.00    -0.001 A 
HETATM   11  C7  UNL     1      28.660  -0.129  53.686  1.00  0.00     0.055 A 
HETATM   12  C8  UNL     1      29.438   0.798  54.226  1.00  0.00     0.051 A 
HETATM   13  S1  UNL     1      28.895   2.286  53.827  1.00  0.00    -0.098 SA
HETATM   14  C9  UNL     1      27.588   2.273  52.850  1.00  0.00     0.060 A 
BRANCH  10  15
HETATM   15  P1  UNL     1      26.890  -1.775  52.399  1.00  0.00    -0.103 P 
HETATM   16  H9  UNL     1      25.841  -2.077  53.389  1.00  0.00     0.059 HD
HETATM   17  H10 UNL     1      26.313  -1.865  51.081  1.00  0.00     0.059 HD
ENDBRANCH  10  15
BRANCH  11  18
HETATM   18  N2  UNL     1      29.289  -1.294  54.200  1.00  0.00    -0.397 N 
HETATM   19  H11 UNL     1      28.889  -2.122  54.739  1.00  0.00     0.156 HD
HETATM   20  H12 UNL     1      30.299  -1.599  54.157  1.00  0.00     0.156 HD
ENDBRANCH  11  18
ENDBRANCH   8   9
ENDBRANCH   1   8
BRANCH   2  21
HETATM   21  C11 UNL     1      25.487   4.192  50.372  1.00  0.00     0.032 A 
HETATM   22  C12 UNL     1      25.133   5.538  50.176  1.00  0.00     0.017 A 
HETATM   23  C13 UNL     1      25.876   6.341  49.297  1.00  0.00     0.001 A 
HETATM   24  C14 UNL     1      26.947   5.765  48.647  1.00  0.00     0.000 A 
HETATM   25  C15 UNL     1      27.330   4.442  48.813  1.00  0.00     0.001 A 
HETATM   26  C16 UNL     1      26.566   3.677  49.693  1.00  0.00     0.017 A 
ENDBRANCH   2  21
TORSDOF 7
ENDMDL
MODEL 7
REMARK VINA RESULT:      -6.5      2.778      5.713
REMARK  7 active torsions:
REMARK  status: ('A' for Active; 'I' for Inactive)
REMARK    1  A    between atoms: C2_2  and  C3_3 
REMARK    2  A    between atoms: C3_3  and  N1_5 
REMARK    3  A    between atoms: N1_5  and  C4_6 
REMARK       I    between atoms: N1_5  and  C10_15 
REMARK    4  A    between atoms: C4_6  and  C5_7 
REMARK    5  A    between atoms: C6_8  and  P1_9 
REMARK    6  A    between atoms: C7_10  and  N2_11 
REMARK    7  A    between atoms: C10_15  and  C11_17 
ROOT
HETATM    1  N1  UNL     1      25.888   2.557  51.725  1.00  0.00    -0.313 N 
HETATM    2  C10 UNL     1      25.868   3.082  50.409  1.00  0.00     0.256 C 
HETATM    3  O1  UNL     1      26.775   2.766  49.604  1.00  0.00    -0.267 OA
ENDROOT
BRANCH   1   4
HETATM    4  C3  UNL     1      26.974   1.655  52.037  1.00  0.00     0.274 C 
HETATM    5  F1  UNL     1      26.720   0.341  51.765  1.00  0.00    -0.227 F 
BRANCH   4   6
HETATM    6  C2  UNL     1      27.330   1.757  53.527  1.00  0.00     0.055 C 
HETATM    7  C1  UNL     1      28.665   2.462  53.635  1.00  0.00     0.010 C 
ENDBRANCH   4   6
ENDBRANCH   1   4
BRANCH   1   8
HETATM    8  C4  UNL     1      24.947   2.808  52.795  1.00  0.00     0.169 C 
BRANCH   8   9
HETATM    9  C5  UNL     1      23.630   2.133  52.604  1.00  0.00    -0.021 A 
HETATM   10  C6  UNL     1      22.531   2.870  52.395  1.00  0.00    -0.001 A 
HETATM   11  C7  UNL     1      21.217   2.263  52.199  1.00  0.00     0.055 A 
HETATM   12  C8  UNL     1      20.767   1.018  52.154  1.00  0.00     0.051 A 
HETATM   13  S1  UNL     1      21.991  -0.030  52.422  1.00  0.00    -0.098 SA
HETATM   14  C9  UNL     1      23.441   0.688  52.631  1.00  0.00     0.060 A 
BRANCH  10  15
HETATM   15  P1  UNL     1      22.474   4.693  52.314  1.00  0.00    -0.103 P 
HETATM   16  H9  UNL     1      23.821   5.148  52.703  1.00  0.00     0.059 HD
HETATM   17  H10 UNL     1      22.185   5.198  50.995  1.00  0.00     0.059 HD
ENDBRANCH  10  15
BRANCH  11  18
HETATM   18  N2  UNL     1      19.999   2.963  51.991  1.00  0.00    -0.397 N 
HETATM   19  H11 UNL     1      19.766   3.999  52.078  1.00  0.00     0.156 HD
HETATM   20  H12 UNL     1      19.048   2.606  51.700  1.00  0.00     0.156 HD
ENDBRANCH  11  18
ENDBRANCH   8   9
ENDBRANCH   1   8
BRANCH   2  21
HETATM   21  C11 UNL     1      25.042   3.961  49.618  1.00  0.00     0.032 A 
HETATM   22  C12 UNL     1      23.840   3.491  49.061  1.00  0.00     0.017 A 
HETATM   23  C13 UNL     1      23.037   4.350  48.295  1.00  0.00     0.001 A 
HETATM   24  C14 UNL     1      23.467   5.648  48.116  1.00  0.00     0.000 A 
HETATM   25  C15 UNL     1      24.646   6.151  48.649  1.00  0.00     0.001 A 
HETATM   26  C16 UNL     1      25.416   5.266  49.402  1.00  0.00     0.017 A 
ENDBRANCH   2  21
TORSDOF 7
ENDMDL
MODEL 8
REMARK VINA RESULT:      -6.2      3.235      5.131
REMARK  7 active torsions:
REMARK  status: ('A' for Active; 'I' for Inactive)
REMARK    1  A    between atoms: C2_2  and  C3_3 
REMARK    2  A    between atoms: C3_3  and  N1_5 
REMARK    3  A    between atoms: N1_5  and  C4_6 
REMARK       I    between atoms: N1_5  and  C10_15 
REMARK    4  A    between atoms: C4_6  and  C5_7 
REMARK    5  A    between atoms: C6_8  and  P1_9 
REMARK    6  A    between atoms: C7_10  and  N2_11 
REMARK    7  A    between atoms: C10_15  and  C11_17 
ROOT
HETATM    1  N1  UNL     1      23.083   2.283  52.079  1.00  0.00    -0.313 N 
HETATM    2  C10 UNL     1      24.346   2.300  52.719  1.00  0.00     0.256 C 
HETATM    3  O1  UNL     1      24.771   3.367  53.220  1.00  0.00    -0.267 OA
ENDROOT
BRANCH   1   4
HETATM    4  C3  UNL     1      22.352   3.531  52.074  1.00  0.00     0.274 C 
HETATM    5  F1  UNL     1      21.223   3.534  52.843  1.00  0.00    -0.227 F 
BRANCH   4   6
HETATM    6  C2  UNL     1      21.933   3.889  50.641  1.00  0.00     0.055 C 
HETATM    7  C1  UNL     1      20.768   4.853  50.729  1.00  0.00     0.010 C 
ENDBRANCH   4   6
ENDBRANCH   1   4
BRANCH   1   8
HETATM    8  C4  UNL     1      22.428   1.165  51.434  1.00  0.00     0.169 C 
BRANCH   8   9
HETATM    9  C5  UNL     1      21.787   0.216  52.391  1.00  0.00    -0.021 A 
HETATM   10  C6  UNL     1      20.452   0.117  52.433  1.00  0.00    -0.001 A 
HETATM   11  C7  UNL     1      19.771  -0.797  53.347  1.00  0.00     0.055 A 
HETATM   12  C8  UNL     1      20.174  -1.676  54.252  1.00  0.00     0.051 A 
HETATM   13  S1  UNL     1      21.804  -1.668  54.353  1.00  0.00    -0.098 SA
HETATM   14  C9  UNL     1      22.526  -0.638  53.313  1.00  0.00     0.060 A 
BRANCH  10  15
HETATM   15  P1  UNL     1      19.283   1.064  51.397  1.00  0.00    -0.103 P 
HETATM   16  H9  UNL     1      18.026   1.110  52.163  1.00  0.00     0.059 HD
HETATM   17  H10 UNL     1      19.712   2.416  51.143  1.00  0.00     0.059 HD
ENDBRANCH  10  15
BRANCH  11  18
HETATM   18  N2  UNL     1      18.365  -0.953  53.475  1.00  0.00    -0.397 N 
HETATM   19  H11 UNL     1      17.787  -1.735  53.913  1.00  0.00     0.156 HD
HETATM   20  H12 UNL     1      17.577  -0.323  53.163  1.00  0.00     0.156 HD
ENDBRANCH  11  18
ENDBRANCH   8   9
ENDBRANCH   1   8
BRANCH   2  21
HETATM   21  C11 UNL     1      25.415   1.375  53.006  1.00  0.00     0.032 A 
HETATM   22  C12 UNL     1      25.896   0.517  52.002  1.00  0.00     0.017 A 
HETATM   23  C13 UNL     1      26.939  -0.380  52.283  1.00  0.00     0.001 A 
HETATM   24  C14 UNL     1      27.462  -0.382  53.559  1.00  0.00     0.000 A 
HETATM   25  C15 UNL     1      27.016   0.449  54.577  1.00  0.00     0.001 A 
HETATM   26  C16 UNL     1      25.978   1.324  54.259  1.00  0.00     0.017 A 
ENDBRANCH   2  21
TORSDOF 7
ENDMDL
MODEL 9
REMARK VINA RESULT:      -6.2      2.016      4.490
REMARK  7 active torsions:
REMARK  status: ('A' for Active; 'I' for Inactive)
REMARK    1  A    between atoms: C2_2  and  C3_3 
REMARK    2  A    between atoms: C3_3  and  N1_5 
REMARK    3  A    between atoms: N1_5  and  C4_6 
REMARK       I    between atoms: N1_5  and  C10_15 
REMARK    4  A    between atoms: C4_6  and  C5_7 
REMARK    5  A    between atoms: C6_8  and  P1_9 
REMARK    6  A    between atoms: C7_10  and  N2_11 
REMARK    7  A    between atoms: C10_15  and  C11_17 
ROOT
HETATM    1  N1  UNL     1      24.680   1.519  51.737  1.00  0.00    -0.313 N 
HETATM    2  C10 UNL     1      24.140   0.644  52.711  1.00  0.00     0.256 C 
HETATM    3  O1  UNL     1      24.904   0.087  53.533  1.00  0.00    -0.267 OA
ENDROOT
BRANCH   1   4
HETATM    4  C3  UNL     1      26.111   1.724  51.785  1.00  0.00     0.274 C 
HETATM    5  F1  UNL     1      26.855   0.604  51.543  1.00  0.00    -0.227 F 
BRANCH   4   6
HETATM    6  C2  UNL     1      26.519   2.258  53.165  1.00  0.00     0.055 C 
HETATM    7  C1  UNL     1      28.032   2.231  53.240  1.00  0.00     0.010 C 
ENDBRANCH   4   6
ENDBRANCH   1   4
BRANCH   1   8
HETATM    8  C4  UNL     1      23.972   2.242  50.703  1.00  0.00     0.169 C 
BRANCH   8   9
HETATM    9  C5  UNL     1      24.524   3.604  50.441  1.00  0.00    -0.021 A 
HETATM   10  C6  UNL     1      24.039   4.657  51.113  1.00  0.00    -0.001 A 
HETATM   11  C7  UNL     1      24.542   6.011  50.900  1.00  0.00     0.055 A 
HETATM   12  C8  UNL     1      25.480   6.543  50.129  1.00  0.00     0.051 A 
HETATM   13  S1  UNL     1      26.168   5.384  49.206  1.00  0.00    -0.098 SA
HETATM   14  C9  UNL     1      25.581   3.886  49.478  1.00  0.00     0.060 A 
BRANCH  10  15
HETATM   15  P1  UNL     1      22.717   4.596  52.371  1.00  0.00    -0.103 P 
HETATM   16  H9  UNL     1      21.454   4.548  51.614  1.00  0.00     0.059 HD
HETATM   17  H10 UNL     1      22.786   3.431  53.217  1.00  0.00     0.059 HD
ENDBRANCH  10  15
BRANCH  11  18
HETATM   18  N2  UNL     1      24.077   7.185  51.549  1.00  0.00    -0.397 N 
HETATM   19  H11 UNL     1      23.381   7.928  51.233  1.00  0.00     0.156 HD
HETATM   20  H12 UNL     1      24.317   7.581  52.498  1.00  0.00     0.156 HD
ENDBRANCH  11  18
ENDBRANCH   8   9
ENDBRANCH   1   8
BRANCH   2  21
HETATM   21  C11 UNL     1      22.846   0.135  53.096  1.00  0.00     0.032 A 
HETATM   22  C12 UNL     1      22.742  -0.858  54.084  1.00  0.00     0.017 A 
HETATM   23  C13 UNL     1      21.481  -1.348  54.460  1.00  0.00     0.001 A 
HETATM   24  C14 UNL     1      20.372  -0.824  53.831  1.00  0.00     0.000 A 
HETATM   25  C15 UNL     1      20.431   0.158  52.852  1.00  0.00     0.001 A 
HETATM   26  C16 UNL     1      21.702   0.617  52.506  1.00  0.00     0.017 A 
ENDBRANCH   2  21
TORSDOF 7
ENDMDL
