MODEL 1
REMARK VINA RESULT:      -7.5      0.000      0.000
REMARK  4 active torsions:
REMARK  status: ('A' for Active; 'I' for Inactive)
REMARK    1  A    between atoms: N1_7  and  C6_8 
REMARK    2  A    between atoms: C6_8  and  C7_9 
REMARK    3  A    between atoms: C8_10  and  C9_11 
REMARK    4  A    between atoms: C9_11  and  C10_13 
ROOT
HETATM    1  C9  UNL     1      22.630  -1.123  54.563  1.00  0.00     0.235 C 
HETATM    2  O2  UNL     1      22.365  -2.025  55.415  1.00  0.00    -0.278 OA
ENDROOT
BRANCH   1   3
HETATM    3  C8  UNL     1      23.968  -0.644  54.530  1.00  0.00    -0.022 C 
HETATM    4  C7  UNL     1      25.088  -0.219  54.503  1.00  0.00    -0.079 C 
BRANCH   4   5
HETATM    5  C6  UNL     1      26.455   0.321  54.485  1.00  0.00     0.212 C 
BRANCH   5   6
HETATM    6  N1  UNL     1      27.344  -0.685  54.005  1.00  0.00    -0.395 N 
HETATM    7  C2  UNL     1      28.732  -0.330  54.116  1.00  0.00     0.099 C 
HETATM    8  C1  UNL     1      29.100   0.967  53.455  1.00  0.00     0.034 C 
HETATM    9  C3  UNL     1      29.614  -1.408  53.584  1.00  0.00     0.192 C 
HETATM   10  O1  UNL     1      28.916  -2.600  53.476  1.00  0.00    -0.388 OA
HETATM   11  C4  UNL     1      27.852  -2.544  52.586  1.00  0.00     0.187 C 
HETATM   12  C5  UNL     1      26.964  -1.349  52.809  1.00  0.00     0.144 C 
ENDBRANCH   5   6
ENDBRANCH   4   5
ENDBRANCH   1   3
BRANCH   1  13
HETATM   13  C10 UNL     1      21.596  -0.620  53.672  1.00  0.00     0.021 C 
HETATM   14  C11 UNL     1      20.322  -0.987  53.890  1.00  0.00     0.018 C 
HETATM   15  C12 UNL     1      19.079  -0.634  53.083  1.00  0.00     0.320 C 
HETATM   16  N2  UNL     1      19.367  -0.029  52.023  1.00  0.00    -0.405 NA
HETATM   17  C13 UNL     1      18.696   0.518  50.929  1.00  0.00     0.765 C 
HETATM   18  N3  UNL     1      19.126   1.738  51.253  1.00  0.00     0.043 NA
HETATM   19  C14 UNL     1      19.929   1.913  52.383  1.00  0.00     0.280 C 
HETATM   20  C15 UNL     1      21.341   1.621  52.343  1.00  0.00     0.003 C 
HETATM   21  C16 UNL     1      22.011   0.572  52.900  1.00  0.00     0.013 C 
ENDBRANCH   1  13
TORSDOF 4
ENDMDL
MODEL 2
REMARK VINA RESULT:      -7.3      1.581      2.547
REMARK  4 active torsions:
REMARK  status: ('A' for Active; 'I' for Inactive)
REMARK    1  A    between atoms: N1_7  and  C6_8 
REMARK    2  A    between atoms: C6_8  and  C7_9 
REMARK    3  A    between atoms: C8_10  and  C9_11 
REMARK    4  A    between atoms: C9_11  and  C10_13 
ROOT
HETATM    1  C9  UNL     1      22.450  -0.485  54.233  1.00  0.00     0.235 C 
HETATM    2  O2  UNL     1      22.170  -1.038  55.340  1.00  0.00    -0.278 OA
ENDROOT
BRANCH   1   3
HETATM    3  C8  UNL     1      23.776  -0.651  53.749  1.00  0.00    -0.022 C 
HETATM    4  C7  UNL     1      24.895  -0.810  53.350  1.00  0.00    -0.079 C 
BRANCH   4   5
HETATM    5  C6  UNL     1      26.261  -1.030  52.857  1.00  0.00     0.212 C 
BRANCH   5   6
HETATM    6  N1  UNL     1      27.117  -0.026  53.399  1.00  0.00    -0.395 N 
HETATM    7  C2  UNL     1      26.788   1.306  52.971  1.00  0.00     0.099 C 
HETATM    8  C1  UNL     1      26.744   1.490  51.482  1.00  0.00     0.034 C 
HETATM    9  C3  UNL     1      27.723   2.311  53.552  1.00  0.00     0.192 C 
HETATM   10  O1  UNL     1      28.412   1.771  54.627  1.00  0.00    -0.388 OA
HETATM   11  C4  UNL     1      29.218   0.694  54.290  1.00  0.00     0.187 C 
HETATM   12  C5  UNL     1      28.501  -0.338  53.461  1.00  0.00     0.144 C 
ENDBRANCH   5   6
ENDBRANCH   4   5
ENDBRANCH   1   3
BRANCH   1  13
HETATM   13  C10 UNL     1      21.443   0.277  53.512  1.00  0.00     0.021 C 
HETATM   14  C11 UNL     1      21.845   1.230  52.654  1.00  0.00     0.018 C 
HETATM   15  C12 UNL     1      20.996   2.182  51.823  1.00  0.00     0.320 C 
HETATM   16  N2  UNL     1      19.779   2.102  52.117  1.00  0.00    -0.405 NA
HETATM   17  C13 UNL     1      18.579   2.693  51.725  1.00  0.00     0.765 C 
HETATM   18  N3  UNL     1      18.124   1.518  51.285  1.00  0.00     0.043 NA
HETATM   19  C14 UNL     1      18.930   0.382  51.383  1.00  0.00     0.280 C 
HETATM   20  C15 UNL     1      19.057  -0.335  52.628  1.00  0.00     0.003 C 
HETATM   21  C16 UNL     1      20.116  -0.376  53.485  1.00  0.00     0.013 C 
ENDBRANCH   1  13
TORSDOF 4
ENDMDL
MODEL 3
REMARK VINA RESULT:      -7.1      3.010      7.096
REMARK  4 active torsions:
REMARK  status: ('A' for Active; 'I' for Inactive)
REMARK    1  A    between atoms: N1_7  and  C6_8 
REMARK    2  A    between atoms: C6_8  and  C7_9 
REMARK    3  A    between atoms: C8_10  and  C9_11 
REMARK    4  A    between atoms: C9_11  and  C10_13 
ROOT
HETATM    1  C9  UNL     1      24.225  -0.496  54.096  1.00  0.00     0.235 C 
HETATM    2  O2  UNL     1      23.592  -1.256  54.890  1.00  0.00    -0.278 OA
ENDROOT
BRANCH   1   3
HETATM    3  C8  UNL     1      23.463   0.466  53.380  1.00  0.00    -0.022 C 
HETATM    4  C7  UNL     1      22.838   1.289  52.773  1.00  0.00    -0.079 C 
BRANCH   4   5
HETATM    5  C6  UNL     1      22.092   2.303  52.016  1.00  0.00     0.212 C 
BRANCH   5   6
HETATM    6  N1  UNL     1      22.958   2.887  51.045  1.00  0.00    -0.395 N 
HETATM    7  C2  UNL     1      23.941   3.773  51.605  1.00  0.00     0.099 C 
HETATM    8  C1  UNL     1      23.376   4.880  52.446  1.00  0.00     0.034 C 
HETATM    9  C3  UNL     1      24.806   4.367  50.546  1.00  0.00     0.192 C 
HETATM   10  O1  UNL     1      24.700   3.644  49.369  1.00  0.00    -0.388 OA
HETATM   11  C4  UNL     1      23.423   3.648  48.824  1.00  0.00     0.187 C 
HETATM   12  C5  UNL     1      22.356   3.311  49.831  1.00  0.00     0.144 C 
ENDBRANCH   5   6
ENDBRANCH   4   5
ENDBRANCH   1   3
BRANCH   1  13
HETATM   13  C10 UNL     1      25.667  -0.624  53.944  1.00  0.00     0.021 C 
HETATM   14  C11 UNL     1      26.147  -1.407  52.964  1.00  0.00     0.018 C 
HETATM   15  C12 UNL     1      27.596  -1.734  52.630  1.00  0.00     0.320 C 
HETATM   16  N2  UNL     1      28.387  -1.288  53.496  1.00  0.00    -0.405 NA
HETATM   17  C13 UNL     1      29.761  -1.274  53.732  1.00  0.00     0.765 C 
HETATM   18  N3  UNL     1      29.784   0.056  53.624  1.00  0.00     0.043 NA
HETATM   19  C14 UNL     1      28.603   0.750  53.351  1.00  0.00     0.280 C 
HETATM   20  C15 UNL     1      27.646   1.029  54.393  1.00  0.00     0.003 C 
HETATM   21  C16 UNL     1      26.428   0.457  54.609  1.00  0.00     0.013 C 
ENDBRANCH   1  13
TORSDOF 4
ENDMDL
MODEL 4
REMARK VINA RESULT:      -7.1      2.562      7.873
REMARK  4 active torsions:
REMARK  status: ('A' for Active; 'I' for Inactive)
REMARK    1  A    between atoms: N1_7  and  C6_8 
REMARK    2  A    between atoms: C6_8  and  C7_9 
REMARK    3  A    between atoms: C8_10  and  C9_11 
REMARK    4  A    between atoms: C9_11  and  C10_13 
ROOT
HETATM    1  C9  UNL     1      25.786   2.566  51.133  1.00  0.00     0.235 C 
HETATM    2  O2  UNL     1      26.107   3.660  50.576  1.00  0.00    -0.278 OA
ENDROOT
BRANCH   1   3
HETATM    3  C8  UNL     1      24.428   2.164  51.024  1.00  0.00    -0.022 C 
HETATM    4  C7  UNL     1      23.285   1.819  50.912  1.00  0.00    -0.079 C 
BRANCH   4   5
HETATM    5  C6  UNL     1      21.892   1.380  50.757  1.00  0.00     0.212 C 
BRANCH   5   6
HETATM    6  N1  UNL     1      21.512   0.630  51.909  1.00  0.00    -0.395 N 
HETATM    7  C2  UNL     1      20.109   0.324  51.964  1.00  0.00     0.099 C 
HETATM    8  C1  UNL     1      19.206   1.520  51.871  1.00  0.00     0.034 C 
HETATM    9  C3  UNL     1      19.765  -0.443  53.195  1.00  0.00     0.192 C 
HETATM   10  O1  UNL     1      20.906  -0.986  53.764  1.00  0.00    -0.388 OA
HETATM   11  C4  UNL     1      21.825  -0.035  54.187  1.00  0.00     0.187 C 
HETATM   12  C5  UNL     1      22.117   1.005  53.138  1.00  0.00     0.144 C 
ENDBRANCH   5   6
ENDBRANCH   4   5
ENDBRANCH   1   3
BRANCH   1  13
HETATM   13  C10 UNL     1      26.782   1.778  51.843  1.00  0.00     0.021 C 
HETATM   14  C11 UNL     1      27.518   2.374  52.796  1.00  0.00     0.018 C 
HETATM   15  C12 UNL     1      28.639   1.784  53.641  1.00  0.00     0.320 C 
HETATM   16  N2  UNL     1      28.952   0.630  53.262  1.00  0.00    -0.405 NA
HETATM   17  C13 UNL     1      29.862  -0.365  53.619  1.00  0.00     0.765 C 
HETATM   18  N3  UNL     1      28.862  -1.190  53.935  1.00  0.00     0.043 NA
HETATM   19  C14 UNL     1      27.540  -0.760  53.803  1.00  0.00     0.280 C 
HETATM   20  C15 UNL     1      26.886  -0.749  52.518  1.00  0.00     0.003 C 
HETATM   21  C16 UNL     1      26.568   0.318  51.731  1.00  0.00     0.013 C 
ENDBRANCH   1  13
TORSDOF 4
ENDMDL
MODEL 5
REMARK VINA RESULT:      -7.1      3.155      8.129
REMARK  4 active torsions:
REMARK  status: ('A' for Active; 'I' for Inactive)
REMARK    1  A    between atoms: N1_7  and  C6_8 
REMARK    2  A    between atoms: C6_8  and  C7_9 
REMARK    3  A    between atoms: C8_10  and  C9_11 
REMARK    4  A    between atoms: C9_11  and  C10_13 
ROOT
HETATM    1  C9  UNL     1      26.231   2.856  50.577  1.00  0.00     0.235 C 
HETATM    2  O2  UNL     1      26.971   3.641  49.909  1.00  0.00    -0.278 OA
ENDROOT
BRANCH   1   3
HETATM    3  C8  UNL     1      24.861   2.792  50.204  1.00  0.00    -0.022 C 
HETATM    4  C7  UNL     1      23.710   2.750  49.873  1.00  0.00    -0.079 C 
BRANCH   4   5
HETATM    5  C6  UNL     1      22.306   2.698  49.442  1.00  0.00     0.212 C 
BRANCH   5   6
HETATM    6  N1  UNL     1      21.465   2.838  50.585  1.00  0.00    -0.395 N 
HETATM    7  C2  UNL     1      21.534   1.727  51.493  1.00  0.00     0.099 C 
HETATM    8  C1  UNL     1      21.248   0.392  50.868  1.00  0.00     0.034 C 
HETATM    9  C3  UNL     1      20.623   1.918  52.658  1.00  0.00     0.192 C 
HETATM   10  O1  UNL     1      20.243   3.246  52.765  1.00  0.00    -0.388 OA
HETATM   11  C4  UNL     1      19.521   3.710  51.674  1.00  0.00     0.187 C 
HETATM   12  C5  UNL     1      20.172   3.380  50.358  1.00  0.00     0.144 C 
ENDBRANCH   5   6
ENDBRANCH   4   5
ENDBRANCH   1   3
BRANCH   1  13
HETATM   13  C10 UNL     1      26.784   2.068  51.668  1.00  0.00     0.021 C 
HETATM   14  C11 UNL     1      27.706   2.630  52.468  1.00  0.00     0.018 C 
HETATM   15  C12 UNL     1      28.458   2.007  53.637  1.00  0.00     0.320 C 
HETATM   16  N2  UNL     1      28.236   0.776  53.732  1.00  0.00    -0.405 NA
HETATM   17  C13 UNL     1      28.622  -0.283  54.552  1.00  0.00     0.765 C 
HETATM   18  N3  UNL     1      27.362  -0.447  54.962  1.00  0.00     0.043 NA
HETATM   19  C14 UNL     1      26.360   0.394  54.474  1.00  0.00     0.280 C 
HETATM   20  C15 UNL     1      25.776   0.179  53.173  1.00  0.00     0.003 C 
HETATM   21  C16 UNL     1      25.955   0.897  52.028  1.00  0.00     0.013 C 
ENDBRANCH   1  13
TORSDOF 4
ENDMDL
MODEL 6
REMARK VINA RESULT:      -7.0      4.159      7.591
REMARK  4 active torsions:
REMARK  status: ('A' for Active; 'I' for Inactive)
REMARK    1  A    between atoms: N1_7  and  C6_8 
REMARK    2  A    between atoms: C6_8  and  C7_9 
REMARK    3  A    between atoms: C8_10  and  C9_11 
REMARK    4  A    between atoms: C9_11  and  C10_13 
ROOT
HETATM    1  C9  UNL     1      23.899   0.914  53.110  1.00  0.00     0.235 C 
HETATM    2  O2  UNL     1      22.993   0.045  53.295  1.00  0.00    -0.278 OA
ENDROOT
BRANCH   1   3
HETATM    3  C8  UNL     1      23.481   2.189  52.644  1.00  0.00    -0.022 C 
HETATM    4  C7  UNL     1      23.135   3.274  52.269  1.00  0.00    -0.079 C 
BRANCH   4   5
HETATM    5  C6  UNL     1      22.730   4.614  51.823  1.00  0.00     0.212 C 
BRANCH   5   6
HETATM    6  N1  UNL     1      23.782   5.182  51.046  1.00  0.00    -0.395 N 
HETATM    7  C2  UNL     1      23.848   6.616  51.123  1.00  0.00     0.099 C 
HETATM    8  C1  UNL     1      22.572   7.320  50.760  1.00  0.00     0.034 C 
HETATM    9  C3  UNL     1      24.952   7.156  50.280  1.00  0.00     0.192 C 
HETATM   10  O1  UNL     1      25.849   6.153  49.950  1.00  0.00    -0.388 OA
HETATM   11  C4  UNL     1      25.292   5.133  49.191  1.00  0.00     0.187 C 
HETATM   12  C5  UNL     1      24.000   4.616  49.763  1.00  0.00     0.144 C 
ENDBRANCH   5   6
ENDBRANCH   4   5
ENDBRANCH   1   3
BRANCH   1  13
HETATM   13  C10 UNL     1      25.294   0.594  53.372  1.00  0.00     0.021 C 
HETATM   14  C11 UNL     1      25.815  -0.518  52.826  1.00  0.00     0.018 C 
HETATM   15  C12 UNL     1      27.219  -1.086  52.982  1.00  0.00     0.320 C 
HETATM   16  N2  UNL     1      27.883  -0.462  53.844  1.00  0.00    -0.405 NA
HETATM   17  C13 UNL     1      29.159  -0.513  54.403  1.00  0.00     0.765 C 
HETATM   18  N3  UNL     1      29.443   0.695  53.912  1.00  0.00     0.043 NA
HETATM   19  C14 UNL     1      28.487   1.377  53.154  1.00  0.00     0.280 C 
HETATM   20  C15 UNL     1      27.403   2.086  53.789  1.00  0.00     0.003 C 
HETATM   21  C16 UNL     1      26.084   1.749  53.852  1.00  0.00     0.013 C 
ENDBRANCH   1  13
TORSDOF 4
ENDMDL
MODEL 7
REMARK VINA RESULT:      -6.9      2.653      8.096
REMARK  4 active torsions:
REMARK  status: ('A' for Active; 'I' for Inactive)
REMARK    1  A    between atoms: N1_7  and  C6_8 
REMARK    2  A    between atoms: C6_8  and  C7_9 
REMARK    3  A    between atoms: C8_10  and  C9_11 
REMARK    4  A    between atoms: C9_11  and  C10_13 
ROOT
HETATM    1  C9  UNL     1      24.901   1.618  53.240  1.00  0.00     0.235 C 
HETATM    2  O2  UNL     1      24.971   2.865  53.463  1.00  0.00    -0.278 OA
ENDROOT
BRANCH   1   3
HETATM    3  C8  UNL     1      23.629   1.101  52.875  1.00  0.00    -0.022 C 
HETATM    4  C7  UNL     1      22.547   0.683  52.572  1.00  0.00    -0.079 C 
BRANCH   4   5
HETATM    5  C6  UNL     1      21.215   0.194  52.193  1.00  0.00     0.212 C 
BRANCH   5   6
HETATM    6  N1  UNL     1      20.744   0.949  51.079  1.00  0.00    -0.395 N 
HETATM    7  C2  UNL     1      19.326   1.183  51.096  1.00  0.00     0.099 C 
HETATM    8  C1  UNL     1      18.490  -0.059  51.200  1.00  0.00     0.034 C 
HETATM    9  C3  UNL     1      18.887   1.959  49.901  1.00  0.00     0.192 C 
HETATM   10  O1  UNL     1      19.972   2.572  49.293  1.00  0.00    -0.388 OA
HETATM   11  C4  UNL     1      20.916   1.679  48.806  1.00  0.00     0.187 C 
HETATM   12  C5  UNL     1      21.309   0.632  49.815  1.00  0.00     0.144 C 
ENDBRANCH   5   6
ENDBRANCH   4   5
ENDBRANCH   1   3
BRANCH   1  13
HETATM   13  C10 UNL     1      26.083   0.779  53.359  1.00  0.00     0.021 C 
HETATM   14  C11 UNL     1      26.699   0.694  54.550  1.00  0.00     0.018 C 
HETATM   15  C12 UNL     1      27.963  -0.074  54.916  1.00  0.00     0.320 C 
HETATM   16  N2  UNL     1      28.521  -0.563  53.905  1.00  0.00    -0.405 NA
HETATM   17  C13 UNL     1      29.654  -1.323  53.616  1.00  0.00     0.765 C 
HETATM   18  N3  UNL     1      28.890  -2.320  53.162  1.00  0.00     0.043 NA
HETATM   19  C14 UNL     1      27.499  -2.192  53.183  1.00  0.00     0.280 C 
HETATM   20  C15 UNL     1      26.807  -1.437  52.168  1.00  0.00     0.003 C 
HETATM   21  C16 UNL     1      26.214  -0.214  52.269  1.00  0.00     0.013 C 
ENDBRANCH   1  13
TORSDOF 4
ENDMDL
MODEL 8
REMARK VINA RESULT:      -6.9      1.778      2.781
REMARK  4 active torsions:
REMARK  status: ('A' for Active; 'I' for Inactive)
REMARK    1  A    between atoms: N1_7  and  C6_8 
REMARK    2  A    between atoms: C6_8  and  C7_9 
REMARK    3  A    between atoms: C8_10  and  C9_11 
REMARK    4  A    between atoms: C9_11  and  C10_13 
ROOT
HETATM    1  C9  UNL     1      21.648  -0.875  54.332  1.00  0.00     0.235 C 
HETATM    2  O2  UNL     1      21.071  -1.850  54.903  1.00  0.00    -0.278 OA
ENDROOT
BRANCH   1   3
HETATM    3  C8  UNL     1      23.057  -0.779  54.491  1.00  0.00    -0.022 C 
HETATM    4  C7  UNL     1      24.245  -0.717  54.635  1.00  0.00    -0.079 C 
BRANCH   4   5
HETATM    5  C6  UNL     1      25.703  -0.667  54.809  1.00  0.00     0.212 C 
BRANCH   5   6
HETATM    6  N1  UNL     1      26.240   0.325  53.938  1.00  0.00    -0.395 N 
HETATM    7  C2  UNL     1      26.138  -0.012  52.545  1.00  0.00     0.099 C 
HETATM    8  C1  UNL     1      26.750  -1.332  52.176  1.00  0.00     0.034 C 
HETATM    9  C3  UNL     1      26.730   1.050  51.682  1.00  0.00     0.192 C 
HETATM   10  O1  UNL     1      26.876   2.230  52.394  1.00  0.00    -0.388 OA
HETATM   11  C4  UNL     1      27.744   2.128  53.472  1.00  0.00     0.187 C 
HETATM   12  C5  UNL     1      27.456   0.936  54.344  1.00  0.00     0.144 C 
ENDBRANCH   5   6
ENDBRANCH   4   5
ENDBRANCH   1   3
BRANCH   1  13
HETATM   13  C10 UNL     1      20.881   0.087  53.555  1.00  0.00     0.021 C 
HETATM   14  C11 UNL     1      21.523   1.127  52.998  1.00  0.00     0.018 C 
HETATM   15  C12 UNL     1      20.945   2.278  52.186  1.00  0.00     0.320 C 
HETATM   16  N2  UNL     1      19.691   2.263  52.181  1.00  0.00    -0.405 NA
HETATM   17  C13 UNL     1      18.650   3.020  51.644  1.00  0.00     0.765 C 
HETATM   18  N3  UNL     1      18.251   1.982  50.907  1.00  0.00     0.043 NA
HETATM   19  C14 UNL     1      18.953   0.775  50.973  1.00  0.00     0.280 C 
HETATM   20  C15 UNL     1      18.743  -0.147  52.062  1.00  0.00     0.003 C 
HETATM   21  C16 UNL     1      19.566  -0.427  53.113  1.00  0.00     0.013 C 
ENDBRANCH   1  13
TORSDOF 4
ENDMDL
MODEL 9
REMARK VINA RESULT:      -6.9      5.917      7.339
REMARK  4 active torsions:
REMARK  status: ('A' for Active; 'I' for Inactive)
REMARK    1  A    between atoms: N1_7  and  C6_8 
REMARK    2  A    between atoms: C6_8  and  C7_9 
REMARK    3  A    between atoms: C8_10  and  C9_11 
REMARK    4  A    between atoms: C9_11  and  C10_13 
ROOT
HETATM    1  C9  UNL     1      27.002   4.598  49.101  1.00  0.00     0.235 C 
HETATM    2  O2  UNL     1      28.129   4.563  48.521  1.00  0.00    -0.278 OA
ENDROOT
BRANCH   1   3
HETATM    3  C8  UNL     1      26.706   3.535  49.997  1.00  0.00    -0.022 C 
HETATM    4  C7  UNL     1      26.448   2.627  50.736  1.00  0.00    -0.079 C 
BRANCH   4   5
HETATM    5  C6  UNL     1      26.134   1.499  51.623  1.00  0.00     0.212 C 
BRANCH   5   6
HETATM    6  N1  UNL     1      27.280   1.200  52.416  1.00  0.00    -0.395 N 
HETATM    7  C2  UNL     1      27.390  -0.187  52.774  1.00  0.00     0.099 C 
HETATM    8  C1  UNL     1      26.186  -0.749  53.472  1.00  0.00     0.034 C 
HETATM    9  C3  UNL     1      28.594  -0.440  53.616  1.00  0.00     0.192 C 
HETATM   10  O1  UNL     1      29.484   0.619  53.523  1.00  0.00    -0.388 OA
HETATM   11  C4  UNL     1      28.972   1.821  53.991  1.00  0.00     0.187 C 
HETATM   12  C5  UNL     1      27.609   2.134  53.433  1.00  0.00     0.144 C 
ENDBRANCH   5   6
ENDBRANCH   4   5
ENDBRANCH   1   3
BRANCH   1  13
HETATM   13  C10 UNL     1      26.073   5.687  48.845  1.00  0.00     0.021 C 
HETATM   14  C11 UNL     1      26.524   6.787  48.219  1.00  0.00     0.018 C 
HETATM   15  C12 UNL     1      25.769   8.066  47.878  1.00  0.00     0.320 C 
HETATM   16  N2  UNL     1      24.622   8.081  48.387  1.00  0.00    -0.405 NA
HETATM   17  C13 UNL     1      23.523   8.937  48.434  1.00  0.00     0.765 C 
HETATM   18  N3  UNL     1      22.773   8.038  47.793  1.00  0.00     0.043 NA
HETATM   19  C14 UNL     1      23.335   6.819  47.403  1.00  0.00     0.280 C 
HETATM   20  C15 UNL     1      23.503   5.742  48.347  1.00  0.00     0.003 C 
HETATM   21  C16 UNL     1      24.652   5.281  48.918  1.00  0.00     0.013 C 
ENDBRANCH   1  13
TORSDOF 4
ENDMDL
