MODEL 1
REMARK VINA RESULT:      -8.0      0.000      0.000
REMARK  6 active torsions:
REMARK  status: ('A' for Active; 'I' for Inactive)
REMARK    1  A    between atoms: O1_2  and  C2_3 
REMARK    2  A    between atoms: C5_7  and  N2_8 
REMARK    3  A    between atoms: N2_8  and  C6_9 
REMARK    4  A    between atoms: C14_20  and  C15_21 
REMARK    5  A    between atoms: C15_21  and  C16_22 
REMARK    6  A    between atoms: C16_22  and  N3_23 
ROOT
HETATM    1  C2  UNL     1      20.933   3.120  52.489  1.00  0.00     0.159 C 
HETATM    2  C3  UNL     1      21.090   1.739  52.037  1.00  0.00     0.061 C 
HETATM    3  C4  UNL     1      21.245   0.755  53.201  1.00  0.00     0.094 C 
HETATM    4  N1  UNL     1      22.257  -0.052  53.420  1.00  0.00    -0.275 NA
HETATM    5  C5  UNL     1      23.577   0.210  52.896  1.00  0.00     0.236 C 
HETATM    6  C12 UNL     1      23.385   1.542  52.244  1.00  0.00    -0.014 C 
HETATM    7  C13 UNL     1      24.029   2.644  52.602  1.00  0.00     0.142 C 
HETATM    8  O2  UNL     1      23.309   3.845  52.485  1.00  0.00    -0.355 OA
HETATM    9  C14 UNL     1      21.971   4.147  52.332  1.00  0.00     0.159 C 
HETATM   10  C21 UNL     1      22.305   1.440  51.164  1.00  0.00     0.052 C 
ENDROOT
BRANCH   5  11
HETATM   11  N2  UNL     1      24.641   0.255  53.798  1.00  0.00    -0.364 N 
HETATM   12  H8  UNL     1      24.361   0.530  54.795  1.00  0.00     0.162 HD
BRANCH  11  13
HETATM   13  C6  UNL     1      26.015   0.010  53.656  1.00  0.00     0.031 A 
HETATM   14  C7  UNL     1      26.587  -1.118  53.106  1.00  0.00     0.032 A 
HETATM   15  C8  UNL     1      27.930  -1.362  52.978  1.00  0.00     0.046 A 
HETATM   16  C9  UNL     1      28.786  -0.408  53.433  1.00  0.00     0.138 A 
HETATM   17  F1  UNL     1      30.122  -0.574  53.342  1.00  0.00    -0.204 F 
HETATM   18  C10 UNL     1      28.330   0.740  53.991  1.00  0.00     0.074 A 
HETATM   19 CL1  UNL     1      29.438   1.958  54.570  1.00  0.00    -0.081 Cl
HETATM   20  C11 UNL     1      26.971   0.922  54.089  1.00  0.00     0.056 A 
ENDBRANCH  11  13
ENDBRANCH   5  11
BRANCH   1  21
HETATM   21  O1  UNL     1      19.755   3.736  51.996  1.00  0.00    -0.387 OA
HETATM   22  C1  UNL     1      18.781   2.846  51.624  1.00  0.00     0.202 C 
ENDBRANCH   1  21
BRANCH   9  23
HETATM   23  C15 UNL     1      21.763   4.986  51.061  1.00  0.00     0.065 C 
BRANCH  23  24
HETATM   24  C16 UNL     1      23.077   5.637  50.649  1.00  0.00     0.275 C 
BRANCH  24  25
HETATM   25  N3  UNL     1      23.404   5.347  49.279  1.00  0.00     0.092 N 
HETATM   26  C17 UNL     1      24.139   6.371  48.607  1.00  0.00     0.298 C 
HETATM   27  C18 UNL     1      25.615   6.370  48.965  1.00  0.00     0.198 C 
HETATM   28  O3  UNL     1      26.148   5.100  48.868  1.00  0.00    -0.388 OA
HETATM   29  C19 UNL     1      25.464   4.140  49.592  1.00  0.00     0.198 C 
HETATM   30  C20 UNL     1      24.047   4.071  49.105  1.00  0.00     0.298 C 
ENDBRANCH  24  25
ENDBRANCH  23  24
ENDBRANCH   9  23
TORSDOF 6
ENDMDL
MODEL 2
REMARK VINA RESULT:      -8.0      5.172      7.819
REMARK  6 active torsions:
REMARK  status: ('A' for Active; 'I' for Inactive)
REMARK    1  A    between atoms: O1_2  and  C2_3 
REMARK    2  A    between atoms: C5_7  and  N2_8 
REMARK    3  A    between atoms: N2_8  and  C6_9 
REMARK    4  A    between atoms: C14_20  and  C15_21 
REMARK    5  A    between atoms: C15_21  and  C16_22 
REMARK    6  A    between atoms: C16_22  and  N3_23 
ROOT
HETATM    1  C2  UNL     1      22.967   2.410  52.466  1.00  0.00     0.159 C 
HETATM    2  C3  UNL     1      21.819   2.400  51.561  1.00  0.00     0.061 C 
HETATM    3  C4  UNL     1      20.493   2.632  52.293  1.00  0.00     0.094 C 
HETATM    4  N1  UNL     1      19.456   1.827  52.320  1.00  0.00    -0.275 NA
HETATM    5  C5  UNL     1      19.579   0.407  52.089  1.00  0.00     0.236 C 
HETATM    6  C12 UNL     1      21.060   0.250  51.953  1.00  0.00    -0.014 C 
HETATM    7  C13 UNL     1      21.807  -0.488  52.764  1.00  0.00     0.142 C 
HETATM    8  O2  UNL     1      23.105  -0.010  53.010  1.00  0.00    -0.355 OA
HETATM    9  C14 UNL     1      23.730   1.206  52.820  1.00  0.00     0.159 C 
HETATM   10  C21 UNL     1      21.568   1.107  50.790  1.00  0.00     0.052 C 
ENDROOT
BRANCH   5  11
HETATM   11  N2  UNL     1      19.083  -0.459  53.065  1.00  0.00    -0.364 N 
HETATM   12  H8  UNL     1      19.571  -0.377  54.015  1.00  0.00     0.162 HD
BRANCH  11  13
HETATM   13  C6  UNL     1      18.063  -1.422  53.047  1.00  0.00     0.031 A 
HETATM   14  C7  UNL     1      18.108  -2.665  53.645  1.00  0.00     0.032 A 
HETATM   15  C8  UNL     1      17.116  -3.610  53.616  1.00  0.00     0.046 A 
HETATM   16  C9  UNL     1      15.977  -3.304  52.938  1.00  0.00     0.138 A 
HETATM   17  F1  UNL     1      14.955  -4.182  52.865  1.00  0.00    -0.204 F 
HETATM   18  C10 UNL     1      15.829  -2.109  52.314  1.00  0.00     0.074 A 
HETATM   19 CL1  UNL     1      14.363  -1.727  51.447  1.00  0.00    -0.081 Cl
HETATM   20  C11 UNL     1      16.862  -1.206  52.381  1.00  0.00     0.056 A 
ENDBRANCH  11  13
ENDBRANCH   5  11
BRANCH   1  21
HETATM   21  O1  UNL     1      23.956   3.355  52.096  1.00  0.00    -0.387 OA
HETATM   22  C1  UNL     1      23.498   4.646  52.051  1.00  0.00     0.202 C 
ENDBRANCH   1  21
BRANCH   9  23
HETATM   23  C15 UNL     1      24.970   1.028  51.930  1.00  0.00     0.065 C 
BRANCH  23  24
HETATM   24  C16 UNL     1      26.093   0.380  52.730  1.00  0.00     0.275 C 
BRANCH  24  25
HETATM   25  N3  UNL     1      26.298   1.047  53.988  1.00  0.00     0.092 N 
HETATM   26  C17 UNL     1      26.921   0.250  54.996  1.00  0.00     0.298 C 
HETATM   27  C18 UNL     1      28.424   0.128  54.808  1.00  0.00     0.198 C 
HETATM   28  O3  UNL     1      28.998   1.367  54.595  1.00  0.00    -0.388 OA
HETATM   29  C19 UNL     1      28.428   2.087  53.562  1.00  0.00     0.198 C 
HETATM   30  C20 UNL     1      26.974   2.311  53.858  1.00  0.00     0.298 C 
ENDBRANCH  24  25
ENDBRANCH  23  24
ENDBRANCH   9  23
TORSDOF 6
ENDMDL
MODEL 3
REMARK VINA RESULT:      -7.7      3.248      6.387
REMARK  6 active torsions:
REMARK  status: ('A' for Active; 'I' for Inactive)
REMARK    1  A    between atoms: O1_2  and  C2_3 
REMARK    2  A    between atoms: C5_7  and  N2_8 
REMARK    3  A    between atoms: N2_8  and  C6_9 
REMARK    4  A    between atoms: C14_20  and  C15_21 
REMARK    5  A    between atoms: C15_21  and  C16_22 
REMARK    6  A    between atoms: C16_22  and  N3_23 
ROOT
HETATM    1  C2  UNL     1      22.288   2.276  51.907  1.00  0.00     0.159 C 
HETATM    2  C3  UNL     1      22.420   3.708  52.165  1.00  0.00     0.061 C 
HETATM    3  C4  UNL     1      22.088   4.559  50.935  1.00  0.00     0.094 C 
HETATM    4  N1  UNL     1      22.881   5.414  50.331  1.00  0.00    -0.275 NA
HETATM    5  C5  UNL     1      24.319   5.324  50.420  1.00  0.00     0.236 C 
HETATM    6  C12 UNL     1      24.495   4.066  51.209  1.00  0.00    -0.014 C 
HETATM    7  C13 UNL     1      25.116   2.985  50.755  1.00  0.00     0.142 C 
HETATM    8  O2  UNL     1      24.611   1.752  51.201  1.00  0.00    -0.355 OA
HETATM    9  C14 UNL     1      23.434   1.362  51.805  1.00  0.00     0.159 C 
HETATM   10  C21 UNL     1      23.805   4.205  52.568  1.00  0.00     0.052 C 
ENDROOT
BRANCH   5  11
HETATM   11  N2  UNL     1      25.043   5.260  49.227  1.00  0.00    -0.364 N 
HETATM   12  H8  UNL     1      24.537   4.752  48.432  1.00  0.00     0.162 HD
BRANCH  11  13
HETATM   13  C6  UNL     1      26.313   5.733  48.864  1.00  0.00     0.031 A 
HETATM   14  C7  UNL     1      27.430   4.959  48.624  1.00  0.00     0.032 A 
HETATM   15  C8  UNL     1      28.674   5.423  48.281  1.00  0.00     0.046 A 
HETATM   16  C9  UNL     1      28.830   6.770  48.163  1.00  0.00     0.138 A 
HETATM   17  F1  UNL     1      30.024   7.303  47.828  1.00  0.00    -0.204 F 
HETATM   18  C10 UNL     1      27.797   7.620  48.376  1.00  0.00     0.074 A 
HETATM   19 CL1  UNL     1      28.009   9.346  48.222  1.00  0.00    -0.081 Cl
HETATM   20  C11 UNL     1      26.576   7.090  48.718  1.00  0.00     0.056 A 
ENDBRANCH  11  13
ENDBRANCH   5  11
BRANCH   1  21
HETATM   21  O1  UNL     1      21.404   1.628  52.805  1.00  0.00    -0.387 OA
HETATM   22  C1  UNL     1      20.081   1.760  52.470  1.00  0.00     0.202 C 
ENDBRANCH   1  21
BRANCH   9  23
HETATM   23  C15 UNL     1      23.733   0.663  53.141  1.00  0.00     0.065 C 
BRANCH  23  24
HETATM   24  C16 UNL     1      25.190   0.221  53.179  1.00  0.00     0.275 C 
BRANCH  24  25
HETATM   25  N3  UNL     1      25.889   0.798  54.296  1.00  0.00     0.092 N 
HETATM   26  C17 UNL     1      26.870  -0.049  54.894  1.00  0.00     0.298 C 
HETATM   27  C18 UNL     1      28.166  -0.103  54.103  1.00  0.00     0.198 C 
HETATM   28  O3  UNL     1      28.601   1.167  53.779  1.00  0.00    -0.388 OA
HETATM   29  C19 UNL     1      27.659   1.942  53.129  1.00  0.00     0.198 C 
HETATM   30  C20 UNL     1      26.452   2.091  54.008  1.00  0.00     0.298 C 
ENDBRANCH  24  25
ENDBRANCH  23  24
ENDBRANCH   9  23
TORSDOF 6
ENDMDL
MODEL 4
REMARK VINA RESULT:      -7.6      1.677      2.085
REMARK  6 active torsions:
REMARK  status: ('A' for Active; 'I' for Inactive)
REMARK    1  A    between atoms: O1_2  and  C2_3 
REMARK    2  A    between atoms: C5_7  and  N2_8 
REMARK    3  A    between atoms: N2_8  and  C6_9 
REMARK    4  A    between atoms: C14_20  and  C15_21 
REMARK    5  A    between atoms: C15_21  and  C16_22 
REMARK    6  A    between atoms: C16_22  and  N3_23 
ROOT
HETATM    1  C2  UNL     1      20.528   1.887  52.598  1.00  0.00     0.159 C 
HETATM    2  C3  UNL     1      21.248   0.715  52.103  1.00  0.00     0.061 C 
HETATM    3  C4  UNL     1      21.966  -0.047  53.221  1.00  0.00     0.094 C 
HETATM    4  N1  UNL     1      23.253  -0.294  53.306  1.00  0.00    -0.275 NA
HETATM    5  C5  UNL     1      24.238   0.523  52.638  1.00  0.00     0.236 C 
HETATM    6  C12 UNL     1      23.386   1.596  52.039  1.00  0.00    -0.014 C 
HETATM    7  C13 UNL     1      23.490   2.883  52.342  1.00  0.00     0.142 C 
HETATM    8  O2  UNL     1      22.292   3.617  52.334  1.00  0.00    -0.355 OA
HETATM    9  C14 UNL     1      20.956   3.268  52.342  1.00  0.00     0.159 C 
HETATM   10  C21 UNL     1      22.359   0.973  51.089  1.00  0.00     0.052 C 
ENDROOT
BRANCH   5  11
HETATM   11  N2  UNL     1      25.257   1.081  53.412  1.00  0.00    -0.364 N 
HETATM   12  H8  UNL     1      24.927   1.838  54.094  1.00  0.00     0.162 HD
BRANCH  11  13
HETATM   13  C6  UNL     1      26.639   0.844  53.473  1.00  0.00     0.031 A 
HETATM   14  C7  UNL     1      27.618   1.795  53.676  1.00  0.00     0.032 A 
HETATM   15  C8  UNL     1      28.968   1.564  53.723  1.00  0.00     0.046 A 
HETATM   16  C9  UNL     1      29.392   0.282  53.556  1.00  0.00     0.138 A 
HETATM   17  F1  UNL     1      30.705  -0.025  53.591  1.00  0.00    -0.204 F 
HETATM   18  C10 UNL     1      28.512  -0.729  53.351  1.00  0.00     0.074 A 
HETATM   19 CL1  UNL     1      29.067  -2.370  53.138  1.00  0.00    -0.081 Cl
HETATM   20  C11 UNL     1      27.172  -0.429  53.314  1.00  0.00     0.056 A 
ENDBRANCH  11  13
ENDBRANCH   5  11
BRANCH   1  21
HETATM   21  O1  UNL     1      19.153   1.879  52.257  1.00  0.00    -0.387 OA
HETATM   22  C1  UNL     1      18.678   0.642  51.903  1.00  0.00     0.202 C 
ENDBRANCH   1  21
BRANCH   9  23
HETATM   23  C15 UNL     1      20.246   3.874  51.121  1.00  0.00     0.065 C 
BRANCH  23  24
HETATM   24  C16 UNL     1      21.203   4.788  50.366  1.00  0.00     0.275 C 
BRANCH  24  25
HETATM   25  N3  UNL     1      21.504   4.274  49.057  1.00  0.00     0.092 N 
HETATM   26  C17 UNL     1      21.004   5.059  47.974  1.00  0.00     0.298 C 
HETATM   27  C18 UNL     1      21.853   6.287  47.693  1.00  0.00     0.198 C 
HETATM   28  O3  UNL     1      23.192   5.956  47.615  1.00  0.00    -0.388 OA
HETATM   29  C19 UNL     1      23.672   5.265  48.712  1.00  0.00     0.198 C 
HETATM   30  C20 UNL     1      22.901   3.987  48.866  1.00  0.00     0.298 C 
ENDBRANCH  24  25
ENDBRANCH  23  24
ENDBRANCH   9  23
TORSDOF 6
ENDMDL
MODEL 5
REMARK VINA RESULT:      -7.6      3.309      6.892
REMARK  6 active torsions:
REMARK  status: ('A' for Active; 'I' for Inactive)
REMARK    1  A    between atoms: O1_2  and  C2_3 
REMARK    2  A    between atoms: C5_7  and  N2_8 
REMARK    3  A    between atoms: N2_8  and  C6_9 
REMARK    4  A    between atoms: C14_20  and  C15_21 
REMARK    5  A    between atoms: C15_21  and  C16_22 
REMARK    6  A    between atoms: C16_22  and  N3_23 
ROOT
HETATM    1  C2  UNL     1      22.209   2.710  51.395  1.00  0.00     0.159 C 
HETATM    2  C3  UNL     1      22.170   4.043  51.996  1.00  0.00     0.061 C 
HETATM    3  C4  UNL     1      21.803   5.131  50.982  1.00  0.00     0.094 C 
HETATM    4  N1  UNL     1      22.523   6.180  50.657  1.00  0.00    -0.275 NA
HETATM    5  C5  UNL     1      23.957   6.209  50.824  1.00  0.00     0.236 C 
HETATM    6  C12 UNL     1      24.235   4.820  51.303  1.00  0.00    -0.014 C 
HETATM    7  C13 UNL     1      24.992   3.947  50.651  1.00  0.00     0.142 C 
HETATM    8  O2  UNL     1      24.606   2.600  50.754  1.00  0.00    -0.355 OA
HETATM    9  C14 UNL     1      23.452   1.963  51.162  1.00  0.00     0.159 C 
HETATM   10  C21 UNL     1      23.471   4.557  52.603  1.00  0.00     0.052 C 
ENDROOT
BRANCH   5  11
HETATM   11  N2  UNL     1      24.739   6.508  49.707  1.00  0.00    -0.364 N 
HETATM   12  H8  UNL     1      24.363   6.108  48.787  1.00  0.00     0.162 HD
BRANCH  11  13
HETATM   13  C6  UNL     1      25.929   7.234  49.549  1.00  0.00     0.031 A 
HETATM   14  C7  UNL     1      26.254   8.410  50.192  1.00  0.00     0.032 A 
HETATM   15  C8  UNL     1      27.412   9.126  50.029  1.00  0.00     0.046 A 
HETATM   16  C9  UNL     1      28.333   8.637  49.154  1.00  0.00     0.138 A 
HETATM   17  F1  UNL     1      29.498   9.283  48.939  1.00  0.00    -0.204 F 
HETATM   18  C10 UNL     1      28.114   7.487  48.470  1.00  0.00     0.074 A 
HETATM   19 CL1  UNL     1      29.302   6.869  47.351  1.00  0.00    -0.081 Cl
HETATM   20  C11 UNL     1      26.931   6.819  48.680  1.00  0.00     0.056 A 
ENDBRANCH  11  13
ENDBRANCH   5  11
BRANCH   1  21
HETATM   21  O1  UNL     1      21.361   1.782  52.048  1.00  0.00    -0.387 OA
HETATM   22  C1  UNL     1      20.278   2.358  52.662  1.00  0.00     0.202 C 
ENDBRANCH   1  21
BRANCH   9  23
HETATM   23  C15 UNL     1      23.764   0.992  52.311  1.00  0.00     0.065 C 
BRANCH  23  24
HETATM   24  C16 UNL     1      25.250   0.657  52.317  1.00  0.00     0.275 C 
BRANCH  24  25
HETATM   25  N3  UNL     1      25.510  -0.586  52.993  1.00  0.00     0.092 N 
HETATM   26  C17 UNL     1      26.714  -1.244  52.599  1.00  0.00     0.298 C 
HETATM   27  C18 UNL     1      27.954  -0.635  53.230  1.00  0.00     0.198 C 
HETATM   28  O3  UNL     1      27.788  -0.472  54.591  1.00  0.00    -0.388 OA
HETATM   29  C19 UNL     1      26.655   0.237  54.945  1.00  0.00     0.198 C 
HETATM   30  C20 UNL     1      25.443  -0.478  54.426  1.00  0.00     0.298 C 
ENDBRANCH  24  25
ENDBRANCH  23  24
ENDBRANCH   9  23
TORSDOF 6
ENDMDL
MODEL 6
REMARK VINA RESULT:      -7.6      5.611      9.039
REMARK  6 active torsions:
REMARK  status: ('A' for Active; 'I' for Inactive)
REMARK    1  A    between atoms: O1_2  and  C2_3 
REMARK    2  A    between atoms: C5_7  and  N2_8 
REMARK    3  A    between atoms: N2_8  and  C6_9 
REMARK    4  A    between atoms: C14_20  and  C15_21 
REMARK    5  A    between atoms: C15_21  and  C16_22 
REMARK    6  A    between atoms: C16_22  and  N3_23 
ROOT
HETATM    1  C2  UNL     1      29.964   7.861  48.567  1.00  0.00     0.159 C 
HETATM    2  C3  UNL     1      28.601   8.265  48.228  1.00  0.00     0.061 C 
HETATM    3  C4  UNL     1      27.713   8.429  49.466  1.00  0.00     0.094 C 
HETATM    4  N1  UNL     1      26.598   7.788  49.726  1.00  0.00    -0.275 NA
HETATM    5  C5  UNL     1      26.299   6.499  49.148  1.00  0.00     0.236 C 
HETATM    6  C12 UNL     1      27.556   6.208  48.392  1.00  0.00    -0.014 C 
HETATM    7  C13 UNL     1      28.350   5.175  48.639  1.00  0.00     0.142 C 
HETATM    8  O2  UNL     1      29.724   5.392  48.441  1.00  0.00    -0.355 OA
HETATM    9  C14 UNL     1      30.503   6.522  48.297  1.00  0.00     0.159 C 
HETATM   10  C21 UNL     1      27.802   7.305  47.352  1.00  0.00     0.052 C 
ENDROOT
BRANCH   5  11
HETATM   11  N2  UNL     1      25.995   5.448  50.015  1.00  0.00    -0.364 N 
HETATM   12  H8  UNL     1      26.615   5.405  50.887  1.00  0.00     0.162 HD
BRANCH  11  13
HETATM   13  C6  UNL     1      25.031   4.431  49.970  1.00  0.00     0.031 A 
HETATM   14  C7  UNL     1      24.020   4.310  49.038  1.00  0.00     0.032 A 
HETATM   15  C8  UNL     1      23.071   3.322  49.001  1.00  0.00     0.046 A 
HETATM   16  C9  UNL     1      23.122   2.367  49.969  1.00  0.00     0.138 A 
HETATM   17  F1  UNL     1      22.222   1.362  50.000  1.00  0.00    -0.204 F 
HETATM   18  C10 UNL     1      24.075   2.391  50.933  1.00  0.00     0.074 A 
HETATM   19 CL1  UNL     1      24.130   1.161  52.169  1.00  0.00    -0.081 Cl
HETATM   20  C11 UNL     1      24.997   3.410  50.912  1.00  0.00     0.056 A 
ENDBRANCH  11  13
ENDBRANCH   5  11
BRANCH   1  21
HETATM   21  O1  UNL     1      30.948   8.743  48.055  1.00  0.00    -0.387 OA
HETATM   22  C1  UNL     1      30.973   9.965  48.677  1.00  0.00     0.202 C 
ENDBRANCH   1  21
BRANCH   9  23
HETATM   23  C15 UNL     1      31.270   6.467  46.967  1.00  0.00     0.065 C 
BRANCH  23  24
HETATM   24  C16 UNL     1      32.609   5.769  47.169  1.00  0.00     0.275 C 
BRANCH  24  25
HETATM   25  N3  UNL     1      32.566   4.403  46.719  1.00  0.00     0.092 N 
HETATM   26  C17 UNL     1      33.161   4.172  45.442  1.00  0.00     0.298 C 
HETATM   27  C18 UNL     1      34.677   4.112  45.499  1.00  0.00     0.198 C 
HETATM   28  O3  UNL     1      35.102   3.271  46.509  1.00  0.00    -0.388 OA
HETATM   29  C19 UNL     1      34.573   3.565  47.752  1.00  0.00     0.198 C 
HETATM   30  C20 UNL     1      33.077   3.469  47.687  1.00  0.00     0.298 C 
ENDBRANCH  24  25
ENDBRANCH  23  24
ENDBRANCH   9  23
TORSDOF 6
ENDMDL
MODEL 7
REMARK VINA RESULT:      -7.5      5.537      8.863
REMARK  6 active torsions:
REMARK  status: ('A' for Active; 'I' for Inactive)
REMARK    1  A    between atoms: O1_2  and  C2_3 
REMARK    2  A    between atoms: C5_7  and  N2_8 
REMARK    3  A    between atoms: N2_8  and  C6_9 
REMARK    4  A    between atoms: C14_20  and  C15_21 
REMARK    5  A    between atoms: C15_21  and  C16_22 
REMARK    6  A    between atoms: C16_22  and  N3_23 
ROOT
HETATM    1  C2  UNL     1      29.210   8.212  48.738  1.00  0.00     0.159 C 
HETATM    2  C3  UNL     1      27.777   8.420  48.541  1.00  0.00     0.061 C 
HETATM    3  C4  UNL     1      26.986   8.332  49.850  1.00  0.00     0.094 C 
HETATM    4  N1  UNL     1      26.008   7.501  50.126  1.00  0.00    -0.275 NA
HETATM    5  C5  UNL     1      25.860   6.236  49.446  1.00  0.00     0.236 C 
HETATM    6  C12 UNL     1      27.076   6.216  48.575  1.00  0.00    -0.014 C 
HETATM    7  C13 UNL     1      28.037   5.306  48.661  1.00  0.00     0.142 C 
HETATM    8  O2  UNL     1      29.339   5.756  48.386  1.00  0.00    -0.355 OA
HETATM    9  C14 UNL     1      29.921   7.004  48.299  1.00  0.00     0.159 C 
HETATM   10  C21 UNL     1      27.060   7.424  47.634  1.00  0.00     0.052 C 
ENDROOT
BRANCH   5  11
HETATM   11  N2  UNL     1      25.797   5.079  50.225  1.00  0.00    -0.364 N 
HETATM   12  H8  UNL     1      26.627   4.950  50.889  1.00  0.00     0.162 HD
BRANCH  11  13
HETATM   13  C6  UNL     1      24.853   4.045  50.310  1.00  0.00     0.031 A 
HETATM   14  C7  UNL     1      24.511   3.349  51.451  1.00  0.00     0.032 A 
HETATM   15  C8  UNL     1      23.597   2.330  51.531  1.00  0.00     0.046 A 
HETATM   16  C9  UNL     1      22.963   1.965  50.384  1.00  0.00     0.138 A 
HETATM   17  F1  UNL     1      22.050   0.971  50.382  1.00  0.00    -0.204 F 
HETATM   18  C10 UNL     1      23.224   2.584  49.207  1.00  0.00     0.074 A 
HETATM   19 CL1  UNL     1      22.404   2.108  47.742  1.00  0.00    -0.081 Cl
HETATM   20  C11 UNL     1      24.152   3.598  49.196  1.00  0.00     0.056 A 
ENDBRANCH  11  13
ENDBRANCH   5  11
BRANCH   1  21
HETATM   21  O1  UNL     1      29.999   9.281  48.246  1.00  0.00    -0.387 OA
HETATM   22  C1  UNL     1      30.418  10.152  49.218  1.00  0.00     0.202 C 
ENDBRANCH   1  21
BRANCH   9  23
HETATM   23  C15 UNL     1      30.569   7.188  46.917  1.00  0.00     0.065 C 
BRANCH  23  24
HETATM   24  C16 UNL     1      32.023   6.740  46.963  1.00  0.00     0.275 C 
BRANCH  24  25
HETATM   25  N3  UNL     1      32.579   6.883  48.282  1.00  0.00     0.092 N 
HETATM   26  C17 UNL     1      33.263   5.730  48.775  1.00  0.00     0.298 C 
HETATM   27  C18 UNL     1      34.659   5.579  48.196  1.00  0.00     0.198 C 
HETATM   28  O3  UNL     1      35.362   6.764  48.283  1.00  0.00    -0.388 OA
HETATM   29  C19 UNL     1      34.713   7.852  47.728  1.00  0.00     0.198 C 
HETATM   30  C20 UNL     1      33.402   8.055  48.428  1.00  0.00     0.298 C 
ENDBRANCH  24  25
ENDBRANCH  23  24
ENDBRANCH   9  23
TORSDOF 6
ENDMDL
MODEL 8
REMARK VINA RESULT:      -7.4      3.682      6.943
REMARK  6 active torsions:
REMARK  status: ('A' for Active; 'I' for Inactive)
REMARK    1  A    between atoms: O1_2  and  C2_3 
REMARK    2  A    between atoms: C5_7  and  N2_8 
REMARK    3  A    between atoms: N2_8  and  C6_9 
REMARK    4  A    between atoms: C14_20  and  C15_21 
REMARK    5  A    between atoms: C15_21  and  C16_22 
REMARK    6  A    between atoms: C16_22  and  N3_23 
ROOT
HETATM    1  C2  UNL     1      23.155   2.466  50.597  1.00  0.00     0.159 C 
HETATM    2  C3  UNL     1      23.091   3.923  50.502  1.00  0.00     0.061 C 
HETATM    3  C4  UNL     1      23.295   4.426  49.069  1.00  0.00     0.094 C 
HETATM    4  N1  UNL     1      24.230   5.245  48.647  1.00  0.00    -0.275 NA
HETATM    5  C5  UNL     1      25.485   5.402  49.344  1.00  0.00     0.236 C 
HETATM    6  C12 UNL     1      25.356   4.387  50.434  1.00  0.00    -0.014 C 
HETATM    7  C13 UNL     1      26.164   3.346  50.580  1.00  0.00     0.142 C 
HETATM    8  O2  UNL     1      25.574   2.173  51.082  1.00  0.00    -0.355 OA
HETATM    9  C14 UNL     1      24.270   1.743  51.223  1.00  0.00     0.159 C 
HETATM   10  C21 UNL     1      24.131   4.706  51.297  1.00  0.00     0.052 C 
ENDROOT
BRANCH   5  11
HETATM   11  N2  UNL     1      26.663   5.198  48.622  1.00  0.00    -0.364 N 
HETATM   12  H8  UNL     1      26.694   4.273  48.083  1.00  0.00     0.162 HD
BRANCH  11  13
HETATM   13  C6  UNL     1      27.823   5.971  48.463  1.00  0.00     0.031 A 
HETATM   14  C7  UNL     1      29.091   5.491  48.206  1.00  0.00     0.032 A 
HETATM   15  C8  UNL     1      30.225   6.247  48.063  1.00  0.00     0.046 A 
HETATM   16  C9  UNL     1      30.099   7.596  48.182  1.00  0.00     0.138 A 
HETATM   17  F1  UNL     1      31.170   8.407  48.053  1.00  0.00    -0.204 F 
HETATM   18  C10 UNL     1      28.898   8.172  48.433  1.00  0.00     0.074 A 
HETATM   19 CL1  UNL     1      28.749   9.905  48.583  1.00  0.00    -0.081 Cl
HETATM   20  C11 UNL     1      27.800   7.357  48.566  1.00  0.00     0.056 A 
ENDBRANCH  11  13
ENDBRANCH   5  11
BRANCH   1  21
HETATM   21  O1  UNL     1      21.997   1.896  51.183  1.00  0.00    -0.387 OA
HETATM   22  C1  UNL     1      20.822   2.346  50.637  1.00  0.00     0.202 C 
ENDBRANCH   1  21
BRANCH   9  23
HETATM   23  C15 UNL     1      23.983   1.404  52.694  1.00  0.00     0.065 C 
BRANCH  23  24
HETATM   24  C16 UNL     1      25.289   1.347  53.476  1.00  0.00     0.275 C 
BRANCH  24  25
HETATM   25  N3  UNL     1      25.477   0.065  54.099  1.00  0.00     0.092 N 
HETATM   26  C17 UNL     1      25.810  -0.996  53.203  1.00  0.00     0.298 C 
HETATM   27  C18 UNL     1      27.270  -0.978  52.783  1.00  0.00     0.198 C 
HETATM   28  O3  UNL     1      28.099  -0.850  53.881  1.00  0.00    -0.388 OA
HETATM   29  C19 UNL     1      27.806   0.231  54.691  1.00  0.00     0.198 C 
HETATM   30  C20 UNL     1      26.402   0.099  55.202  1.00  0.00     0.298 C 
ENDBRANCH  24  25
ENDBRANCH  23  24
ENDBRANCH   9  23
TORSDOF 6
ENDMDL
MODEL 9
REMARK VINA RESULT:      -7.4      5.642      8.837
REMARK  6 active torsions:
REMARK  status: ('A' for Active; 'I' for Inactive)
REMARK    1  A    between atoms: O1_2  and  C2_3 
REMARK    2  A    between atoms: C5_7  and  N2_8 
REMARK    3  A    between atoms: N2_8  and  C6_9 
REMARK    4  A    between atoms: C14_20  and  C15_21 
REMARK    5  A    between atoms: C15_21  and  C16_22 
REMARK    6  A    between atoms: C16_22  and  N3_23 
ROOT
HETATM    1  C2  UNL     1      29.280   8.842  49.048  1.00  0.00     0.159 C 
HETATM    2  C3  UNL     1      27.978   8.569  48.441  1.00  0.00     0.061 C 
HETATM    3  C4  UNL     1      26.968   8.009  49.448  1.00  0.00     0.094 C 
HETATM    4  N1  UNL     1      26.341   6.858  49.378  1.00  0.00    -0.275 NA
HETATM    5  C5  UNL     1      26.862   5.743  48.624  1.00  0.00     0.236 C 
HETATM    6  C12 UNL     1      28.177   6.282  48.157  1.00  0.00    -0.014 C 
HETATM    7  C13 UNL     1      29.352   5.759  48.481  1.00  0.00     0.142 C 
HETATM    8  O2  UNL     1      30.411   6.670  48.630  1.00  0.00    -0.355 OA
HETATM    9  C14 UNL     1      30.481   8.040  48.782  1.00  0.00     0.159 C 
HETATM   10  C21 UNL     1      27.951   7.541  47.314  1.00  0.00     0.052 C 
ENDROOT
BRANCH   5  11
HETATM   11  N2  UNL     1      27.040   4.529  49.290  1.00  0.00    -0.364 N 
HETATM   12  H8  UNL     1      28.055   4.188  49.321  1.00  0.00     0.162 HD
BRANCH  11  13
HETATM   13  C6  UNL     1      26.144   3.661  49.933  1.00  0.00     0.031 A 
HETATM   14  C7  UNL     1      24.771   3.670  49.804  1.00  0.00     0.032 A 
HETATM   15  C8  UNL     1      23.896   2.830  50.442  1.00  0.00     0.046 A 
HETATM   16  C9  UNL     1      24.421   1.897  51.282  1.00  0.00     0.138 A 
HETATM   17  F1  UNL     1      23.625   1.033  51.945  1.00  0.00    -0.204 F 
HETATM   18  C10 UNL     1      25.759   1.801  51.480  1.00  0.00     0.074 A 
HETATM   19 CL1  UNL     1      26.422   0.600  52.559  1.00  0.00    -0.081 Cl
HETATM   20  C11 UNL     1      26.581   2.675  50.810  1.00  0.00     0.056 A 
ENDBRANCH  11  13
ENDBRANCH   5  11
BRANCH   1  21
HETATM   21  O1  UNL     1      29.707  10.181  48.867  1.00  0.00    -0.387 OA
HETATM   22  C1  UNL     1      28.692  11.046  48.545  1.00  0.00     0.202 C 
ENDBRANCH   1  21
BRANCH   9  23
HETATM   23  C15 UNL     1      31.346   8.650  47.668  1.00  0.00     0.065 C 
BRANCH  23  24
HETATM   24  C16 UNL     1      32.792   8.756  48.134  1.00  0.00     0.275 C 
BRANCH  24  25
HETATM   25  N3  UNL     1      33.705   8.251  47.144  1.00  0.00     0.092 N 
HETATM   26  C17 UNL     1      35.087   8.426  47.456  1.00  0.00     0.298 C 
HETATM   27  C18 UNL     1      35.601   7.407  48.459  1.00  0.00     0.198 C 
HETATM   28  O3  UNL     1      35.235   6.125  48.094  1.00  0.00    -0.388 OA
HETATM   29  C19 UNL     1      33.880   5.962  47.874  1.00  0.00     0.198 C 
HETATM   30  C20 UNL     1      33.444   6.884  46.775  1.00  0.00     0.298 C 
ENDBRANCH  24  25
ENDBRANCH  23  24
ENDBRANCH   9  23
TORSDOF 6
ENDMDL
