MODEL 1
REMARK VINA RESULT:      -9.0      0.000      0.000
REMARK  4 active torsions:
REMARK  status: ('A' for Active; 'I' for Inactive)
REMARK    1  A    between atoms: C7_7  and  C8_8 
REMARK    2  A    between atoms: C8_8  and  C9_9 
REMARK    3  A    between atoms: C9_9  and  C10_10 
REMARK    4  A    between atoms: C12_14  and  C13_15 
ROOT
HETATM    1  C10 UNL     1      23.652   0.634  53.145  1.00  0.00     0.208 A 
HETATM    2  N1  UNL     1      23.006   1.594  52.262  1.00  0.00     0.135 N 
HETATM    3  C11 UNL     1      22.097   1.392  51.103  1.00  0.00     0.212 A 
HETATM    4  O1  UNL     1      22.807   1.479  52.013  1.00  0.00     0.000 OA
HETATM    5  C12 UNL     1      21.225   1.197  50.008  1.00  0.00    -0.005 C 
HETATM    6  C14 UNL     1      20.006   0.719  50.096  1.00  0.00     0.010 C 
HETATM    7  C15 UNL     1      19.049   0.231  51.080  1.00  0.00    -0.003 C 
HETATM    8  C16 UNL     1      19.122   0.114  52.412  1.00  0.00    -0.027 C 
HETATM    9  C17 UNL     1      20.156   0.430  53.415  1.00  0.00     0.027 C 
HETATM   10  C18 UNL     1      20.771  -0.694  54.121  1.00  0.00     0.004 C 
HETATM   11  C19 UNL     1      22.092  -0.514  54.797  1.00  0.00     0.007 C 
HETATM   12  C20 UNL     1      23.308  -0.493  53.975  1.00  0.00     0.024 C 
HETATM   13  C21 UNL     1      24.479  -1.162  54.688  1.00  0.00     0.012 C 
HETATM   14  H11 UNL     1      23.287   2.668  52.607  1.00  0.00     0.324 HD
ENDROOT
BRANCH   1  15
HETATM   15  C9  UNL     1      25.016   0.873  53.140  1.00  0.00     0.039 C 
BRANCH  15  16
HETATM   16  C8  UNL     1      26.332   1.403  52.712  1.00  0.00     0.046 C 
BRANCH  16  17
HETATM   17  C7  UNL     1      27.415   0.447  52.942  1.00  0.00    -0.052 A 
HETATM   18  C2  UNL     1      28.594   1.016  53.424  1.00  0.00    -0.056 A 
HETATM   19  C1  UNL     1      28.722   2.488  53.639  1.00  0.00     0.049 C 
HETATM   20  C3  UNL     1      29.701   0.238  53.709  1.00  0.00     0.007 A 
HETATM   21  C4  UNL     1      29.552  -1.106  53.488  1.00  0.00     0.001 A 
HETATM   22  C5  UNL     1      28.430  -1.776  53.014  1.00  0.00     0.001 A 
HETATM   23  C6  UNL     1      27.366  -0.914  52.754  1.00  0.00     0.007 A 
ENDBRANCH  16  17
ENDBRANCH  15  16
ENDBRANCH   1  15
BRANCH   5  24
HETATM   24  C13 UNL     1      22.170   1.660  49.016  1.00  0.00     0.155 C 
HETATM   25 CL1  UNL     1      22.441   3.410  49.178  1.00  0.00    -0.126 Cl
ENDBRANCH   5  24
TORSDOF 4
ENDMDL
MODEL 2
REMARK VINA RESULT:      -8.9      1.965      3.432
REMARK  4 active torsions:
REMARK  status: ('A' for Active; 'I' for Inactive)
REMARK    1  A    between atoms: C7_7  and  C8_8 
REMARK    2  A    between atoms: C8_8  and  C9_9 
REMARK    3  A    between atoms: C9_9  and  C10_10 
REMARK    4  A    between atoms: C12_14  and  C13_15 
ROOT
HETATM    1  C10 UNL     1      24.140   1.778  51.740  1.00  0.00     0.208 A 
HETATM    2  N1  UNL     1      23.493   0.587  52.270  1.00  0.00     0.135 N 
HETATM    3  C11 UNL     1      22.130   0.387  52.829  1.00  0.00     0.212 A 
HETATM    4  O1  UNL     1      23.174   0.610  52.383  1.00  0.00     0.000 OA
HETATM    5  C12 UNL     1      20.829   0.198  53.350  1.00  0.00    -0.005 C 
HETATM    6  C14 UNL     1      19.722   0.278  52.651  1.00  0.00     0.010 C 
HETATM    7  C15 UNL     1      19.254   0.533  51.295  1.00  0.00    -0.003 C 
HETATM    8  C16 UNL     1      19.915   0.790  50.159  1.00  0.00    -0.027 C 
HETATM    9  C17 UNL     1      21.342   0.907  49.805  1.00  0.00     0.027 C 
HETATM   10  C18 UNL     1      21.827   2.226  49.402  1.00  0.00     0.004 C 
HETATM   11  C19 UNL     1      23.289   2.531  49.463  1.00  0.00     0.007 C 
HETATM   12  C20 UNL     1      23.899   2.813  50.768  1.00  0.00     0.024 C 
HETATM   13  C21 UNL     1      24.986   3.877  50.661  1.00  0.00     0.012 C 
HETATM   14  H11 UNL     1      24.229  -0.310  52.183  1.00  0.00     0.324 HD
ENDROOT
BRANCH   1  15
HETATM   15  C9  UNL     1      25.330   1.977  52.419  1.00  0.00     0.039 C 
BRANCH  15  16
HETATM   16  C8  UNL     1      26.348   1.890  53.494  1.00  0.00     0.046 C 
BRANCH  16  17
HETATM   17  C7  UNL     1      27.195   0.706  53.359  1.00  0.00    -0.052 A 
HETATM   18  C2  UNL     1      28.543   0.924  53.645  1.00  0.00    -0.056 A 
HETATM   19  C1  UNL     1      29.054   2.277  54.019  1.00  0.00     0.049 C 
HETATM   20  C3  UNL     1      29.465  -0.104  53.582  1.00  0.00     0.007 A 
HETATM   21  C4  UNL     1      28.963  -1.328  53.224  1.00  0.00     0.001 A 
HETATM   22  C5  UNL     1      27.647  -1.656  52.918  1.00  0.00     0.001 A 
HETATM   23  C6  UNL     1      26.791  -0.561  53.008  1.00  0.00     0.007 A 
ENDBRANCH  16  17
ENDBRANCH  15  16
ENDBRANCH   1  15
BRANCH   5  24
HETATM   24  C13 UNL     1      21.275  -0.038  54.706  1.00  0.00     0.155 C 
HETATM   25 CL1  UNL     1      22.114  -1.602  54.826  1.00  0.00    -0.126 Cl
ENDBRANCH   5  24
TORSDOF 4
ENDMDL
MODEL 3
REMARK VINA RESULT:      -8.6      2.336      3.367
REMARK  4 active torsions:
REMARK  status: ('A' for Active; 'I' for Inactive)
REMARK    1  A    between atoms: C7_7  and  C8_8 
REMARK    2  A    between atoms: C8_8  and  C9_9 
REMARK    3  A    between atoms: C9_9  and  C10_10 
REMARK    4  A    between atoms: C12_14  and  C13_15 
ROOT
HETATM    1  C10 UNL     1      24.331   1.858  52.721  1.00  0.00     0.208 A 
HETATM    2  N1  UNL     1      24.842   3.129  52.230  1.00  0.00     0.135 N 
HETATM    3  C11 UNL     1      24.952   3.666  50.848  1.00  0.00     0.212 A 
HETATM    4  O1  UNL     1      24.838   3.190  51.897  1.00  0.00     0.000 OA
HETATM    5  C12 UNL     1      25.044   4.177  49.533  1.00  0.00    -0.005 C 
HETATM    6  C14 UNL     1      24.019   4.494  48.777  1.00  0.00     0.010 C 
HETATM    7  C15 UNL     1      22.563   4.521  48.797  1.00  0.00    -0.003 C 
HETATM    8  C16 UNL     1      21.679   4.193  49.748  1.00  0.00    -0.027 C 
HETATM    9  C17 UNL     1      21.797   3.697  51.132  1.00  0.00     0.027 C 
HETATM   10  C18 UNL     1      21.325   2.339  51.400  1.00  0.00     0.004 C 
HETATM   11  C19 UNL     1      21.800   1.613  52.617  1.00  0.00     0.007 C 
HETATM   12  C20 UNL     1      23.151   1.039  52.615  1.00  0.00     0.024 C 
HETATM   13  C21 UNL     1      23.201  -0.282  53.376  1.00  0.00     0.012 C 
HETATM   14  H11 UNL     1      25.178   3.774  53.138  1.00  0.00     0.324 HD
ENDROOT
BRANCH   1  15
HETATM   15  C9  UNL     1      25.311   1.253  53.491  1.00  0.00     0.039 C 
BRANCH  15  16
HETATM   16  C8  UNL     1      26.628   1.015  54.128  1.00  0.00     0.046 C 
BRANCH  16  17
HETATM   17  C7  UNL     1      27.271  -0.200  53.629  1.00  0.00    -0.052 A 
HETATM   18  C2  UNL     1      28.652  -0.242  53.821  1.00  0.00    -0.056 A 
HETATM   19  C1  UNL     1      29.389   0.892  54.454  1.00  0.00     0.049 C 
HETATM   20  C3  UNL     1      29.399  -1.335  53.420  1.00  0.00     0.007 A 
HETATM   21  C4  UNL     1      28.692  -2.351  52.833  1.00  0.00     0.001 A 
HETATM   22  C5  UNL     1      27.324  -2.414  52.593  1.00  0.00     0.001 A 
HETATM   23  C6  UNL     1      26.654  -1.273  53.029  1.00  0.00     0.007 A 
ENDBRANCH  16  17
ENDBRANCH  15  16
ENDBRANCH   1  15
BRANCH   5  24
HETATM   24  C13 UNL     1      26.490   4.138  49.489  1.00  0.00     0.155 C 
HETATM   25 CL1  UNL     1      27.126   5.522  48.570  1.00  0.00    -0.126 Cl
ENDBRANCH   5  24
TORSDOF 4
ENDMDL
MODEL 4
REMARK VINA RESULT:      -8.5      3.070      5.459
REMARK  4 active torsions:
REMARK  status: ('A' for Active; 'I' for Inactive)
REMARK    1  A    between atoms: C7_7  and  C8_8 
REMARK    2  A    between atoms: C8_8  and  C9_9 
REMARK    3  A    between atoms: C9_9  and  C10_10 
REMARK    4  A    between atoms: C12_14  and  C13_15 
ROOT
HETATM    1  C10 UNL     1      22.433   2.241  51.659  1.00  0.00     0.208 A 
HETATM    2  N1  UNL     1      23.434   1.186  51.642  1.00  0.00     0.135 N 
HETATM    3  C11 UNL     1      24.213   0.564  52.746  1.00  0.00     0.212 A 
HETATM    4  O1  UNL     1      23.575   1.089  51.934  1.00  0.00     0.000 OA
HETATM    5  C12 UNL     1      24.944  -0.031  53.799  1.00  0.00    -0.005 C 
HETATM    6  C14 UNL     1      24.423  -0.777  54.745  1.00  0.00     0.010 C 
HETATM    7  C15 UNL     1      23.145  -1.315  55.189  1.00  0.00    -0.003 C 
HETATM    8  C16 UNL     1      21.910  -1.212  54.680  1.00  0.00    -0.027 C 
HETATM    9  C17 UNL     1      21.342  -0.549  53.492  1.00  0.00     0.027 C 
HETATM   10  C18 UNL     1      20.435   0.576  53.721  1.00  0.00     0.004 C 
HETATM   11  C19 UNL     1      20.179   1.560  52.626  1.00  0.00     0.007 C 
HETATM   12  C20 UNL     1      21.202   2.571  52.331  1.00  0.00     0.024 C 
HETATM   13  C21 UNL     1      20.575   3.904  51.932  1.00  0.00     0.012 C 
HETATM   14  H11 UNL     1      23.567   0.813  50.548  1.00  0.00     0.324 HD
ENDROOT
BRANCH   1  15
HETATM   15  C9  UNL     1      22.824   3.240  50.782  1.00  0.00     0.039 C 
BRANCH  15  16
HETATM   16  C8  UNL     1      23.085   3.942  49.503  1.00  0.00     0.046 C 
BRANCH  16  17
HETATM   17  C7  UNL     1      24.505   4.234  49.313  1.00  0.00    -0.052 A 
HETATM   18  C2  UNL     1      24.771   5.513  48.823  1.00  0.00    -0.056 A 
HETATM   19  C1  UNL     1      23.671   6.469  48.494  1.00  0.00     0.049 C 
HETATM   20  C3  UNL     1      26.067   5.945  48.610  1.00  0.00     0.007 A 
HETATM   21  C4  UNL     1      27.050   5.038  48.911  1.00  0.00     0.001 A 
HETATM   22  C5  UNL     1      26.899   3.745  49.401  1.00  0.00     0.001 A 
HETATM   23  C6  UNL     1      25.563   3.398  49.584  1.00  0.00     0.007 A 
ENDBRANCH  16  17
ENDBRANCH  15  16
ENDBRANCH   1  15
BRANCH   5  24
HETATM   24  C13 UNL     1      26.219   0.511  53.384  1.00  0.00     0.155 C 
HETATM   25 CL1  UNL     1      26.764  -0.256  51.875  1.00  0.00    -0.126 Cl
ENDBRANCH   5  24
TORSDOF 4
ENDMDL
MODEL 5
REMARK VINA RESULT:      -8.1      2.734      6.235
REMARK  4 active torsions:
REMARK  status: ('A' for Active; 'I' for Inactive)
REMARK    1  A    between atoms: C7_7  and  C8_8 
REMARK    2  A    between atoms: C8_8  and  C9_9 
REMARK    3  A    between atoms: C9_9  and  C10_10 
REMARK    4  A    between atoms: C12_14  and  C13_15 
ROOT
HETATM    1  C10 UNL     1      23.390   2.139  51.939  1.00  0.00     0.208 A 
HETATM    2  N1  UNL     1      24.209   0.941  52.039  1.00  0.00     0.135 N 
HETATM    3  C11 UNL     1      24.719   0.207  53.228  1.00  0.00     0.212 A 
HETATM    4  O1  UNL     1      24.291   0.823  52.347  1.00  0.00     0.000 OA
HETATM    5  C12 UNL     1      25.194  -0.493  54.361  1.00  0.00    -0.005 C 
HETATM    6  C14 UNL     1      24.437  -1.149  55.209  1.00  0.00     0.010 C 
HETATM    7  C15 UNL     1      23.041  -1.482  55.457  1.00  0.00    -0.003 C 
HETATM    8  C16 UNL     1      21.922  -1.190  54.783  1.00  0.00    -0.027 C 
HETATM    9  C17 UNL     1      21.636  -0.447  53.541  1.00  0.00     0.027 C 
HETATM   10  C18 UNL     1      20.889   0.804  53.665  1.00  0.00     0.004 C 
HETATM   11  C19 UNL     1      20.944   1.815  52.566  1.00  0.00     0.007 C 
HETATM   12  C20 UNL     1      22.141   2.655  52.438  1.00  0.00     0.024 C 
HETATM   13  C21 UNL     1      21.789   4.068  51.984  1.00  0.00     0.012 C 
HETATM   14  H11 UNL     1      24.437   0.551  50.968  1.00  0.00     0.324 HD
ENDROOT
BRANCH   1  15
HETATM   15  C9  UNL     1      24.050   3.064  51.147  1.00  0.00     0.039 C 
BRANCH  15  16
HETATM   16  C8  UNL     1      24.549   3.745  49.929  1.00  0.00     0.046 C 
BRANCH  16  17
HETATM   17  C7  UNL     1      23.558   3.751  48.854  1.00  0.00    -0.052 A 
HETATM   18  C2  UNL     1      23.328   5.005  48.287  1.00  0.00    -0.056 A 
HETATM   19  C1  UNL     1      24.025   6.228  48.785  1.00  0.00     0.049 C 
HETATM   20  C3  UNL     1      22.433   5.169  47.246  1.00  0.00     0.007 A 
HETATM   21  C4  UNL     1      21.803   4.027  46.822  1.00  0.00     0.001 A 
HETATM   22  C5  UNL     1      21.955   2.735  47.312  1.00  0.00     0.001 A 
HETATM   23  C6  UNL     1      22.874   2.666  48.357  1.00  0.00     0.007 A 
ENDBRANCH  16  17
ENDBRANCH  15  16
ENDBRANCH   1  15
BRANCH   5  24
HETATM   24  C13 UNL     1      26.583  -0.155  54.140  1.00  0.00     0.155 C 
HETATM   25 CL1  UNL     1      27.216  -1.008  52.713  1.00  0.00    -0.126 Cl
ENDBRANCH   5  24
TORSDOF 4
ENDMDL
MODEL 6
REMARK VINA RESULT:      -8.1      7.754     11.576
REMARK  4 active torsions:
REMARK  status: ('A' for Active; 'I' for Inactive)
REMARK    1  A    between atoms: C7_7  and  C8_8 
REMARK    2  A    between atoms: C8_8  and  C9_9 
REMARK    3  A    between atoms: C9_9  and  C10_10 
REMARK    4  A    between atoms: C12_14  and  C13_15 
ROOT
HETATM    1  C10 UNL     1      30.737   6.491  47.776  1.00  0.00     0.208 A 
HETATM    2  N1  UNL     1      30.922   5.086  48.103  1.00  0.00     0.135 N 
HETATM    3  C11 UNL     1      31.812   4.056  47.504  1.00  0.00     0.212 A 
HETATM    4  O1  UNL     1      31.146   4.904  47.924  1.00  0.00     0.000 OA
HETATM    5  C12 UNL     1      32.668   3.083  46.939  1.00  0.00    -0.005 C 
HETATM    6  C14 UNL     1      33.978   3.097  47.020  1.00  0.00     0.010 C 
HETATM    7  C15 UNL     1      35.069   3.883  47.579  1.00  0.00    -0.003 C 
HETATM    8  C16 UNL     1      35.075   5.004  48.311  1.00  0.00    -0.027 C 
HETATM    9  C17 UNL     1      34.022   5.880  48.856  1.00  0.00     0.027 C 
HETATM   10  C18 UNL     1      33.927   7.234  48.310  1.00  0.00     0.004 C 
HETATM   11  C19 UNL     1      32.660   8.011  48.464  1.00  0.00     0.007 C 
HETATM   12  C20 UNL     1      31.522   7.686  47.595  1.00  0.00     0.024 C 
HETATM   13  C21 UNL     1      30.735   8.935  47.210  1.00  0.00     0.012 C 
HETATM   14  H11 UNL     1      30.238   4.817  49.004  1.00  0.00     0.324 HD
ENDROOT
BRANCH   1  15
HETATM   15  C9  UNL     1      29.392   6.717  47.531  1.00  0.00     0.039 C 
BRANCH  15  16
HETATM   16  C8  UNL     1      27.991   7.143  47.760  1.00  0.00     0.046 C 
BRANCH  16  17
HETATM   17  C7  UNL     1      27.187   6.089  48.379  1.00  0.00    -0.052 A 
HETATM   18  C2  UNL     1      25.854   6.435  48.599  1.00  0.00    -0.056 A 
HETATM   19  C1  UNL     1      25.330   7.790  48.255  1.00  0.00     0.049 C 
HETATM   20  C3  UNL     1      24.963   5.537  49.158  1.00  0.00     0.007 A 
HETATM   21  C4  UNL     1      25.482   4.307  49.472  1.00  0.00     0.001 A 
HETATM   22  C5  UNL     1      26.786   3.859  49.297  1.00  0.00     0.001 A 
HETATM   23  C6  UNL     1      27.610   4.829  48.729  1.00  0.00     0.007 A 
ENDBRANCH  16  17
ENDBRANCH  15  16
ENDBRANCH   1  15
BRANCH   5  24
HETATM   24  C13 UNL     1      31.596   2.301  46.360  1.00  0.00     0.155 C 
HETATM   25 CL1  UNL     1      31.886   0.564  46.606  1.00  0.00    -0.126 Cl
ENDBRANCH   5  24
TORSDOF 4
ENDMDL
MODEL 7
REMARK VINA RESULT:      -8.0      4.557      6.492
REMARK  4 active torsions:
REMARK  status: ('A' for Active; 'I' for Inactive)
REMARK    1  A    between atoms: C7_7  and  C8_8 
REMARK    2  A    between atoms: C8_8  and  C9_9 
REMARK    3  A    between atoms: C9_9  and  C10_10 
REMARK    4  A    between atoms: C12_14  and  C13_15 
ROOT
HETATM    1  C10 UNL     1      23.311   4.866  51.247  1.00  0.00     0.208 A 
HETATM    2  N1  UNL     1      24.711   5.245  51.126  1.00  0.00     0.135 N 
HETATM    3  C11 UNL     1      25.514   5.636  49.937  1.00  0.00     0.212 A 
HETATM    4  O1  UNL     1      24.833   5.324  50.820  1.00  0.00     0.000 OA
HETATM    5  C12 UNL     1      26.272   6.017  48.807  1.00  0.00    -0.005 C 
HETATM    6  C14 UNL     1      26.092   7.121  48.120  1.00  0.00     0.010 C 
HETATM    7  C15 UNL     1      25.252   8.311  48.089  1.00  0.00    -0.003 C 
HETATM    8  C16 UNL     1      24.257   8.719  48.885  1.00  0.00    -0.027 C 
HETATM    9  C17 UNL     1      23.618   8.169  50.095  1.00  0.00     0.027 C 
HETATM   10  C18 UNL     1      22.226   7.735  49.980  1.00  0.00     0.004 C 
HETATM   11  C19 UNL     1      21.658   6.783  50.983  1.00  0.00     0.007 C 
HETATM   12  C20 UNL     1      22.008   5.360  50.884  1.00  0.00     0.024 C 
HETATM   13  C21 UNL     1      20.836   4.466  51.275  1.00  0.00     0.012 C 
HETATM   14  H11 UNL     1      25.195   5.233  52.183  1.00  0.00     0.324 HD
ENDROOT
BRANCH   1  15
HETATM   15  C9  UNL     1      23.238   3.631  51.871  1.00  0.00     0.039 C 
BRANCH  15  16
HETATM   16  C8  UNL     1      23.451   2.573  52.887  1.00  0.00     0.046 C 
BRANCH  16  17
HETATM   17  C7  UNL     1      24.636   1.764  52.602  1.00  0.00    -0.052 A 
HETATM   18  C2  UNL     1      24.523   0.424  52.972  1.00  0.00    -0.056 A 
HETATM   19  C1  UNL     1      23.294  -0.103  53.636  1.00  0.00     0.049 C 
HETATM   20  C3  UNL     1      25.553  -0.471  52.749  1.00  0.00     0.007 A 
HETATM   21  C4  UNL     1      26.670   0.050  52.149  1.00  0.00     0.001 A 
HETATM   22  C5  UNL     1      26.889   1.362  51.742  1.00  0.00     0.001 A 
HETATM   23  C6  UNL     1      25.800   2.190  52.005  1.00  0.00     0.007 A 
ENDBRANCH  16  17
ENDBRANCH  15  16
ENDBRANCH   1  15
BRANCH   5  24
HETATM   24  C13 UNL     1      27.102   4.832  48.811  1.00  0.00     0.155 C 
HETATM   25 CL1  UNL     1      28.761   5.227  48.306  1.00  0.00    -0.126 Cl
ENDBRANCH   5  24
TORSDOF 4
ENDMDL
MODEL 8
REMARK VINA RESULT:      -8.0      3.248      5.199
REMARK  4 active torsions:
REMARK  status: ('A' for Active; 'I' for Inactive)
REMARK    1  A    between atoms: C7_7  and  C8_8 
REMARK    2  A    between atoms: C8_8  and  C9_9 
REMARK    3  A    between atoms: C9_9  and  C10_10 
REMARK    4  A    between atoms: C12_14  and  C13_15 
ROOT
HETATM    1  C10 UNL     1      24.351   1.699  52.053  1.00  0.00     0.208 A 
HETATM    2  N1  UNL     1      23.047   1.861  52.678  1.00  0.00     0.135 N 
HETATM    3  C11 UNL     1      21.943   0.887  52.893  1.00  0.00     0.212 A 
HETATM    4  O1  UNL     1      22.839   1.593  52.695  1.00  0.00     0.000 OA
HETATM    5  C12 UNL     1      20.901  -0.043  53.105  1.00  0.00    -0.005 C 
HETATM    6  C14 UNL     1      20.968  -1.075  53.915  1.00  0.00     0.010 C 
HETATM    7  C15 UNL     1      21.882  -1.729  54.841  1.00  0.00    -0.003 C 
HETATM    8  C16 UNL     1      23.128  -1.425  55.227  1.00  0.00    -0.027 C 
HETATM    9  C17 UNL     1      24.066  -0.334  54.903  1.00  0.00     0.027 C 
HETATM   10  C18 UNL     1      25.278  -0.689  54.165  1.00  0.00     0.004 C 
HETATM   11  C19 UNL     1      26.033   0.367  53.423  1.00  0.00     0.007 C 
HETATM   12  C20 UNL     1      25.506   0.842  52.138  1.00  0.00     0.024 C 
HETATM   13  C21 UNL     1      26.628   1.156  51.153  1.00  0.00     0.012 C 
HETATM   14  H11 UNL     1      22.946   2.955  53.059  1.00  0.00     0.324 HD
ENDROOT
BRANCH   1  15
HETATM   15  C9  UNL     1      24.484   2.645  51.050  1.00  0.00     0.039 C 
BRANCH  15  16
HETATM   16  C8  UNL     1      24.182   3.422  49.824  1.00  0.00     0.046 C 
BRANCH  16  17
HETATM   17  C7  UNL     1      25.329   4.209  49.373  1.00  0.00    -0.052 A 
HETATM   18  C2  UNL     1      25.027   5.529  49.038  1.00  0.00    -0.056 A 
HETATM   19  C1  UNL     1      23.631   6.055  49.109  1.00  0.00     0.049 C 
HETATM   20  C3  UNL     1      26.010   6.404  48.613  1.00  0.00     0.007 A 
HETATM   21  C4  UNL     1      27.276   5.884  48.548  1.00  0.00     0.001 A 
HETATM   22  C5  UNL     1      27.687   4.592  48.855  1.00  0.00     0.001 A 
HETATM   23  C6  UNL     1      26.633   3.783  49.273  1.00  0.00     0.007 A 
ENDBRANCH  16  17
ENDBRANCH  15  16
ENDBRANCH   1  15
BRANCH   5  24
HETATM   24  C13 UNL     1      19.988   0.583  52.174  1.00  0.00     0.155 C 
HETATM   25 CL1  UNL     1      18.518  -0.400  51.982  1.00  0.00    -0.126 Cl
ENDBRANCH   5  24
TORSDOF 4
ENDMDL
MODEL 9
REMARK VINA RESULT:      -8.0      2.797      4.060
REMARK  4 active torsions:
REMARK  status: ('A' for Active; 'I' for Inactive)
REMARK    1  A    between atoms: C7_7  and  C8_8 
REMARK    2  A    between atoms: C8_8  and  C9_9 
REMARK    3  A    between atoms: C9_9  and  C10_10 
REMARK    4  A    between atoms: C12_14  and  C13_15 
ROOT
HETATM    1  C10 UNL     1      23.655   2.273  52.331  1.00  0.00     0.208 A 
HETATM    2  N1  UNL     1      24.468   3.467  52.161  1.00  0.00     0.135 N 
HETATM    3  C11 UNL     1      24.685   4.335  50.973  1.00  0.00     0.212 A 
HETATM    4  O1  UNL     1      24.473   3.620  51.858  1.00  0.00     0.000 OA
HETATM    5  C12 UNL     1      24.881   5.165  49.845  1.00  0.00    -0.005 C 
HETATM    6  C14 UNL     1      23.958   5.925  49.303  1.00  0.00     0.010 C 
HETATM    7  C15 UNL     1      22.560   6.298  49.465  1.00  0.00    -0.003 C 
HETATM    8  C16 UNL     1      21.640   5.935  50.368  1.00  0.00    -0.027 C 
HETATM    9  C17 UNL     1      21.653   5.049  51.547  1.00  0.00     0.027 C 
HETATM   10  C18 UNL     1      20.850   3.828  51.477  1.00  0.00     0.004 C 
HETATM   11  C19 UNL     1      21.145   2.690  52.400  1.00  0.00     0.007 C 
HETATM   12  C20 UNL     1      22.301   1.831  52.116  1.00  0.00     0.024 C 
HETATM   13  C21 UNL     1      22.021   0.376  52.479  1.00  0.00     0.012 C 
HETATM   14  H11 UNL     1      24.978   3.722  53.174  1.00  0.00     0.324 HD
ENDROOT
BRANCH   1  15
HETATM   15  C9  UNL     1      24.459   1.253  52.813  1.00  0.00     0.039 C 
BRANCH  15  16
HETATM   16  C8  UNL     1      25.351   0.069  52.813  1.00  0.00     0.046 C 
BRANCH  16  17
HETATM   17  C7  UNL     1      26.732   0.418  53.140  1.00  0.00    -0.052 A 
HETATM   18  C2  UNL     1      27.628  -0.650  53.077  1.00  0.00    -0.056 A 
HETATM   19  C1  UNL     1      27.175  -2.032  52.736  1.00  0.00     0.049 C 
HETATM   20  C3  UNL     1      28.974  -0.474  53.340  1.00  0.00     0.007 A 
HETATM   21  C4  UNL     1      29.351   0.804  53.661  1.00  0.00     0.001 A 
HETATM   22  C5  UNL     1      28.548   1.936  53.754  1.00  0.00     0.001 A 
HETATM   23  C6  UNL     1      27.211   1.664  53.472  1.00  0.00     0.007 A 
ENDBRANCH  16  17
ENDBRANCH  15  16
ENDBRANCH   1  15
BRANCH   5  24
HETATM   24  C13 UNL     1      26.266   4.790  49.658  1.00  0.00     0.155 C 
HETATM   25 CL1  UNL     1      26.412   3.035  49.412  1.00  0.00    -0.126 Cl
ENDBRANCH   5  24
TORSDOF 4
ENDMDL
