MODEL 1
REMARK VINA RESULT:      -7.4      0.000      0.000
REMARK  7 active torsions:
REMARK  status: ('A' for Active; 'I' for Inactive)
REMARK    1  A    between atoms: N2_5  and  C4_6 
REMARK    2  A    between atoms: C7_9  and  N3_10 
REMARK       I    between atoms: N3_10  and  C8_11 
REMARK    3  A    between atoms: C8_11  and  C9_13 
REMARK    4  A    between atoms: C9_13  and  C10_14 
REMARK       I    between atoms: C10_14  and  N4_16 
REMARK    5  A    between atoms: N4_16  and  C11_17 
REMARK    6  A    between atoms: C12_18  and  C13_19 
REMARK    7  A    between atoms: C13_19  and  N5_20 
ROOT
HETATM    1  N3  UNL     1      24.338   2.672  50.495  1.00  0.00    -0.327 N 
HETATM    2  C8  UNL     1      24.508   2.296  51.854  1.00  0.00     0.231 C 
HETATM    3  O1  UNL     1      25.375   2.870  52.563  1.00  0.00    -0.273 OA
HETATM    4  H10 UNL     1      23.592   2.128  50.011  1.00  0.00     0.169 HD
ENDROOT
BRANCH   1   5
HETATM    5  C7  UNL     1      25.165   3.702  49.967  1.00  0.00     0.034 A 
HETATM    6  C6  UNL     1      26.433   3.429  49.499  1.00  0.00     0.032 A 
HETATM    7  C5  UNL     1      27.220   4.439  48.990  1.00  0.00     0.031 A 
HETATM    8  C4  UNL     1      26.818   5.747  48.913  1.00  0.00     0.030 A 
HETATM    9  C15 UNL     1      25.555   6.001  49.383  1.00  0.00     0.031 A 
HETATM   10  C14 UNL     1      24.743   5.013  49.897  1.00  0.00     0.032 A 
BRANCH   8  11
HETATM   11  N2  UNL     1      27.648   6.768  48.386  1.00  0.00    -0.378 N 
HETATM   12  C3  UNL     1      28.951   6.656  47.837  1.00  0.00     0.142 C 
HETATM   13  C2  UNL     1      30.023   7.470  48.490  1.00  0.00     0.136 C 
HETATM   14  N1  UNL     1      29.608   8.750  48.963  1.00  0.00    -0.414 N 
HETATM   15  C1  UNL     1      30.275   9.877  48.398  1.00  0.00     0.143 C 
HETATM   16  C17 UNL     1      28.235   8.894  49.260  1.00  0.00     0.136 C 
HETATM   17  C16 UNL     1      27.308   8.166  48.306  1.00  0.00     0.142 C 
ENDBRANCH   8  11
ENDBRANCH   1   5
BRANCH   2  18
HETATM   18  C9  UNL     1      23.758   1.252  52.606  1.00  0.00     0.206 C 
BRANCH  18  19
HETATM   19  C10 UNL     1      24.724   0.193  52.973  1.00  0.00     0.230 C 
HETATM   20  O2  UNL     1      24.368  -0.518  53.939  1.00  0.00    -0.273 OA
HETATM   21  N4  UNL     1      25.919   0.086  52.225  1.00  0.00    -0.337 N 
HETATM   22  H13 UNL     1      26.113   0.748  51.424  1.00  0.00     0.168 HD
BRANCH  21  23
HETATM   23  C11 UNL     1      26.887  -0.912  52.528  1.00  0.00     0.088 C 
HETATM   24  C12 UNL     1      28.100  -0.903  53.033  1.00  0.00     0.020 C 
BRANCH  24  25
HETATM   25  C13 UNL     1      29.142  -1.892  53.368  1.00  0.00     0.295 C 
BRANCH  25  26
HETATM   26  N5  UNL     1      28.639  -3.228  53.186  1.00  0.00     0.081 N 
HETATM   27  H18 UNL     1      27.642  -3.269  52.924  1.00  0.00     0.313 HD
HETATM   28  H19 UNL     1      28.906  -3.799  53.999  1.00  0.00     0.313 HD
ENDBRANCH  25  26
ENDBRANCH  24  25
ENDBRANCH  21  23
ENDBRANCH  18  19
ENDBRANCH   2  18
TORSDOF 7
ENDMDL
MODEL 2
REMARK VINA RESULT:      -6.7      5.449      8.490
REMARK  7 active torsions:
REMARK  status: ('A' for Active; 'I' for Inactive)
REMARK    1  A    between atoms: N2_5  and  C4_6 
REMARK    2  A    between atoms: C7_9  and  N3_10 
REMARK       I    between atoms: N3_10  and  C8_11 
REMARK    3  A    between atoms: C8_11  and  C9_13 
REMARK    4  A    between atoms: C9_13  and  C10_14 
REMARK       I    between atoms: C10_14  and  N4_16 
REMARK    5  A    between atoms: N4_16  and  C11_17 
REMARK    6  A    between atoms: C12_18  and  C13_19 
REMARK    7  A    between atoms: C13_19  and  N5_20 
ROOT
HETATM    1  N3  UNL     1      20.096   1.153  53.071  1.00  0.00    -0.327 N 
HETATM    2  C8  UNL     1      19.304   0.602  52.028  1.00  0.00     0.231 C 
HETATM    3  O1  UNL     1      19.851  -0.039  51.092  1.00  0.00    -0.273 OA
HETATM    4  H10 UNL     1      19.533   1.660  53.786  1.00  0.00     0.169 HD
ENDROOT
BRANCH   1   5
HETATM    5  C7  UNL     1      21.504   0.961  53.028  1.00  0.00     0.034 A 
HETATM    6  C6  UNL     1      22.334   1.895  52.443  1.00  0.00     0.032 A 
HETATM    7  C5  UNL     1      23.697   1.693  52.411  1.00  0.00     0.031 A 
HETATM    8  C4  UNL     1      24.311   0.587  52.938  1.00  0.00     0.030 A 
HETATM    9  C15 UNL     1      23.472  -0.332  53.514  1.00  0.00     0.031 A 
HETATM   10  C14 UNL     1      22.105  -0.159  53.563  1.00  0.00     0.032 A 
BRANCH   8  11
HETATM   11  N2  UNL     1      25.715   0.402  52.890  1.00  0.00    -0.378 N 
HETATM   12  C3  UNL     1      26.510  -0.535  53.600  1.00  0.00     0.142 C 
HETATM   13  C2  UNL     1      27.594   0.027  54.464  1.00  0.00     0.136 C 
HETATM   14  N1  UNL     1      28.238   1.190  53.947  1.00  0.00    -0.414 N 
HETATM   15  C1  UNL     1      29.642   1.084  53.719  1.00  0.00     0.143 C 
HETATM   16  C17 UNL     1      27.491   1.968  53.035  1.00  0.00     0.136 C 
HETATM   17  C16 UNL     1      26.633   1.160  52.079  1.00  0.00     0.142 C 
ENDBRANCH   8  11
ENDBRANCH   1   5
BRANCH   2  18
HETATM   18  C9  UNL     1      17.825   0.682  51.874  1.00  0.00     0.206 C 
BRANCH  18  19
HETATM   19  C10 UNL     1      17.240  -0.438  52.646  1.00  0.00     0.230 C 
HETATM   20  O2  UNL     1      16.053  -0.258  52.995  1.00  0.00    -0.273 OA
HETATM   21  N4  UNL     1      18.049  -1.567  52.908  1.00  0.00    -0.337 N 
HETATM   22  H13 UNL     1      19.047  -1.607  52.560  1.00  0.00     0.168 HD
BRANCH  21  23
HETATM   23  C11 UNL     1      17.545  -2.676  53.644  1.00  0.00     0.088 C 
HETATM   24  C12 UNL     1      16.910  -3.783  53.333  1.00  0.00     0.020 C 
BRANCH  24  25
HETATM   25  C13 UNL     1      16.368  -4.957  54.041  1.00  0.00     0.295 C 
BRANCH  25  26
HETATM   26  N5  UNL     1      15.019  -4.699  54.475  1.00  0.00     0.081 N 
HETATM   27  H18 UNL     1      14.566  -3.911  53.988  1.00  0.00     0.313 HD
HETATM   28  H19 UNL     1      15.003  -4.653  55.502  1.00  0.00     0.313 HD
ENDBRANCH  25  26
ENDBRANCH  24  25
ENDBRANCH  21  23
ENDBRANCH  18  19
ENDBRANCH   2  18
TORSDOF 7
ENDMDL
MODEL 3
REMARK VINA RESULT:      -6.6      2.250      2.936
REMARK  7 active torsions:
REMARK  status: ('A' for Active; 'I' for Inactive)
REMARK    1  A    between atoms: N2_5  and  C4_6 
REMARK    2  A    between atoms: C7_9  and  N3_10 
REMARK       I    between atoms: N3_10  and  C8_11 
REMARK    3  A    between atoms: C8_11  and  C9_13 
REMARK    4  A    between atoms: C9_13  and  C10_14 
REMARK       I    between atoms: C10_14  and  N4_16 
REMARK    5  A    between atoms: N4_16  and  C11_17 
REMARK    6  A    between atoms: C12_18  and  C13_19 
REMARK    7  A    between atoms: C13_19  and  N5_20 
ROOT
HETATM    1  N3  UNL     1      23.704   4.431  49.567  1.00  0.00    -0.327 N 
HETATM    2  C8  UNL     1      23.225   4.715  50.873  1.00  0.00     0.231 C 
HETATM    3  O1  UNL     1      23.940   5.367  51.678  1.00  0.00    -0.273 OA
HETATM    4  H10 UNL     1      23.025   3.885  48.993  1.00  0.00     0.169 HD
ENDROOT
BRANCH   1   5
HETATM    5  C7  UNL     1      24.995   4.900  49.199  1.00  0.00     0.034 A 
HETATM    6  C6  UNL     1      25.180   6.183  48.730  1.00  0.00     0.032 A 
HETATM    7  C5  UNL     1      26.439   6.621  48.379  1.00  0.00     0.031 A 
HETATM    8  C4  UNL     1      27.563   5.842  48.465  1.00  0.00     0.030 A 
HETATM    9  C15 UNL     1      27.361   4.570  48.933  1.00  0.00     0.031 A 
HETATM   10  C14 UNL     1      26.116   4.102  49.293  1.00  0.00     0.032 A 
BRANCH   8  11
HETATM   11  N2  UNL     1      28.847   6.316  48.096  1.00  0.00    -0.378 N 
HETATM   12  C3  UNL     1      30.072   5.602  48.034  1.00  0.00     0.142 C 
HETATM   13  C2  UNL     1      31.193   6.124  48.875  1.00  0.00     0.136 C 
HETATM   14  N1  UNL     1      31.257   7.545  48.986  1.00  0.00    -0.414 N 
HETATM   15  C1  UNL     1      32.452   8.161  48.512  1.00  0.00     0.143 C 
HETATM   16  C17 UNL     1      30.045   8.244  48.786  1.00  0.00     0.136 C 
HETATM   17  C16 UNL     1      29.160   7.665  47.699  1.00  0.00     0.142 C 
ENDBRANCH   8  11
ENDBRANCH   1   5
BRANCH   2  18
HETATM   18  C9  UNL     1      21.915   4.323  51.464  1.00  0.00     0.206 C 
BRANCH  18  19
HETATM   19  C10 UNL     1      22.095   2.998  52.097  1.00  0.00     0.230 C 
HETATM   20  O2  UNL     1      21.033   2.358  52.262  1.00  0.00    -0.273 OA
HETATM   21  N4  UNL     1      23.403   2.591  52.443  1.00  0.00    -0.337 N 
HETATM   22  H13 UNL     1      24.231   3.221  52.254  1.00  0.00     0.168 HD
BRANCH  21  23
HETATM   23  C11 UNL     1      23.641   1.327  53.054  1.00  0.00     0.088 C 
HETATM   24  C12 UNL     1      24.710   0.606  53.305  1.00  0.00     0.020 C 
BRANCH  24  25
HETATM   25  C13 UNL     1      25.018  -0.695  53.927  1.00  0.00     0.295 C 
BRANCH  25  26
HETATM   26  N5  UNL     1      25.955  -0.522  55.007  1.00  0.00     0.081 N 
HETATM   27  H18 UNL     1      26.235   0.458  55.166  1.00  0.00     0.313 HD
HETATM   28  H19 UNL     1      26.729  -1.189  54.886  1.00  0.00     0.313 HD
ENDBRANCH  25  26
ENDBRANCH  24  25
ENDBRANCH  21  23
ENDBRANCH  18  19
ENDBRANCH   2  18
TORSDOF 7
ENDMDL
MODEL 4
REMARK VINA RESULT:      -6.5      5.805      9.348
REMARK  7 active torsions:
REMARK  status: ('A' for Active; 'I' for Inactive)
REMARK    1  A    between atoms: N2_5  and  C4_6 
REMARK    2  A    between atoms: C7_9  and  N3_10 
REMARK       I    between atoms: N3_10  and  C8_11 
REMARK    3  A    between atoms: C8_11  and  C9_13 
REMARK    4  A    between atoms: C9_13  and  C10_14 
REMARK       I    between atoms: C10_14  and  N4_16 
REMARK    5  A    between atoms: N4_16  and  C11_17 
REMARK    6  A    between atoms: C12_18  and  C13_19 
REMARK    7  A    between atoms: C13_19  and  N5_20 
ROOT
HETATM    1  N3  UNL     1      20.128   1.780  51.596  1.00  0.00    -0.327 N 
HETATM    2  C8  UNL     1      19.723   1.602  50.246  1.00  0.00     0.231 C 
HETATM    3  O1  UNL     1      20.500   1.052  49.422  1.00  0.00    -0.273 OA
HETATM    4  H10 UNL     1      19.402   2.246  52.182  1.00  0.00     0.169 HD
ENDROOT
BRANCH   1   5
HETATM    5  C7  UNL     1      21.418   1.324  51.983  1.00  0.00     0.034 A 
HETATM    6  C6  UNL     1      21.588   0.095  52.586  1.00  0.00     0.032 A 
HETATM    7  C5  UNL     1      22.846  -0.331  52.955  1.00  0.00     0.031 A 
HETATM    8  C4  UNL     1      23.984   0.408  52.759  1.00  0.00     0.030 A 
HETATM    9  C15 UNL     1      23.796   1.626  52.159  1.00  0.00     0.031 A 
HETATM   10  C14 UNL     1      22.552   2.080  51.778  1.00  0.00     0.032 A 
BRANCH   8  11
HETATM   11  N2  UNL     1      25.266  -0.053  53.149  1.00  0.00    -0.378 N 
HETATM   12  C3  UNL     1      25.697  -0.503  54.423  1.00  0.00     0.142 C 
HETATM   13  C2  UNL     1      26.846   0.229  55.038  1.00  0.00     0.136 C 
HETATM   14  N1  UNL     1      27.843   0.673  54.118  1.00  0.00    -0.414 N 
HETATM   15  C1  UNL     1      29.159   0.163  54.320  1.00  0.00     0.143 C 
HETATM   16  C17 UNL     1      27.422   0.868  52.784  1.00  0.00     0.136 C 
HETATM   17  C16 UNL     1      26.417  -0.156  52.288  1.00  0.00     0.142 C 
ENDBRANCH   8  11
ENDBRANCH   1   5
BRANCH   2  18
HETATM   18  C9  UNL     1      18.428   2.001  49.628  1.00  0.00     0.206 C 
BRANCH  18  19
HETATM   19  C10 UNL     1      17.482   2.285  50.730  1.00  0.00     0.230 C 
HETATM   20  O2  UNL     1      17.096   1.270  51.352  1.00  0.00    -0.273 OA
HETATM   21  N4  UNL     1      17.115   3.629  50.971  1.00  0.00    -0.337 N 
HETATM   22  H13 UNL     1      17.509   4.409  50.376  1.00  0.00     0.168 HD
BRANCH  21  23
HETATM   23  C11 UNL     1      16.211   3.966  52.017  1.00  0.00     0.088 C 
HETATM   24  C12 UNL     1      14.918   3.827  52.204  1.00  0.00     0.020 C 
BRANCH  24  25
HETATM   25  C13 UNL     1      13.934   4.151  53.254  1.00  0.00     0.295 C 
BRANCH  25  26
HETATM   26  N5  UNL     1      14.605   4.593  54.448  1.00  0.00     0.081 N 
HETATM   27  H18 UNL     1      14.399   4.020  55.281  1.00  0.00     0.313 HD
HETATM   28  H19 UNL     1      14.454   5.604  54.560  1.00  0.00     0.313 HD
ENDBRANCH  25  26
ENDBRANCH  24  25
ENDBRANCH  21  23
ENDBRANCH  18  19
ENDBRANCH   2  18
TORSDOF 7
ENDMDL
MODEL 5
REMARK VINA RESULT:      -6.4      2.161      3.367
REMARK  7 active torsions:
REMARK  status: ('A' for Active; 'I' for Inactive)
REMARK    1  A    between atoms: N2_5  and  C4_6 
REMARK    2  A    between atoms: C7_9  and  N3_10 
REMARK       I    between atoms: N3_10  and  C8_11 
REMARK    3  A    between atoms: C8_11  and  C9_13 
REMARK    4  A    between atoms: C9_13  and  C10_14 
REMARK       I    between atoms: C10_14  and  N4_16 
REMARK    5  A    between atoms: N4_16  and  C11_17 
REMARK    6  A    between atoms: C12_18  and  C13_19 
REMARK    7  A    between atoms: C13_19  and  N5_20 
ROOT
HETATM    1  N3  UNL     1      25.868   2.685  50.076  1.00  0.00    -0.327 N 
HETATM    2  C8  UNL     1      26.541   2.110  51.187  1.00  0.00     0.231 C 
HETATM    3  O1  UNL     1      27.348   2.801  51.862  1.00  0.00    -0.273 OA
HETATM    4  H10 UNL     1      25.227   2.017  49.596  1.00  0.00     0.169 HD
ENDROOT
BRANCH   1   5
HETATM    5  C7  UNL     1      26.129   4.045  49.754  1.00  0.00     0.034 A 
HETATM    6  C6  UNL     1      27.183   4.395  48.935  1.00  0.00     0.032 A 
HETATM    7  C5  UNL     1      27.421   5.718  48.633  1.00  0.00     0.031 A 
HETATM    8  C4  UNL     1      26.657   6.752  49.108  1.00  0.00     0.030 A 
HETATM    9  C15 UNL     1      25.615   6.388  49.921  1.00  0.00     0.031 A 
HETATM   10  C14 UNL     1      25.350   5.073  50.240  1.00  0.00     0.032 A 
BRANCH   8  11
HETATM   11  N2  UNL     1      26.924   8.106  48.783  1.00  0.00    -0.378 N 
HETATM   12  C3  UNL     1      26.982   8.716  47.504  1.00  0.00     0.142 C 
HETATM   13  C2  UNL     1      28.265   9.394  47.144  1.00  0.00     0.136 C 
HETATM   14  N1  UNL     1      28.928  10.050  48.224  1.00  0.00    -0.414 N 
HETATM   15  C1  UNL     1      29.130  11.454  48.079  1.00  0.00     0.143 C 
HETATM   16  C17 UNL     1      28.641   9.567  49.520  1.00  0.00     0.136 C 
HETATM   17  C16 UNL     1      27.196   9.157  49.731  1.00  0.00     0.142 C 
ENDBRANCH   8  11
ENDBRANCH   1   5
BRANCH   2  18
HETATM   18  C9  UNL     1      26.419   0.716  51.698  1.00  0.00     0.206 C 
BRANCH  18  19
HETATM   19  C10 UNL     1      25.311   0.701  52.678  1.00  0.00     0.230 C 
HETATM   20  O2  UNL     1      25.671   0.511  53.861  1.00  0.00    -0.273 OA
HETATM   21  N4  UNL     1      23.993   0.895  52.205  1.00  0.00    -0.337 N 
HETATM   22  H13 UNL     1      23.808   1.047  51.175  1.00  0.00     0.168 HD
BRANCH  21  23
HETATM   23  C11 UNL     1      22.885   0.892  53.098  1.00  0.00     0.088 C 
HETATM   24  C12 UNL     1      21.879   0.077  53.324  1.00  0.00     0.020 C 
BRANCH  24  25
HETATM   25  C13 UNL     1      20.713   0.018  54.225  1.00  0.00     0.295 C 
BRANCH  25  26
HETATM   26  N5  UNL     1      20.381  -1.351  54.524  1.00  0.00     0.081 N 
HETATM   27  H18 UNL     1      21.188  -1.923  54.816  1.00  0.00     0.313 HD
HETATM   28  H19 UNL     1      19.824  -1.735  53.749  1.00  0.00     0.313 HD
ENDBRANCH  25  26
ENDBRANCH  24  25
ENDBRANCH  21  23
ENDBRANCH  18  19
ENDBRANCH   2  18
TORSDOF 7
ENDMDL
MODEL 6
REMARK VINA RESULT:      -6.3      2.637      3.052
REMARK  7 active torsions:
REMARK  status: ('A' for Active; 'I' for Inactive)
REMARK    1  A    between atoms: N2_5  and  C4_6 
REMARK    2  A    between atoms: C7_9  and  N3_10 
REMARK       I    between atoms: N3_10  and  C8_11 
REMARK    3  A    between atoms: C8_11  and  C9_13 
REMARK    4  A    between atoms: C9_13  and  C10_14 
REMARK       I    between atoms: C10_14  and  N4_16 
REMARK    5  A    between atoms: N4_16  and  C11_17 
REMARK    6  A    between atoms: C12_18  and  C13_19 
REMARK    7  A    between atoms: C13_19  and  N5_20 
ROOT
HETATM    1  N3  UNL     1      24.214   2.291  53.240  1.00  0.00    -0.327 N 
HETATM    2  C8  UNL     1      23.621   1.062  52.845  1.00  0.00     0.231 C 
HETATM    3  O1  UNL     1      23.064   0.963  51.720  1.00  0.00    -0.273 OA
HETATM    4  H10 UNL     1      24.643   2.250  54.190  1.00  0.00     0.169 HD
ENDROOT
BRANCH   1   5
HETATM    5  C7  UNL     1      24.161   3.390  52.340  1.00  0.00     0.034 A 
HETATM    6  C6  UNL     1      25.003   3.460  51.249  1.00  0.00     0.032 A 
HETATM    7  C5  UNL     1      24.938   4.533  50.387  1.00  0.00     0.031 A 
HETATM    8  C4  UNL     1      24.063   5.577  50.542  1.00  0.00     0.030 A 
HETATM    9  C15 UNL     1      23.235   5.492  51.631  1.00  0.00     0.031 A 
HETATM   10  C14 UNL     1      23.275   4.432  52.511  1.00  0.00     0.032 A 
BRANCH   8  11
HETATM   11  N2  UNL     1      24.017   6.670  49.641  1.00  0.00    -0.378 N 
HETATM   12  C3  UNL     1      24.197   6.667  48.233  1.00  0.00     0.142 C 
HETATM   13  C2  UNL     1      25.293   7.531  47.698  1.00  0.00     0.136 C 
HETATM   14  N1  UNL     1      25.487   8.763  48.390  1.00  0.00    -0.414 N 
HETATM   15  C1  UNL     1      25.326   9.952  47.619  1.00  0.00     0.143 C 
HETATM   16  C17 UNL     1      25.055   8.801  49.735  1.00  0.00     0.136 C 
HETATM   17  C16 UNL     1      23.768   8.043  50.001  1.00  0.00     0.142 C 
ENDBRANCH   8  11
ENDBRANCH   1   5
BRANCH   2  18
HETATM   18  C9  UNL     1      23.560  -0.207  53.623  1.00  0.00     0.206 C 
BRANCH  18  19
HETATM   19  C10 UNL     1      24.952  -0.664  53.831  1.00  0.00     0.230 C 
HETATM   20  O2  UNL     1      25.199  -1.052  54.995  1.00  0.00    -0.273 OA
HETATM   21  N4  UNL     1      25.844  -0.622  52.735  1.00  0.00    -0.337 N 
HETATM   22  H13 UNL     1      25.520  -0.272  51.792  1.00  0.00     0.168 HD
BRANCH  21  23
HETATM   23  C11 UNL     1      27.195  -1.048  52.872  1.00  0.00     0.088 C 
HETATM   24  C12 UNL     1      28.272  -0.548  53.434  1.00  0.00     0.020 C 
BRANCH  24  25
HETATM   25  C13 UNL     1      29.684  -0.937  53.608  1.00  0.00     0.295 C 
BRANCH  25  26
HETATM   26  N5  UNL     1      30.544   0.200  53.403  1.00  0.00     0.081 N 
HETATM   27  H18 UNL     1      31.435   0.150  53.920  1.00  0.00     0.313 HD
HETATM   28  H19 UNL     1      29.998   1.060  53.545  1.00  0.00     0.313 HD
ENDBRANCH  25  26
ENDBRANCH  24  25
ENDBRANCH  21  23
ENDBRANCH  18  19
ENDBRANCH   2  18
TORSDOF 7
ENDMDL
MODEL 7
REMARK VINA RESULT:      -6.3      3.822      4.399
REMARK  7 active torsions:
REMARK  status: ('A' for Active; 'I' for Inactive)
REMARK    1  A    between atoms: N2_5  and  C4_6 
REMARK    2  A    between atoms: C7_9  and  N3_10 
REMARK       I    between atoms: N3_10  and  C8_11 
REMARK    3  A    between atoms: C8_11  and  C9_13 
REMARK    4  A    between atoms: C9_13  and  C10_14 
REMARK       I    between atoms: C10_14  and  N4_16 
REMARK    5  A    between atoms: N4_16  and  C11_17 
REMARK    6  A    between atoms: C12_18  and  C13_19 
REMARK    7  A    between atoms: C13_19  and  N5_20 
ROOT
HETATM    1  N3  UNL     1      23.646   5.000  49.678  1.00  0.00    -0.327 N 
HETATM    2  C8  UNL     1      23.237   5.465  50.956  1.00  0.00     0.231 C 
HETATM    3  O1  UNL     1      24.039   6.114  51.677  1.00  0.00    -0.273 OA
HETATM    4  H10 UNL     1      22.897   4.476  49.176  1.00  0.00     0.169 HD
ENDROOT
BRANCH   1   5
HETATM    5  C7  UNL     1      24.968   5.288  49.242  1.00  0.00     0.034 A 
HETATM    6  C6  UNL     1      25.285   6.507  48.680  1.00  0.00     0.032 A 
HETATM    7  C5  UNL     1      26.572   6.768  48.263  1.00  0.00     0.031 A 
HETATM    8  C4  UNL     1      27.600   5.868  48.371  1.00  0.00     0.030 A 
HETATM    9  C15 UNL     1      27.268   4.662  48.931  1.00  0.00     0.031 A 
HETATM   10  C14 UNL     1      25.991   4.370  49.358  1.00  0.00     0.032 A 
BRANCH   8  11
HETATM   11  N2  UNL     1      28.916   6.162  47.933  1.00  0.00    -0.378 N 
HETATM   12  C3  UNL     1      30.086   5.367  48.047  1.00  0.00     0.142 C 
HETATM   13  C2  UNL     1      31.240   5.976  48.778  1.00  0.00     0.136 C 
HETATM   14  N1  UNL     1      31.406   7.380  48.585  1.00  0.00    -0.414 N 
HETATM   15  C1  UNL     1      32.644   7.795  48.013  1.00  0.00     0.143 C 
HETATM   16  C17 UNL     1      30.249   8.103  48.218  1.00  0.00     0.136 C 
HETATM   17  C16 UNL     1      29.327   7.369  47.263  1.00  0.00     0.142 C 
ENDBRANCH   8  11
ENDBRANCH   1   5
BRANCH   2  18
HETATM   18  C9  UNL     1      21.910   5.279  51.607  1.00  0.00     0.206 C 
BRANCH  18  19
HETATM   19  C10 UNL     1      21.714   3.826  51.803  1.00  0.00     0.230 C 
HETATM   20  O2  UNL     1      22.727   3.132  51.559  1.00  0.00    -0.273 OA
HETATM   21  N4  UNL     1      20.447   3.370  52.233  1.00  0.00    -0.337 N 
HETATM   22  H13 UNL     1      19.661   4.054  52.409  1.00  0.00     0.168 HD
BRANCH  21  23
HETATM   23  C11 UNL     1      20.197   1.985  52.440  1.00  0.00     0.088 C 
HETATM   24  C12 UNL     1      20.605   1.089  53.312  1.00  0.00     0.020 C 
BRANCH  24  25
HETATM   25  C13 UNL     1      20.384  -0.344  53.576  1.00  0.00     0.295 C 
BRANCH  25  26
HETATM   26  N5  UNL     1      20.945  -0.709  54.852  1.00  0.00     0.081 N 
HETATM   27  H18 UNL     1      20.245  -0.816  55.602  1.00  0.00     0.313 HD
HETATM   28  H19 UNL     1      21.727  -0.076  55.065  1.00  0.00     0.313 HD
ENDBRANCH  25  26
ENDBRANCH  24  25
ENDBRANCH  21  23
ENDBRANCH  18  19
ENDBRANCH   2  18
TORSDOF 7
ENDMDL
MODEL 8
REMARK VINA RESULT:      -6.2      3.446      8.480
REMARK  7 active torsions:
REMARK  status: ('A' for Active; 'I' for Inactive)
REMARK    1  A    between atoms: N2_5  and  C4_6 
REMARK    2  A    between atoms: C7_9  and  N3_10 
REMARK       I    between atoms: N3_10  and  C8_11 
REMARK    3  A    between atoms: C8_11  and  C9_13 
REMARK    4  A    between atoms: C9_13  and  C10_14 
REMARK       I    between atoms: C10_14  and  N4_16 
REMARK    5  A    between atoms: N4_16  and  C11_17 
REMARK    6  A    between atoms: C12_18  and  C13_19 
REMARK    7  A    between atoms: C13_19  and  N5_20 
ROOT
HETATM    1  N3  UNL     1      26.663   6.575  48.394  1.00  0.00    -0.327 N 
HETATM    2  C8  UNL     1      26.821   7.749  49.178  1.00  0.00     0.231 C 
HETATM    3  O1  UNL     1      26.328   7.806  50.335  1.00  0.00    -0.273 OA
HETATM    4  H10 UNL     1      27.113   6.646  47.457  1.00  0.00     0.169 HD
ENDROOT
BRANCH   1   5
HETATM    5  C7  UNL     1      25.941   5.482  48.948  1.00  0.00     0.034 A 
HETATM    6  C6  UNL     1      24.563   5.492  49.003  1.00  0.00     0.032 A 
HETATM    7  C5  UNL     1      23.880   4.423  49.543  1.00  0.00     0.031 A 
HETATM    8  C4  UNL     1      24.496   3.308  50.049  1.00  0.00     0.030 A 
HETATM    9  C15 UNL     1      25.865   3.315  49.986  1.00  0.00     0.031 A 
HETATM   10  C14 UNL     1      26.577   4.367  49.452  1.00  0.00     0.032 A 
BRANCH   8  11
HETATM   11  N2  UNL     1      23.770   2.222  50.600  1.00  0.00    -0.378 N 
HETATM   12  C3  UNL     1      22.510   1.706  50.202  1.00  0.00     0.142 C 
HETATM   13  C2  UNL     1      21.438   1.683  51.245  1.00  0.00     0.136 C 
HETATM   14  N1  UNL     1      21.887   1.397  52.569  1.00  0.00    -0.414 N 
HETATM   15  C1  UNL     1      21.332   0.238  53.185  1.00  0.00     0.143 C 
HETATM   16  C17 UNL     1      23.238   1.696  52.851  1.00  0.00     0.136 C 
HETATM   17  C16 UNL     1      24.195   1.407  51.709  1.00  0.00     0.142 C 
ENDBRANCH   8  11
ENDBRANCH   1   5
BRANCH   2  18
HETATM   18  C9  UNL     1      27.533   9.002  48.800  1.00  0.00     0.206 C 
BRANCH  18  19
HETATM   19  C10 UNL     1      28.923   8.632  48.453  1.00  0.00     0.230 C 
HETATM   20  O2  UNL     1      29.104   8.389  47.239  1.00  0.00    -0.273 OA
HETATM   21  N4  UNL     1      29.885   8.589  49.488  1.00  0.00    -0.337 N 
HETATM   22  H13 UNL     1      29.614   8.816  50.484  1.00  0.00     0.168 HD
BRANCH  21  23
HETATM   23  C11 UNL     1      31.238   8.241  49.218  1.00  0.00     0.088 C 
HETATM   24  C12 UNL     1      31.881   7.114  49.011  1.00  0.00     0.020 C 
BRANCH  24  25
HETATM   25  C13 UNL     1      33.266   6.692  48.729  1.00  0.00     0.295 C 
BRANCH  25  26
HETATM   26  N5  UNL     1      33.452   5.313  49.096  1.00  0.00     0.081 N 
HETATM   27  H18 UNL     1      34.076   5.175  49.906  1.00  0.00     0.313 HD
HETATM   28  H19 UNL     1      33.696   4.774  48.255  1.00  0.00     0.313 HD
ENDBRANCH  25  26
ENDBRANCH  24  25
ENDBRANCH  21  23
ENDBRANCH  18  19
ENDBRANCH   2  18
TORSDOF 7
ENDMDL
MODEL 9
REMARK VINA RESULT:      -6.1      4.355      8.415
REMARK  7 active torsions:
REMARK  status: ('A' for Active; 'I' for Inactive)
REMARK    1  A    between atoms: N2_5  and  C4_6 
REMARK    2  A    between atoms: C7_9  and  N3_10 
REMARK       I    between atoms: N3_10  and  C8_11 
REMARK    3  A    between atoms: C8_11  and  C9_13 
REMARK    4  A    between atoms: C9_13  and  C10_14 
REMARK       I    between atoms: C10_14  and  N4_16 
REMARK    5  A    between atoms: N4_16  and  C11_17 
REMARK    6  A    between atoms: C12_18  and  C13_19 
REMARK    7  A    between atoms: C13_19  and  N5_20 
ROOT
HETATM    1  N3  UNL     1      28.927   7.254  47.611  1.00  0.00    -0.327 N 
HETATM    2  C8  UNL     1      29.333   8.426  48.303  1.00  0.00     0.231 C 
HETATM    3  O1  UNL     1      28.699   8.809  49.322  1.00  0.00    -0.273 OA
HETATM    4  H10 UNL     1      29.527   7.039  46.786  1.00  0.00     0.169 HD
ENDROOT
BRANCH   1   5
HETATM    5  C7  UNL     1      27.800   6.535  48.096  1.00  0.00     0.034 A 
HETATM    6  C6  UNL     1      27.933   5.263  48.612  1.00  0.00     0.032 A 
HETATM    7  C5  UNL     1      26.830   4.581  49.078  1.00  0.00     0.031 A 
HETATM    8  C4  UNL     1      25.560   5.096  49.064  1.00  0.00     0.030 A 
HETATM    9  C15 UNL     1      25.445   6.361  48.548  1.00  0.00     0.031 A 
HETATM   10  C14 UNL     1      26.529   7.069  48.076  1.00  0.00     0.032 A 
BRANCH   8  11
HETATM   11  N2  UNL     1      24.441   4.373  49.549  1.00  0.00    -0.378 N 
HETATM   12  C3  UNL     1      23.070   4.735  49.515  1.00  0.00     0.142 C 
HETATM   13  C2  UNL     1      22.364   4.805  50.832  1.00  0.00     0.136 C 
HETATM   14  N1  UNL     1      22.771   3.828  51.789  1.00  0.00    -0.414 N 
HETATM   15  C1  UNL     1      21.757   2.939  52.252  1.00  0.00     0.143 C 
HETATM   16  C17 UNL     1      24.072   3.300  51.632  1.00  0.00     0.136 C 
HETATM   17  C16 UNL     1      24.490   3.084  50.189  1.00  0.00     0.142 C 
ENDBRANCH   8  11
ENDBRANCH   1   5
BRANCH   2  18
HETATM   18  C9  UNL     1      30.474   9.324  47.973  1.00  0.00     0.206 C 
BRANCH  18  19
HETATM   19  C10 UNL     1      31.657   8.466  47.738  1.00  0.00     0.230 C 
HETATM   20  O2  UNL     1      31.781   8.072  46.557  1.00  0.00    -0.273 OA
HETATM   21  N4  UNL     1      32.508   8.181  48.830  1.00  0.00    -0.337 N 
HETATM   22  H13 UNL     1      32.301   8.573  49.790  1.00  0.00     0.168 HD
BRANCH  21  23
HETATM   23  C11 UNL     1      33.661   7.363  48.668  1.00  0.00     0.088 C 
HETATM   24  C12 UNL     1      33.894   6.070  48.712  1.00  0.00     0.020 C 
BRANCH  24  25
HETATM   25  C13 UNL     1      35.052   5.172  48.554  1.00  0.00     0.295 C 
BRANCH  25  26
HETATM   26  N5  UNL     1      35.666   4.919  49.831  1.00  0.00     0.081 N 
HETATM   27  H18 UNL     1      35.026   5.027  50.633  1.00  0.00     0.313 HD
HETATM   28  H19 UNL     1      36.543   5.453  49.891  1.00  0.00     0.313 HD
ENDBRANCH  25  26
ENDBRANCH  24  25
ENDBRANCH  21  23
ENDBRANCH  18  19
ENDBRANCH   2  18
TORSDOF 7
ENDMDL
