MODEL 1
REMARK VINA RESULT:      -8.3      0.000      0.000
REMARK  7 active torsions:
REMARK  status: ('A' for Active; 'I' for Inactive)
REMARK    1  A    between atoms: C2_2  and  C3_4 
REMARK    2  A    between atoms: C4_5  and  C5_6 
REMARK    3  A    between atoms: C6_7  and  N1_8 
REMARK    4  A    between atoms: N1_8  and  C7_9 
REMARK    5  A    between atoms: C14_18  and  N4_19 
REMARK       I    between atoms: N4_19  and  C15_20 
REMARK    6  A    between atoms: C15_20  and  O2_22 
REMARK    7  A    between atoms: O2_22  and  C16_23 
ROOT
HETATM    1  C7  UNL     1      22.463   3.222  52.373  1.00  0.00     0.138 A 
HETATM    2  N2  UNL     1      21.185   3.540  52.100  1.00  0.00    -0.241 NA
HETATM    3  C8  UNL     1      20.209   2.586  52.153  1.00  0.00     0.142 A 
HETATM    4  C9  UNL     1      20.581   1.281  52.499  1.00  0.00     0.073 A 
HETATM    5  C10 UNL     1      19.612   0.224  52.576  1.00  0.00     0.102 C 
HETATM    6  N3  UNL     1      18.807  -0.632  52.623  1.00  0.00    -0.191 NA
HETATM    7  C11 UNL     1      21.881   0.952  52.777  1.00  0.00     0.000 A 
HETATM    8  C12 UNL     1      22.321  -0.303  53.122  1.00  0.00     0.016 A 
HETATM    9  C13 UNL     1      23.657  -0.516  53.381  1.00  0.00     0.030 A 
HETATM   10  C14 UNL     1      24.626   0.455  53.322  1.00  0.00     0.037 A 
HETATM   11  C18 UNL     1      24.168   1.695  52.978  1.00  0.00     0.045 A 
HETATM   12  C19 UNL     1      22.839   1.941  52.713  1.00  0.00     0.024 A 
ENDROOT
BRANCH   1  13
HETATM   13  N1  UNL     1      23.365   4.308  52.278  1.00  0.00    -0.350 N 
HETATM   14  H7  UNL     1      24.016   4.786  52.932  1.00  0.00     0.166 HD
BRANCH  13  15
HETATM   15  C6  UNL     1      23.537   5.018  51.077  1.00  0.00     0.090 C 
HETATM   16  C5  UNL     1      24.377   6.063  50.993  1.00  0.00     0.017 C 
BRANCH  16  17
HETATM   17  C4  UNL     1      24.539   6.777  49.758  1.00  0.00     0.003 C 
HETATM   18  C3  UNL     1      25.446   6.401  48.881  1.00  0.00     0.017 C 
BRANCH  18  19
HETATM   19  C2  UNL     1      26.385   5.299  48.960  1.00  0.00    -0.016 C 
HETATM   20  C1  UNL     1      27.629   5.110  48.552  1.00  0.00     0.163 C 
HETATM   21 BR1  UNL     1      26.660   3.516  49.574  1.00  0.00    -0.165 Br
ENDBRANCH  18  19
ENDBRANCH  16  17
ENDBRANCH  13  15
ENDBRANCH   1  13
BRANCH  10  22
HETATM   22  N4  UNL     1      26.007   0.302  53.576  1.00  0.00    -0.303 N 
HETATM   23  C15 UNL     1      26.647  -0.160  54.742  1.00  0.00     0.365 C 
HETATM   24  O1  UNL     1      25.969  -0.502  55.737  1.00  0.00    -0.238 OA
HETATM   25  H11 UNL     1      26.707   0.546  52.843  1.00  0.00     0.171 HD
BRANCH  23  26
HETATM   26  O2  UNL     1      27.993  -0.285  54.925  1.00  0.00    -0.304 OA
BRANCH  26  27
HETATM   27  C16 UNL     1      28.955   0.310  54.047  1.00  0.00     0.176 C 
HETATM   28  C17 UNL     1      29.888  -0.780  53.605  1.00  0.00     0.034 C 
ENDBRANCH  26  27
ENDBRANCH  23  26
ENDBRANCH  10  22
TORSDOF 7
ENDMDL
MODEL 2
REMARK VINA RESULT:      -8.1      2.064      3.098
REMARK  7 active torsions:
REMARK  status: ('A' for Active; 'I' for Inactive)
REMARK    1  A    between atoms: C2_2  and  C3_4 
REMARK    2  A    between atoms: C4_5  and  C5_6 
REMARK    3  A    between atoms: C6_7  and  N1_8 
REMARK    4  A    between atoms: N1_8  and  C7_9 
REMARK    5  A    between atoms: C14_18  and  N4_19 
REMARK       I    between atoms: N4_19  and  C15_20 
REMARK    6  A    between atoms: C15_20  and  O2_22 
REMARK    7  A    between atoms: O2_22  and  C16_23 
ROOT
HETATM    1  C7  UNL     1      24.910   3.819  50.540  1.00  0.00     0.138 A 
HETATM    2  N2  UNL     1      24.022   4.737  50.116  1.00  0.00    -0.241 NA
HETATM    3  C8  UNL     1      22.725   4.690  50.539  1.00  0.00     0.142 A 
HETATM    4  C9  UNL     1      22.355   3.666  51.421  1.00  0.00     0.073 A 
HETATM    5  C10 UNL     1      21.009   3.552  51.910  1.00  0.00     0.102 C 
HETATM    6  N3  UNL     1      19.900   3.465  52.292  1.00  0.00    -0.191 NA
HETATM    7  C11 UNL     1      23.254   2.730  51.855  1.00  0.00     0.000 A 
HETATM    8  C12 UNL     1      22.967   1.698  52.717  1.00  0.00     0.016 A 
HETATM    9  C13 UNL     1      23.956   0.813  53.085  1.00  0.00     0.030 A 
HETATM   10  C14 UNL     1      25.257   0.875  52.649  1.00  0.00     0.037 A 
HETATM   11  C18 UNL     1      25.522   1.906  51.794  1.00  0.00     0.045 A 
HETATM   12  C19 UNL     1      24.555   2.808  51.406  1.00  0.00     0.024 A 
ENDROOT
BRANCH   1  13
HETATM   13  N1  UNL     1      26.214   3.989  50.021  1.00  0.00    -0.350 N 
HETATM   14  H7  UNL     1      27.090   3.429  50.026  1.00  0.00     0.166 HD
BRANCH  13  15
HETATM   15  C6  UNL     1      26.574   5.141  49.299  1.00  0.00     0.090 C 
HETATM   16  C5  UNL     1      27.748   5.226  48.651  1.00  0.00     0.017 C 
BRANCH  16  17
HETATM   17  C4  UNL     1      28.099   6.411  47.920  1.00  0.00     0.003 C 
HETATM   18  C3  UNL     1      29.358   6.685  47.652  1.00  0.00     0.017 C 
BRANCH  18  19
HETATM   19  C2  UNL     1      30.546   5.930  47.999  1.00  0.00    -0.016 C 
HETATM   20  C1  UNL     1      31.378   5.933  49.027  1.00  0.00     0.163 C 
HETATM   21 BR1  UNL     1      31.746   4.556  47.448  1.00  0.00    -0.165 Br
ENDBRANCH  18  19
ENDBRANCH  16  17
ENDBRANCH  13  15
ENDBRANCH   1  13
BRANCH  10  22
HETATM   22  N4  UNL     1      26.315   0.002  52.988  1.00  0.00    -0.303 N 
HETATM   23  C15 UNL     1      27.096  -0.028  54.159  1.00  0.00     0.365 C 
HETATM   24  O1  UNL     1      26.887   0.800  55.076  1.00  0.00    -0.238 OA
HETATM   25  H11 UNL     1      26.611  -0.747  52.328  1.00  0.00     0.171 HD
BRANCH  23  26
HETATM   26  O2  UNL     1      28.108  -0.901  54.428  1.00  0.00    -0.304 OA
BRANCH  26  27
HETATM   27  C16 UNL     1      29.135  -1.216  53.480  1.00  0.00     0.176 C 
HETATM   28  C17 UNL     1      30.065  -0.037  53.424  1.00  0.00     0.034 C 
ENDBRANCH  26  27
ENDBRANCH  23  26
ENDBRANCH  10  22
TORSDOF 7
ENDMDL
MODEL 3
REMARK VINA RESULT:      -7.7      4.699      8.304
REMARK  7 active torsions:
REMARK  status: ('A' for Active; 'I' for Inactive)
REMARK    1  A    between atoms: C2_2  and  C3_4 
REMARK    2  A    between atoms: C4_5  and  C5_6 
REMARK    3  A    between atoms: C6_7  and  N1_8 
REMARK    4  A    between atoms: N1_8  and  C7_9 
REMARK    5  A    between atoms: C14_18  and  N4_19 
REMARK       I    between atoms: N4_19  and  C15_20 
REMARK    6  A    between atoms: C15_20  and  O2_22 
REMARK    7  A    between atoms: O2_22  and  C16_23 
ROOT
HETATM    1  C7  UNL     1      26.326   4.511  49.322  1.00  0.00     0.138 A 
HETATM    2  N2  UNL     1      25.014   4.750  49.497  1.00  0.00    -0.241 NA
HETATM    3  C8  UNL     1      24.458   5.915  49.049  1.00  0.00     0.142 A 
HETATM    4  C9  UNL     1      25.292   6.839  48.407  1.00  0.00     0.073 A 
HETATM    5  C10 UNL     1      24.781   8.085  47.908  1.00  0.00     0.102 C 
HETATM    6  N3  UNL     1      24.349   9.106  47.516  1.00  0.00    -0.191 NA
HETATM    7  C11 UNL     1      26.628   6.600  48.227  1.00  0.00     0.000 A 
HETATM    8  C12 UNL     1      27.508   7.457  47.609  1.00  0.00     0.016 A 
HETATM    9  C13 UNL     1      28.834   7.109  47.484  1.00  0.00     0.030 A 
HETATM   10  C14 UNL     1      29.377   5.933  47.942  1.00  0.00     0.037 A 
HETATM   11  C18 UNL     1      28.487   5.096  48.552  1.00  0.00     0.045 A 
HETATM   12  C19 UNL     1      27.154   5.414  48.693  1.00  0.00     0.024 A 
ENDROOT
BRANCH   1  13
HETATM   13  N1  UNL     1      26.763   3.268  49.837  1.00  0.00    -0.350 N 
HETATM   14  H7  UNL     1      27.537   2.610  49.619  1.00  0.00     0.166 HD
BRANCH  13  15
HETATM   15  C6  UNL     1      26.095   2.636  50.901  1.00  0.00     0.090 C 
HETATM   16  C5  UNL     1      26.608   1.553  51.508  1.00  0.00     0.017 C 
BRANCH  16  17
HETATM   17  C4  UNL     1      25.911   0.922  52.593  1.00  0.00     0.003 C 
HETATM   18  C3  UNL     1      26.576   0.349  53.574  1.00  0.00     0.017 C 
BRANCH  18  19
HETATM   19  C2  UNL     1      28.010   0.241  53.758  1.00  0.00    -0.016 C 
HETATM   20  C1  UNL     1      28.940   1.026  54.276  1.00  0.00     0.163 C 
HETATM   21 BR1  UNL     1      29.544  -0.860  53.497  1.00  0.00    -0.165 Br
ENDBRANCH  18  19
ENDBRANCH  16  17
ENDBRANCH  13  15
ENDBRANCH   1  13
BRANCH  10  22
HETATM   22  N4  UNL     1      30.723   5.517  47.845  1.00  0.00    -0.303 N 
HETATM   23  C15 UNL     1      31.797   5.788  48.714  1.00  0.00     0.365 C 
HETATM   24  O1  UNL     1      31.617   6.486  49.738  1.00  0.00    -0.238 OA
HETATM   25  H11 UNL     1      31.035   4.926  47.046  1.00  0.00     0.171 HD
BRANCH  23  26
HETATM   26  O2  UNL     1      33.082   5.354  48.564  1.00  0.00    -0.304 OA
BRANCH  26  27
HETATM   27  C16 UNL     1      34.207   6.240  48.568  1.00  0.00     0.176 C 
HETATM   28  C17 UNL     1      35.365   5.485  49.154  1.00  0.00     0.034 C 
ENDBRANCH  26  27
ENDBRANCH  23  26
ENDBRANCH  10  22
TORSDOF 7
ENDMDL
MODEL 4
REMARK VINA RESULT:      -7.7      1.915      2.355
REMARK  7 active torsions:
REMARK  status: ('A' for Active; 'I' for Inactive)
REMARK    1  A    between atoms: C2_2  and  C3_4 
REMARK    2  A    between atoms: C4_5  and  C5_6 
REMARK    3  A    between atoms: C6_7  and  N1_8 
REMARK    4  A    between atoms: N1_8  and  C7_9 
REMARK    5  A    between atoms: C14_18  and  N4_19 
REMARK       I    between atoms: N4_19  and  C15_20 
REMARK    6  A    between atoms: C15_20  and  O2_22 
REMARK    7  A    between atoms: O2_22  and  C16_23 
ROOT
HETATM    1  C7  UNL     1      23.159   1.802  51.196  1.00  0.00     0.138 A 
HETATM    2  N2  UNL     1      22.001   2.197  50.639  1.00  0.00    -0.241 NA
HETATM    3  C8  UNL     1      20.817   1.650  51.043  1.00  0.00     0.142 A 
HETATM    4  C9  UNL     1      20.851   0.674  52.048  1.00  0.00     0.073 A 
HETATM    5  C10 UNL     1      19.647   0.053  52.526  1.00  0.00     0.102 C 
HETATM    6  N3  UNL     1      18.653  -0.454  52.898  1.00  0.00    -0.191 NA
HETATM    7  C11 UNL     1      22.027   0.268  52.618  1.00  0.00     0.000 A 
HETATM    8  C12 UNL     1      22.140  -0.681  53.606  1.00  0.00     0.016 A 
HETATM    9  C13 UNL     1      23.380  -1.010  54.106  1.00  0.00     0.030 A 
HETATM   10  C14 UNL     1      24.562  -0.450  53.687  1.00  0.00     0.037 A 
HETATM   11  C18 UNL     1      24.428   0.491  52.705  1.00  0.00     0.045 A 
HETATM   12  C19 UNL     1      23.202   0.842  52.184  1.00  0.00     0.024 A 
ENDROOT
BRANCH   1  13
HETATM   13  N1  UNL     1      24.304   2.452  50.680  1.00  0.00    -0.350 N 
HETATM   14  H7  UNL     1      25.324   2.420  50.879  1.00  0.00     0.166 HD
BRANCH  13  15
HETATM   15  C6  UNL     1      24.209   3.398  49.644  1.00  0.00     0.090 C 
HETATM   16  C5  UNL     1      24.673   4.650  49.792  1.00  0.00     0.017 C 
BRANCH  16  17
HETATM   17  C4  UNL     1      24.566   5.603  48.723  1.00  0.00     0.003 C 
HETATM   18  C3  UNL     1      23.551   6.439  48.670  1.00  0.00     0.017 C 
BRANCH  18  19
HETATM   19  C2  UNL     1      22.432   6.570  49.583  1.00  0.00    -0.016 C 
HETATM   20  C1  UNL     1      22.149   7.377  50.593  1.00  0.00     0.163 C 
HETATM   21 BR1  UNL     1      20.726   5.881  50.080  1.00  0.00    -0.165 Br
ENDBRANCH  18  19
ENDBRANCH  16  17
ENDBRANCH  13  15
ENDBRANCH   1  13
BRANCH  10  22
HETATM   22  N4  UNL     1      25.861  -0.741  54.157  1.00  0.00    -0.303 N 
HETATM   23  C15 UNL     1      26.821   0.131  54.703  1.00  0.00     0.365 C 
HETATM   24  O1  UNL     1      26.566   1.352  54.823  1.00  0.00    -0.238 OA
HETATM   25  H11 UNL     1      26.225  -1.717  54.126  1.00  0.00     0.171 HD
BRANCH  23  26
HETATM   26  O2  UNL     1      28.065  -0.215  55.142  1.00  0.00    -0.304 OA
BRANCH  26  27
HETATM   27  C16 UNL     1      29.258   0.072  54.403  1.00  0.00     0.176 C 
HETATM   28  C17 UNL     1      29.522  -1.106  53.509  1.00  0.00     0.034 C 
ENDBRANCH  26  27
ENDBRANCH  23  26
ENDBRANCH  10  22
TORSDOF 7
ENDMDL
MODEL 5
REMARK VINA RESULT:      -7.5      1.839      2.046
REMARK  7 active torsions:
REMARK  status: ('A' for Active; 'I' for Inactive)
REMARK    1  A    between atoms: C2_2  and  C3_4 
REMARK    2  A    between atoms: C4_5  and  C5_6 
REMARK    3  A    between atoms: C6_7  and  N1_8 
REMARK    4  A    between atoms: N1_8  and  C7_9 
REMARK    5  A    between atoms: C14_18  and  N4_19 
REMARK       I    between atoms: N4_19  and  C15_20 
REMARK    6  A    between atoms: C15_20  and  O2_22 
REMARK    7  A    between atoms: O2_22  and  C16_23 
ROOT
HETATM    1  C7  UNL     1      22.876   3.874  52.451  1.00  0.00     0.138 A 
HETATM    2  N2  UNL     1      21.608   4.208  52.152  1.00  0.00    -0.241 NA
HETATM    3  C8  UNL     1      20.642   3.247  52.066  1.00  0.00     0.142 A 
HETATM    4  C9  UNL     1      21.012   1.916  52.299  1.00  0.00     0.073 A 
HETATM    5  C10 UNL     1      20.053   0.851  52.227  1.00  0.00     0.102 C 
HETATM    6  N3  UNL     1      19.256  -0.012  52.154  1.00  0.00    -0.191 NA
HETATM    7  C11 UNL     1      22.301   1.571  52.604  1.00  0.00     0.000 A 
HETATM    8  C12 UNL     1      22.740   0.291  52.844  1.00  0.00     0.016 A 
HETATM    9  C13 UNL     1      24.065   0.062  53.143  1.00  0.00     0.030 A 
HETATM   10  C14 UNL     1      25.025   1.042  53.224  1.00  0.00     0.037 A 
HETATM   11  C18 UNL     1      24.569   2.306  52.982  1.00  0.00     0.045 A 
HETATM   12  C19 UNL     1      23.250   2.568  52.681  1.00  0.00     0.024 A 
ENDROOT
BRANCH   1  13
HETATM   13  N1  UNL     1      23.769   4.970  52.505  1.00  0.00    -0.350 N 
HETATM   14  H7  UNL     1      24.369   5.398  53.237  1.00  0.00     0.166 HD
BRANCH  13  15
HETATM   15  C6  UNL     1      24.013   5.775  51.378  1.00  0.00     0.090 C 
HETATM   16  C5  UNL     1      23.832   5.311  50.130  1.00  0.00     0.017 C 
BRANCH  16  17
HETATM   17  C4  UNL     1      24.087   6.149  48.992  1.00  0.00     0.003 C 
HETATM   18  C3  UNL     1      23.411   5.985  47.875  1.00  0.00     0.017 C 
BRANCH  18  19
HETATM   19  C2  UNL     1      22.369   5.023  47.576  1.00  0.00    -0.016 C 
HETATM   20  C1  UNL     1      22.113   4.221  46.555  1.00  0.00     0.163 C 
HETATM   21 BR1  UNL     1      20.772   4.196  48.206  1.00  0.00    -0.165 Br
ENDBRANCH  18  19
ENDBRANCH  16  17
ENDBRANCH  13  15
ENDBRANCH   1  13
BRANCH  10  22
HETATM   22  N4  UNL     1      26.395   0.874  53.525  1.00  0.00    -0.303 N 
HETATM   23  C15 UNL     1      26.986   0.220  54.623  1.00  0.00     0.365 C 
HETATM   24  O1  UNL     1      26.267  -0.314  55.498  1.00  0.00    -0.238 OA
HETATM   25  H11 UNL     1      27.124   1.262  52.891  1.00  0.00     0.171 HD
BRANCH  23  26
HETATM   26  O2  UNL     1      28.323   0.091  54.857  1.00  0.00    -0.304 OA
BRANCH  26  27
HETATM   27  C16 UNL     1      29.308   0.216  53.826  1.00  0.00     0.176 C 
HETATM   28  C17 UNL     1      29.932  -1.138  53.641  1.00  0.00     0.034 C 
ENDBRANCH  26  27
ENDBRANCH  23  26
ENDBRANCH  10  22
TORSDOF 7
ENDMDL
MODEL 6
REMARK VINA RESULT:      -7.5      3.243      6.181
REMARK  7 active torsions:
REMARK  status: ('A' for Active; 'I' for Inactive)
REMARK    1  A    between atoms: C2_2  and  C3_4 
REMARK    2  A    between atoms: C4_5  and  C5_6 
REMARK    3  A    between atoms: C6_7  and  N1_8 
REMARK    4  A    between atoms: N1_8  and  C7_9 
REMARK    5  A    between atoms: C14_18  and  N4_19 
REMARK       I    between atoms: N4_19  and  C15_20 
REMARK    6  A    between atoms: C15_20  and  O2_22 
REMARK    7  A    between atoms: O2_22  and  C16_23 
ROOT
HETATM    1  C7  UNL     1      25.782   2.625  51.118  1.00  0.00     0.138 A 
HETATM    2  N2  UNL     1      27.038   2.491  51.580  1.00  0.00    -0.241 NA
HETATM    3  C8  UNL     1      27.296   1.694  52.658  1.00  0.00     0.142 A 
HETATM    4  C9  UNL     1      26.220   1.027  53.258  1.00  0.00     0.073 A 
HETATM    5  C10 UNL     1      26.413   0.171  54.395  1.00  0.00     0.102 C 
HETATM    6  N3  UNL     1      26.587  -0.518  55.333  1.00  0.00    -0.191 NA
HETATM    7  C11 UNL     1      24.940   1.161  52.792  1.00  0.00     0.000 A 
HETATM    8  C12 UNL     1      23.836   0.541  53.328  1.00  0.00     0.016 A 
HETATM    9  C13 UNL     1      22.593   0.750  52.773  1.00  0.00     0.030 A 
HETATM   10  C14 UNL     1      22.351   1.557  51.688  1.00  0.00     0.037 A 
HETATM   11  C18 UNL     1      23.460   2.163  51.171  1.00  0.00     0.045 A 
HETATM   12  C19 UNL     1      24.717   1.974  51.703  1.00  0.00     0.024 A 
ENDROOT
BRANCH   1  13
HETATM   13  N1  UNL     1      25.662   3.482  49.999  1.00  0.00    -0.350 N 
HETATM   14  H7  UNL     1      24.872   3.855  49.436  1.00  0.00     0.166 HD
BRANCH  13  15
HETATM   15  C6  UNL     1      26.792   4.047  49.381  1.00  0.00     0.090 C 
HETATM   16  C5  UNL     1      26.754   5.274  48.835  1.00  0.00     0.017 C 
BRANCH  16  17
HETATM   17  C4  UNL     1      27.918   5.834  48.208  1.00  0.00     0.003 C 
HETATM   18  C3  UNL     1      28.230   7.100  48.385  1.00  0.00     0.017 C 
BRANCH  18  19
HETATM   19  C2  UNL     1      27.541   8.105  49.170  1.00  0.00    -0.016 C 
HETATM   20  C1  UNL     1      27.891   9.263  49.707  1.00  0.00     0.163 C 
HETATM   21 BR1  UNL     1      25.887   8.601  49.977  1.00  0.00    -0.165 Br
ENDBRANCH  18  19
ENDBRANCH  16  17
ENDBRANCH  13  15
ENDBRANCH   1  13
BRANCH  10  22
HETATM   22  N4  UNL     1      21.105   1.812  51.073  1.00  0.00    -0.303 N 
HETATM   23  C15 UNL     1      20.005   2.536  51.570  1.00  0.00     0.365 C 
HETATM   24  O1  UNL     1      20.057   3.058  52.707  1.00  0.00    -0.238 OA
HETATM   25  H11 UNL     1      20.904   1.444  50.119  1.00  0.00     0.171 HD
BRANCH  23  26
HETATM   26  O2  UNL     1      18.823   2.748  50.923  1.00  0.00    -0.304 OA
BRANCH  26  27
HETATM   27  C16 UNL     1      18.227   4.044  50.798  1.00  0.00     0.176 C 
HETATM   28  C17 UNL     1      16.883   3.982  51.466  1.00  0.00     0.034 C 
ENDBRANCH  26  27
ENDBRANCH  23  26
ENDBRANCH  10  22
TORSDOF 7
ENDMDL
MODEL 7
REMARK VINA RESULT:      -7.5      2.871      6.301
REMARK  7 active torsions:
REMARK  status: ('A' for Active; 'I' for Inactive)
REMARK    1  A    between atoms: C2_2  and  C3_4 
REMARK    2  A    between atoms: C4_5  and  C5_6 
REMARK    3  A    between atoms: C6_7  and  N1_8 
REMARK    4  A    between atoms: N1_8  and  C7_9 
REMARK    5  A    between atoms: C14_18  and  N4_19 
REMARK       I    between atoms: N4_19  and  C15_20 
REMARK    6  A    between atoms: C15_20  and  O2_22 
REMARK    7  A    between atoms: O2_22  and  C16_23 
ROOT
HETATM    1  C7  UNL     1      23.181  -0.023  53.546  1.00  0.00     0.138 A 
HETATM    2  N2  UNL     1      22.707  -1.097  54.203  1.00  0.00    -0.241 NA
HETATM    3  C8  UNL     1      21.370  -1.376  54.198  1.00  0.00     0.142 A 
HETATM    4  C9  UNL     1      20.519  -0.515  53.493  1.00  0.00     0.073 A 
HETATM    5  C10 UNL     1      19.103  -0.743  53.442  1.00  0.00     0.102 C 
HETATM    6  N3  UNL     1      17.943  -0.937  53.419  1.00  0.00    -0.191 NA
HETATM    7  C11 UNL     1      20.997   0.579  52.824  1.00  0.00     0.000 A 
HETATM    8  C12 UNL     1      20.226   1.468  52.112  1.00  0.00     0.016 A 
HETATM    9  C13 UNL     1      20.818   2.537  51.476  1.00  0.00     0.030 A 
HETATM   10  C14 UNL     1      22.165   2.803  51.492  1.00  0.00     0.037 A 
HETATM   11  C18 UNL     1      22.913   1.909  52.204  1.00  0.00     0.045 A 
HETATM   12  C19 UNL     1      22.352   0.830  52.851  1.00  0.00     0.024 A 
ENDROOT
BRANCH   1  13
HETATM   13  N1  UNL     1      24.582   0.143  53.638  1.00  0.00    -0.350 N 
HETATM   14  H7  UNL     1      25.224   0.953  53.750  1.00  0.00     0.166 HD
BRANCH  13  15
HETATM   15  C6  UNL     1      25.459  -0.956  53.581  1.00  0.00     0.090 C 
HETATM   16  C5  UNL     1      26.355  -1.088  52.589  1.00  0.00     0.017 C 
BRANCH  16  17
HETATM   17  C4  UNL     1      27.241  -2.217  52.547  1.00  0.00     0.003 C 
HETATM   18  C3  UNL     1      28.478  -2.115  52.983  1.00  0.00     0.017 C 
BRANCH  18  19
HETATM   19  C2  UNL     1      29.152  -0.959  53.544  1.00  0.00    -0.016 C 
HETATM   20  C1  UNL     1      30.412  -0.561  53.606  1.00  0.00     0.163 C 
HETATM   21 BR1  UNL     1      28.926   0.681  54.487  1.00  0.00    -0.165 Br
ENDBRANCH  18  19
ENDBRANCH  16  17
ENDBRANCH  13  15
ENDBRANCH   1  13
BRANCH  10  22
HETATM   22  N4  UNL     1      22.833   3.877  50.862  1.00  0.00    -0.303 N 
HETATM   23  C15 UNL     1      23.443   5.003  51.446  1.00  0.00     0.365 C 
HETATM   24  O1  UNL     1      23.437   5.148  52.690  1.00  0.00    -0.238 OA
HETATM   25  H11 UNL     1      22.924   3.904  49.824  1.00  0.00     0.171 HD
BRANCH  23  26
HETATM   26  O2  UNL     1      24.075   6.011  50.779  1.00  0.00    -0.304 OA
BRANCH  26  27
HETATM   27  C16 UNL     1      23.482   6.704  49.674  1.00  0.00     0.176 C 
HETATM   28  C17 UNL     1      22.970   8.016  50.195  1.00  0.00     0.034 C 
ENDBRANCH  26  27
ENDBRANCH  23  26
ENDBRANCH  10  22
TORSDOF 7
ENDMDL
MODEL 8
REMARK VINA RESULT:      -7.3      3.301      6.272
REMARK  7 active torsions:
REMARK  status: ('A' for Active; 'I' for Inactive)
REMARK    1  A    between atoms: C2_2  and  C3_4 
REMARK    2  A    between atoms: C4_5  and  C5_6 
REMARK    3  A    between atoms: C6_7  and  N1_8 
REMARK    4  A    between atoms: N1_8  and  C7_9 
REMARK    5  A    between atoms: C14_18  and  N4_19 
REMARK       I    between atoms: N4_19  and  C15_20 
REMARK    6  A    between atoms: C15_20  and  O2_22 
REMARK    7  A    between atoms: O2_22  and  C16_23 
ROOT
HETATM    1  C7  UNL     1      25.609   2.755  50.806  1.00  0.00     0.138 A 
HETATM    2  N2  UNL     1      26.908   2.675  51.148  1.00  0.00    -0.241 NA
HETATM    3  C8  UNL     1      27.297   1.907  52.208  1.00  0.00     0.142 A 
HETATM    4  C9  UNL     1      26.309   1.211  52.916  1.00  0.00     0.073 A 
HETATM    5  C10 UNL     1      26.640   0.383  54.041  1.00  0.00     0.102 C 
HETATM    6  N3  UNL     1      26.928  -0.283  54.967  1.00  0.00    -0.191 NA
HETATM    7  C11 UNL     1      24.986   1.289  52.572  1.00  0.00     0.000 A 
HETATM    8  C12 UNL     1      23.962   0.638  53.218  1.00  0.00     0.016 A 
HETATM    9  C13 UNL     1      22.665   0.792  52.780  1.00  0.00     0.030 A 
HETATM   10  C14 UNL     1      22.291   1.570  51.712  1.00  0.00     0.037 A 
HETATM   11  C18 UNL     1      23.322   2.208  51.085  1.00  0.00     0.045 A 
HETATM   12  C19 UNL     1      24.630   2.075  51.497  1.00  0.00     0.024 A 
ENDROOT
BRANCH   1  13
HETATM   13  N1  UNL     1      25.352   3.587  49.691  1.00  0.00    -0.350 N 
HETATM   14  H7  UNL     1      25.045   3.433  48.710  1.00  0.00     0.166 HD
BRANCH  13  15
HETATM   15  C6  UNL     1      25.503   4.983  49.765  1.00  0.00     0.090 C 
HETATM   16  C5  UNL     1      24.825   5.716  50.664  1.00  0.00     0.017 C 
BRANCH  16  17
HETATM   17  C4  UNL     1      24.992   7.141  50.724  1.00  0.00     0.003 C 
HETATM   18  C3  UNL     1      23.965   7.944  50.541  1.00  0.00     0.017 C 
BRANCH  18  19
HETATM   19  C2  UNL     1      22.583   7.604  50.265  1.00  0.00    -0.016 C 
HETATM   20  C1  UNL     1      21.613   8.166  49.563  1.00  0.00     0.163 C 
HETATM   21 BR1  UNL     1      21.190   6.340  50.571  1.00  0.00    -0.165 Br
ENDBRANCH  18  19
ENDBRANCH  16  17
ENDBRANCH  13  15
ENDBRANCH   1  13
BRANCH  10  22
HETATM   22  N4  UNL     1      20.984   1.768  51.215  1.00  0.00    -0.303 N 
HETATM   23  C15 UNL     1      19.951   2.572  51.735  1.00  0.00     0.365 C 
HETATM   24  O1  UNL     1      20.137   3.234  52.781  1.00  0.00    -0.238 OA
HETATM   25  H11 UNL     1      20.673   1.285  50.346  1.00  0.00     0.171 HD
BRANCH  23  26
HETATM   26  O2  UNL     1      18.704   2.722  51.204  1.00  0.00    -0.304 OA
BRANCH  26  27
HETATM   27  C16 UNL     1      18.073   3.998  51.050  1.00  0.00     0.176 C 
HETATM   28  C17 UNL     1      16.676   3.871  51.587  1.00  0.00     0.034 C 
ENDBRANCH  26  27
ENDBRANCH  23  26
ENDBRANCH  10  22
TORSDOF 7
ENDMDL
MODEL 9
REMARK VINA RESULT:      -7.3      3.267      6.053
REMARK  7 active torsions:
REMARK  status: ('A' for Active; 'I' for Inactive)
REMARK    1  A    between atoms: C2_2  and  C3_4 
REMARK    2  A    between atoms: C4_5  and  C5_6 
REMARK    3  A    between atoms: C6_7  and  N1_8 
REMARK    4  A    between atoms: N1_8  and  C7_9 
REMARK    5  A    between atoms: C14_18  and  N4_19 
REMARK       I    between atoms: N4_19  and  C15_20 
REMARK    6  A    between atoms: C15_20  and  O2_22 
REMARK    7  A    between atoms: O2_22  and  C16_23 
ROOT
HETATM    1  C7  UNL     1      25.322   2.632  52.121  1.00  0.00     0.138 A 
HETATM    2  N2  UNL     1      26.660   2.663  51.985  1.00  0.00    -0.241 NA
HETATM    3  C8  UNL     1      27.410   1.563  52.287  1.00  0.00     0.142 A 
HETATM    4  C9  UNL     1      26.747   0.415  52.738  1.00  0.00     0.073 A 
HETATM    5  C10 UNL     1      27.468  -0.781  53.074  1.00  0.00     0.102 C 
HETATM    6  N3  UNL     1      28.074  -1.748  53.357  1.00  0.00    -0.191 NA
HETATM    7  C11 UNL     1      25.386   0.379  52.878  1.00  0.00     0.000 A 
HETATM    8  C12 UNL     1      24.665  -0.708  53.313  1.00  0.00     0.016 A 
HETATM    9  C13 UNL     1      23.294  -0.628  53.415  1.00  0.00     0.030 A 
HETATM   10  C14 UNL     1      22.554   0.487  53.108  1.00  0.00     0.037 A 
HETATM   11  C18 UNL     1      23.288   1.555  52.677  1.00  0.00     0.045 A 
HETATM   12  C19 UNL     1      24.661   1.508  52.564  1.00  0.00     0.024 A 
ENDROOT
BRANCH   1  13
HETATM   13  N1  UNL     1      24.675   3.841  51.774  1.00  0.00    -0.350 N 
HETATM   14  H7  UNL     1      24.187   4.594  52.298  1.00  0.00     0.166 HD
BRANCH  13  15
HETATM   15  C6  UNL     1      24.583   4.269  50.437  1.00  0.00     0.090 C 
HETATM   16  C5  UNL     1      23.463   4.834  49.957  1.00  0.00     0.017 C 
BRANCH  16  17
HETATM   17  C4  UNL     1      23.387   5.264  48.589  1.00  0.00     0.003 C 
HETATM   18  C3  UNL     1      22.724   4.556  47.699  1.00  0.00     0.017 C 
BRANCH  18  19
HETATM   19  C2  UNL     1      21.999   3.314  47.884  1.00  0.00    -0.016 C 
HETATM   20  C1  UNL     1      22.314   2.033  47.780  1.00  0.00     0.163 C 
HETATM   21 BR1  UNL     1      20.323   2.531  48.340  1.00  0.00    -0.165 Br
ENDBRANCH  18  19
ENDBRANCH  16  17
ENDBRANCH  13  15
ENDBRANCH   1  13
BRANCH  10  22
HETATM   22  N4  UNL     1      21.151   0.632  53.190  1.00  0.00    -0.303 N 
HETATM   23  C15 UNL     1      20.183   0.460  52.182  1.00  0.00     0.365 C 
HETATM   24  O1  UNL     1      20.532   0.132  51.025  1.00  0.00    -0.238 OA
HETATM   25  H11 UNL     1      20.702   0.903  54.090  1.00  0.00     0.171 HD
BRANCH  23  26
HETATM   26  O2  UNL     1      18.836   0.616  52.326  1.00  0.00    -0.304 OA
BRANCH  26  27
HETATM   27  C16 UNL     1      17.909  -0.466  52.188  1.00  0.00     0.176 C 
HETATM   28  C17 UNL     1      17.076  -0.185  50.970  1.00  0.00     0.034 C 
ENDBRANCH  26  27
ENDBRANCH  23  26
ENDBRANCH  10  22
TORSDOF 7
ENDMDL
