MODEL 1
REMARK VINA RESULT:      -6.4      0.000      0.000
REMARK  10 active torsions:
REMARK  status: ('A' for Active; 'I' for Inactive)
REMARK    1  A    between atoms: C6_7  and  C7_8 
REMARK    2  A    between atoms: C7_8  and  C8_9 
REMARK    3  A    between atoms: C8_9  and  C9_10 
REMARK    4  A    between atoms: C8_9  and  C18_22 
REMARK    5  A    between atoms: C10_11  and  C11_12 
REMARK    6  A    between atoms: C11_12  and  C12_13 
REMARK    7  A    between atoms: C12_13  and  C13_15 
REMARK    8  A    between atoms: C13_15  and  C14_16 
REMARK    9  A    between atoms: C14_16  and  N1_17 
REMARK   10  A    between atoms: C18_22  and  O3_23 
ROOT
HETATM    1  C8  UNL     1      24.463   5.324  50.463  1.00  0.00     0.036 C 
ENDROOT
BRANCH   1   2
HETATM    2  C7  UNL     1      23.318   4.924  49.584  1.00  0.00     0.049 C 
BRANCH   2   3
HETATM    3  C6  UNL     1      22.537   3.821  50.148  1.00  0.00    -0.054 C 
HETATM    4  C2  UNL     1      22.459   2.461  49.621  1.00  0.00    -0.044 C 
HETATM    5  C1  UNL     1      22.566   2.284  48.128  1.00  0.00     0.049 C 
HETATM    6  C3  UNL     1      22.287   1.328  50.227  1.00  0.00    -0.008 C 
HETATM    7  P1  UNL     1      21.169   1.410  51.426  1.00  0.00    -0.045 P 
HETATM    8  C4  UNL     1      20.798   3.153  51.974  1.00  0.00     0.072 C 
HETATM    9  C5  UNL     1      21.739   4.002  51.210  1.00  0.00    -0.014 C 
ENDBRANCH   2   3
ENDBRANCH   1   2
BRANCH   1  10
HETATM   10  C9  UNL     1      25.760   5.331  49.792  1.00  0.00    -0.023 C 
HETATM   11  C10 UNL     1      26.395   4.169  49.519  1.00  0.00    -0.023 C 
BRANCH  11  12
HETATM   12  C11 UNL     1      26.144   2.733  49.720  1.00  0.00     0.105 C 
BRANCH  12  13
HETATM   13  C12 UNL     1      26.563   2.316  51.076  1.00  0.00     0.132 C 
HETATM   14  O1  UNL     1      27.561   2.786  51.592  1.00  0.00    -0.298 OA
BRANCH  13  15
HETATM   15  C13 UNL     1      25.750   1.291  51.836  1.00  0.00     0.109 C 
BRANCH  15  16
HETATM   16  C14 UNL     1      26.540   0.014  51.993  1.00  0.00     0.282 C 
BRANCH  16  17
HETATM   17  N1  UNL     1      26.817  -0.334  53.371  1.00  0.00     0.113 N 
HETATM   18  C15 UNL     1      28.282  -0.421  53.505  1.00  0.00     0.301 C 
HETATM   19  C16 UNL     1      28.492   0.169  54.880  1.00  0.00     0.200 C 
HETATM   20  O2  UNL     1      27.602   1.237  54.849  1.00  0.00    -0.361 OA
HETATM   21  C17 UNL     1      26.447   0.736  54.281  1.00  0.00     0.440 C 
ENDBRANCH  16  17
ENDBRANCH  15  16
ENDBRANCH  13  15
ENDBRANCH  12  13
ENDBRANCH  11  12
ENDBRANCH   1  10
BRANCH   1  22
HETATM   22  C18 UNL     1      24.158   6.729  51.042  1.00  0.00     0.172 C 
BRANCH  22  23
HETATM   23  O3  UNL     1      24.477   6.773  52.409  1.00  0.00    -0.400 OA
HETATM   24  H26 UNL     1      24.007   6.019  52.843  1.00  0.00     0.209 HD
ENDBRANCH  22  23
ENDBRANCH   1  22
TORSDOF 10
ENDMDL
MODEL 2
REMARK VINA RESULT:      -6.3      3.556      6.305
REMARK  10 active torsions:
REMARK  status: ('A' for Active; 'I' for Inactive)
REMARK    1  A    between atoms: C6_7  and  C7_8 
REMARK    2  A    between atoms: C7_8  and  C8_9 
REMARK    3  A    between atoms: C8_9  and  C9_10 
REMARK    4  A    between atoms: C8_9  and  C18_22 
REMARK    5  A    between atoms: C10_11  and  C11_12 
REMARK    6  A    between atoms: C11_12  and  C12_13 
REMARK    7  A    between atoms: C12_13  and  C13_15 
REMARK    8  A    between atoms: C13_15  and  C14_16 
REMARK    9  A    between atoms: C14_16  and  N1_17 
REMARK   10  A    between atoms: C18_22  and  O3_23 
ROOT
HETATM    1  C8  UNL     1      24.045   3.629  51.653  1.00  0.00     0.036 C 
ENDROOT
BRANCH   1   2
HETATM    2  C7  UNL     1      23.644   2.321  52.262  1.00  0.00     0.049 C 
BRANCH   2   3
HETATM    3  C6  UNL     1      24.786   1.579  52.799  1.00  0.00    -0.054 C 
HETATM    4  C2  UNL     1      24.797   0.171  53.188  1.00  0.00    -0.044 C 
HETATM    5  C1  UNL     1      23.520  -0.409  53.741  1.00  0.00     0.049 C 
HETATM    6  C3  UNL     1      25.749  -0.707  53.160  1.00  0.00    -0.008 C 
HETATM    7  P1  UNL     1      27.192  -0.096  53.649  1.00  0.00    -0.045 P 
HETATM    8  C4  UNL     1      27.252   1.767  53.631  1.00  0.00     0.072 C 
HETATM    9  C5  UNL     1      25.956   2.185  53.052  1.00  0.00    -0.014 C 
ENDBRANCH   2   3
ENDBRANCH   1   2
BRANCH   1  10
HETATM   10  C9  UNL     1      23.901   3.684  50.201  1.00  0.00    -0.023 C 
HETATM   11  C10 UNL     1      24.994   3.657  49.404  1.00  0.00    -0.023 C 
BRANCH  11  12
HETATM   12  C11 UNL     1      26.453   3.585  49.581  1.00  0.00     0.105 C 
BRANCH  12  13
HETATM   13  C12 UNL     1      27.111   4.753  48.956  1.00  0.00     0.132 C 
HETATM   14  O1  UNL     1      28.237   4.665  48.500  1.00  0.00    -0.298 OA
BRANCH  13  15
HETATM   15  C13 UNL     1      26.386   6.079  48.883  1.00  0.00     0.109 C 
BRANCH  15  16
HETATM   16  C14 UNL     1      27.224   7.090  48.140  1.00  0.00     0.282 C 
BRANCH  16  17
HETATM   17  N1  UNL     1      27.809   8.103  48.994  1.00  0.00     0.113 N 
HETATM   18  C15 UNL     1      28.050   9.288  48.151  1.00  0.00     0.301 C 
HETATM   19  C16 UNL     1      27.705  10.408  49.105  1.00  0.00     0.200 C 
HETATM   20  O2  UNL     1      26.569   9.893  49.719  1.00  0.00    -0.361 OA
HETATM   21  C17 UNL     1      26.866   8.573  49.994  1.00  0.00     0.440 C 
ENDBRANCH  16  17
ENDBRANCH  15  16
ENDBRANCH  13  15
ENDBRANCH  12  13
ENDBRANCH  11  12
ENDBRANCH   1  10
BRANCH   1  22
HETATM   22  C18 UNL     1      23.198   4.747  52.312  1.00  0.00     0.172 C 
BRANCH  22  23
HETATM   23  O3  UNL     1      23.891   5.307  53.398  1.00  0.00    -0.400 OA
HETATM   24  H26 UNL     1      23.264   5.337  54.161  1.00  0.00     0.209 HD
ENDBRANCH  22  23
ENDBRANCH   1  22
TORSDOF 10
ENDMDL
MODEL 3
REMARK VINA RESULT:      -6.2      1.583      2.233
REMARK  10 active torsions:
REMARK  status: ('A' for Active; 'I' for Inactive)
REMARK    1  A    between atoms: C6_7  and  C7_8 
REMARK    2  A    between atoms: C7_8  and  C8_9 
REMARK    3  A    between atoms: C8_9  and  C9_10 
REMARK    4  A    between atoms: C8_9  and  C18_22 
REMARK    5  A    between atoms: C10_11  and  C11_12 
REMARK    6  A    between atoms: C11_12  and  C12_13 
REMARK    7  A    between atoms: C12_13  and  C13_15 
REMARK    8  A    between atoms: C13_15  and  C14_16 
REMARK    9  A    between atoms: C14_16  and  N1_17 
REMARK   10  A    between atoms: C18_22  and  O3_23 
ROOT
HETATM    1  C8  UNL     1      25.204   3.994  50.088  1.00  0.00     0.036 C 
ENDROOT
BRANCH   1   2
HETATM    2  C7  UNL     1      24.112   3.342  49.296  1.00  0.00     0.049 C 
BRANCH   2   3
HETATM    3  C6  UNL     1      22.978   2.940  50.131  1.00  0.00    -0.054 C 
HETATM    4  C2  UNL     1      22.092   1.804  49.894  1.00  0.00    -0.044 C 
HETATM    5  C1  UNL     1      21.820   1.418  48.462  1.00  0.00     0.049 C 
HETATM    6  C3  UNL     1      21.452   1.042  50.725  1.00  0.00    -0.008 C 
HETATM    7  P1  UNL     1      20.787   1.878  51.971  1.00  0.00    -0.045 P 
HETATM    8  C4  UNL     1      21.511   3.582  52.190  1.00  0.00     0.072 C 
HETATM    9  C5  UNL     1      22.605   3.662  51.197  1.00  0.00    -0.014 C 
ENDBRANCH   2   3
ENDBRANCH   1   2
BRANCH   1  10
HETATM   10  C9  UNL     1      26.395   3.166  50.263  1.00  0.00    -0.023 C 
HETATM   11  C10 UNL     1      26.540   2.403  51.369  1.00  0.00    -0.023 C 
BRANCH  11  12
HETATM   12  C11 UNL     1      25.773   2.127  52.594  1.00  0.00     0.105 C 
BRANCH  12  13
HETATM   13  C12 UNL     1      26.683   1.865  53.731  1.00  0.00     0.132 C 
HETATM   14  O1  UNL     1      27.609   2.618  53.975  1.00  0.00    -0.298 OA
BRANCH  13  15
HETATM   15  C13 UNL     1      26.471   0.647  54.603  1.00  0.00     0.109 C 
BRANCH  15  16
HETATM   16  C14 UNL     1      26.249  -0.575  53.746  1.00  0.00     0.282 C 
BRANCH  16  17
HETATM   17  N1  UNL     1      27.396  -0.940  52.942  1.00  0.00     0.113 N 
HETATM   18  C15 UNL     1      28.580  -0.839  53.813  1.00  0.00     0.301 C 
HETATM   19  C16 UNL     1      29.398  -2.020  53.343  1.00  0.00     0.200 C 
HETATM   20  O2  UNL     1      28.408  -2.984  53.192  1.00  0.00    -0.361 OA
HETATM   21  C17 UNL     1      27.361  -2.341  52.562  1.00  0.00     0.440 C 
ENDBRANCH  16  17
ENDBRANCH  15  16
ENDBRANCH  13  15
ENDBRANCH  12  13
ENDBRANCH  11  12
ENDBRANCH   1  10
BRANCH   1  22
HETATM   22  C18 UNL     1      25.581   5.323  49.386  1.00  0.00     0.172 C 
BRANCH  22  23
HETATM   23  O3  UNL     1      25.893   6.307  50.339  1.00  0.00    -0.400 OA
HETATM   24  H26 UNL     1      25.903   7.177  49.870  1.00  0.00     0.209 HD
ENDBRANCH  22  23
ENDBRANCH   1  22
TORSDOF 10
ENDMDL
MODEL 4
REMARK VINA RESULT:      -6.2      2.505      5.536
REMARK  10 active torsions:
REMARK  status: ('A' for Active; 'I' for Inactive)
REMARK    1  A    between atoms: C6_7  and  C7_8 
REMARK    2  A    between atoms: C7_8  and  C8_9 
REMARK    3  A    between atoms: C8_9  and  C9_10 
REMARK    4  A    between atoms: C8_9  and  C18_22 
REMARK    5  A    between atoms: C10_11  and  C11_12 
REMARK    6  A    between atoms: C11_12  and  C12_13 
REMARK    7  A    between atoms: C12_13  and  C13_15 
REMARK    8  A    between atoms: C13_15  and  C14_16 
REMARK    9  A    between atoms: C14_16  and  N1_17 
REMARK   10  A    between atoms: C18_22  and  O3_23 
ROOT
HETATM    1  C8  UNL     1      25.766   0.645  52.263  1.00  0.00     0.036 C 
ENDROOT
BRANCH   1   2
HETATM    2  C7  UNL     1      24.777   0.967  53.340  1.00  0.00     0.049 C 
BRANCH   2   3
HETATM    3  C6  UNL     1      23.394   0.742  52.917  1.00  0.00    -0.054 C 
HETATM    4  C2  UNL     1      22.351   0.076  53.693  1.00  0.00    -0.044 C 
HETATM    5  C1  UNL     1      22.775  -1.030  54.626  1.00  0.00     0.049 C 
HETATM    6  C3  UNL     1      21.068   0.257  53.716  1.00  0.00    -0.008 C 
HETATM    7  P1  UNL     1      20.432   0.495  52.221  1.00  0.00    -0.045 P 
HETATM    8  C4  UNL     1      21.705   0.957  50.940  1.00  0.00     0.072 C 
HETATM    9  C5  UNL     1      22.973   1.089  51.692  1.00  0.00    -0.014 C 
ENDBRANCH   2   3
ENDBRANCH   1   2
BRANCH   1  10
HETATM   10  C9  UNL     1      26.854   1.612  52.138  1.00  0.00    -0.023 C 
HETATM   11  C10 UNL     1      26.795   2.591  51.207  1.00  0.00    -0.023 C 
BRANCH  11  12
HETATM   12  C11 UNL     1      25.857   3.023  50.158  1.00  0.00     0.105 C 
BRANCH  12  13
HETATM   13  C12 UNL     1      26.401   4.184  49.420  1.00  0.00     0.132 C 
HETATM   14  O1  UNL     1      27.547   4.181  49.008  1.00  0.00    -0.298 OA
BRANCH  13  15
HETATM   15  C13 UNL     1      25.530   5.397  49.174  1.00  0.00     0.109 C 
BRANCH  15  16
HETATM   16  C14 UNL     1      24.083   4.984  49.064  1.00  0.00     0.282 C 
BRANCH  16  17
HETATM   17  N1  UNL     1      23.218   5.627  50.031  1.00  0.00     0.113 N 
HETATM   18  C15 UNL     1      22.266   4.605  50.500  1.00  0.00     0.301 C 
HETATM   19  C16 UNL     1      22.146   4.959  51.965  1.00  0.00     0.200 C 
HETATM   20  O2  UNL     1      23.471   5.240  52.279  1.00  0.00    -0.361 OA
HETATM   21  C17 UNL     1      23.942   6.006  51.231  1.00  0.00     0.440 C 
ENDBRANCH  16  17
ENDBRANCH  15  16
ENDBRANCH  13  15
ENDBRANCH  12  13
ENDBRANCH  11  12
ENDBRANCH   1  10
BRANCH   1  22
HETATM   22  C18 UNL     1      26.341  -0.767  52.543  1.00  0.00     0.172 C 
BRANCH  22  23
HETATM   23  O3  UNL     1      26.474  -0.973  53.926  1.00  0.00    -0.400 OA
HETATM   24  H26 UNL     1      26.049  -1.841  54.135  1.00  0.00     0.209 HD
ENDBRANCH  22  23
ENDBRANCH   1  22
TORSDOF 10
ENDMDL
MODEL 5
REMARK VINA RESULT:      -6.2      3.851      6.060
REMARK  10 active torsions:
REMARK  status: ('A' for Active; 'I' for Inactive)
REMARK    1  A    between atoms: C6_7  and  C7_8 
REMARK    2  A    between atoms: C7_8  and  C8_9 
REMARK    3  A    between atoms: C8_9  and  C9_10 
REMARK    4  A    between atoms: C8_9  and  C18_22 
REMARK    5  A    between atoms: C10_11  and  C11_12 
REMARK    6  A    between atoms: C11_12  and  C12_13 
REMARK    7  A    between atoms: C12_13  and  C13_15 
REMARK    8  A    between atoms: C13_15  and  C14_16 
REMARK    9  A    between atoms: C14_16  and  N1_17 
REMARK   10  A    between atoms: C18_22  and  O3_23 
ROOT
HETATM    1  C8  UNL     1      24.224   3.542  51.863  1.00  0.00     0.036 C 
ENDROOT
BRANCH   1   2
HETATM    2  C7  UNL     1      23.904   2.330  52.683  1.00  0.00     0.049 C 
BRANCH   2   3
HETATM    3  C6  UNL     1      25.089   1.522  52.978  1.00  0.00    -0.054 C 
HETATM    4  C2  UNL     1      25.117   0.079  53.199  1.00  0.00    -0.044 C 
HETATM    5  C1  UNL     1      23.911  -0.551  53.846  1.00  0.00     0.049 C 
HETATM    6  C3  UNL     1      26.038  -0.798  52.947  1.00  0.00    -0.008 C 
HETATM    7  P1  UNL     1      27.546  -0.258  53.307  1.00  0.00    -0.045 P 
HETATM    8  C4  UNL     1      27.645   1.594  53.493  1.00  0.00     0.072 C 
HETATM    9  C5  UNL     1      26.295   2.086  53.141  1.00  0.00    -0.014 C 
ENDBRANCH   2   3
ENDBRANCH   1   2
BRANCH   1  10
HETATM   10  C9  UNL     1      24.013   3.368  50.428  1.00  0.00    -0.023 C 
HETATM   11  C10 UNL     1      25.053   3.457  49.569  1.00  0.00    -0.023 C 
BRANCH  11  12
HETATM   12  C11 UNL     1      26.501   3.709  49.653  1.00  0.00     0.105 C 
BRANCH  12  13
HETATM   13  C12 UNL     1      26.855   4.954  48.937  1.00  0.00     0.132 C 
HETATM   14  O1  UNL     1      26.020   5.817  48.735  1.00  0.00    -0.298 OA
BRANCH  13  15
HETATM   15  C13 UNL     1      28.270   5.163  48.441  1.00  0.00     0.109 C 
BRANCH  15  16
HETATM   16  C14 UNL     1      28.542   6.635  48.251  1.00  0.00     0.282 C 
BRANCH  16  17
HETATM   17  N1  UNL     1      29.938   6.946  48.028  1.00  0.00     0.113 N 
HETATM   18  C15 UNL     1      30.249   8.133  48.844  1.00  0.00     0.301 C 
HETATM   19  C16 UNL     1      31.648   7.811  49.318  1.00  0.00     0.200 C 
HETATM   20  O2  UNL     1      31.522   6.459  49.615  1.00  0.00    -0.361 OA
HETATM   21  C17 UNL     1      30.810   5.916  48.564  1.00  0.00     0.440 C 
ENDBRANCH  16  17
ENDBRANCH  15  16
ENDBRANCH  13  15
ENDBRANCH  12  13
ENDBRANCH  11  12
ENDBRANCH   1  10
BRANCH   1  22
HETATM   22  C18 UNL     1      23.364   4.720  52.387  1.00  0.00     0.172 C 
BRANCH  22  23
HETATM   23  O3  UNL     1      24.129   5.896  52.440  1.00  0.00    -0.400 OA
HETATM   24  H26 UNL     1      23.606   6.606  51.993  1.00  0.00     0.209 HD
ENDBRANCH  22  23
ENDBRANCH   1  22
TORSDOF 10
ENDMDL
MODEL 6
REMARK VINA RESULT:      -6.1      2.824      4.596
REMARK  10 active torsions:
REMARK  status: ('A' for Active; 'I' for Inactive)
REMARK    1  A    between atoms: C6_7  and  C7_8 
REMARK    2  A    between atoms: C7_8  and  C8_9 
REMARK    3  A    between atoms: C8_9  and  C9_10 
REMARK    4  A    between atoms: C8_9  and  C18_22 
REMARK    5  A    between atoms: C10_11  and  C11_12 
REMARK    6  A    between atoms: C11_12  and  C12_13 
REMARK    7  A    between atoms: C12_13  and  C13_15 
REMARK    8  A    between atoms: C13_15  and  C14_16 
REMARK    9  A    between atoms: C14_16  and  N1_17 
REMARK   10  A    between atoms: C18_22  and  O3_23 
ROOT
HETATM    1  C8  UNL     1      22.443   0.967  51.689  1.00  0.00     0.036 C 
ENDROOT
BRANCH   1   2
HETATM    2  C7  UNL     1      22.599   2.457  51.657  1.00  0.00     0.049 C 
BRANCH   2   3
HETATM    3  C6  UNL     1      23.802   2.880  50.938  1.00  0.00    -0.054 C 
HETATM    4  C2  UNL     1      23.842   3.631  49.687  1.00  0.00    -0.044 C 
HETATM    5  C1  UNL     1      22.726   3.400  48.700  1.00  0.00     0.049 C 
HETATM    6  C3  UNL     1      24.708   4.486  49.239  1.00  0.00    -0.008 C 
HETATM    7  P1  UNL     1      26.258   4.039  49.544  1.00  0.00    -0.045 P 
HETATM    8  C4  UNL     1      26.406   2.731  50.864  1.00  0.00     0.072 C 
HETATM    9  C5  UNL     1      25.027   2.533  51.362  1.00  0.00    -0.014 C 
ENDBRANCH   2   3
ENDBRANCH   1   2
BRANCH   1  10
HETATM   10  C9  UNL     1      22.164   0.421  53.014  1.00  0.00    -0.023 C 
HETATM   11  C10 UNL     1      23.138  -0.199  53.717  1.00  0.00    -0.023 C 
BRANCH  11  12
HETATM   12  C11 UNL     1      24.559  -0.530  53.525  1.00  0.00     0.105 C 
BRANCH  12  13
HETATM   13  C12 UNL     1      25.235  -0.699  54.831  1.00  0.00     0.132 C 
HETATM   14  O1  UNL     1      24.759  -1.418  55.691  1.00  0.00    -0.298 OA
BRANCH  13  15
HETATM   15  C13 UNL     1      26.531   0.030  55.110  1.00  0.00     0.109 C 
BRANCH  15  16
HETATM   16  C14 UNL     1      26.926   0.865  53.916  1.00  0.00     0.282 C 
BRANCH  16  17
HETATM   17  N1  UNL     1      28.078   0.356  53.203  1.00  0.00     0.113 N 
HETATM   18  C15 UNL     1      29.224   0.436  54.125  1.00  0.00     0.301 C 
HETATM   19  C16 UNL     1      29.969  -0.835  53.787  1.00  0.00     0.200 C 
HETATM   20  O2  UNL     1      28.916  -1.732  53.654  1.00  0.00    -0.361 OA
HETATM   21  C17 UNL     1      27.953  -1.064  52.924  1.00  0.00     0.440 C 
ENDBRANCH  16  17
ENDBRANCH  15  16
ENDBRANCH  13  15
ENDBRANCH  12  13
ENDBRANCH  11  12
ENDBRANCH   1  10
BRANCH   1  22
HETATM   22  C18 UNL     1      21.309   0.581  50.705  1.00  0.00     0.172 C 
BRANCH  22  23
HETATM   23  O3  UNL     1      20.145   0.243  51.414  1.00  0.00    -0.400 OA
HETATM   24  H26 UNL     1      20.402   0.128  52.362  1.00  0.00     0.209 HD
ENDBRANCH  22  23
ENDBRANCH   1  22
TORSDOF 10
ENDMDL
MODEL 7
REMARK VINA RESULT:      -6.1      3.278      6.311
REMARK  10 active torsions:
REMARK  status: ('A' for Active; 'I' for Inactive)
REMARK    1  A    between atoms: C6_7  and  C7_8 
REMARK    2  A    between atoms: C7_8  and  C8_9 
REMARK    3  A    between atoms: C8_9  and  C9_10 
REMARK    4  A    between atoms: C8_9  and  C18_22 
REMARK    5  A    between atoms: C10_11  and  C11_12 
REMARK    6  A    between atoms: C11_12  and  C12_13 
REMARK    7  A    between atoms: C12_13  and  C13_15 
REMARK    8  A    between atoms: C13_15  and  C14_16 
REMARK    9  A    between atoms: C14_16  and  N1_17 
REMARK   10  A    between atoms: C18_22  and  O3_23 
ROOT
HETATM    1  C8  UNL     1      25.909   1.094  53.431  1.00  0.00     0.036 C 
ENDROOT
BRANCH   1   2
HETATM    2  C7  UNL     1      25.787   1.245  51.946  1.00  0.00     0.049 C 
BRANCH   2   3
HETATM    3  C6  UNL     1      25.066   2.461  51.564  1.00  0.00    -0.054 C 
HETATM    4  C2  UNL     1      25.194   3.179  50.298  1.00  0.00    -0.044 C 
HETATM    5  C1  UNL     1      26.540   3.163  49.620  1.00  0.00     0.049 C 
HETATM    6  C3  UNL     1      24.329   3.875  49.629  1.00  0.00    -0.008 C 
HETATM    7  P1  UNL     1      23.393   4.821  50.590  1.00  0.00    -0.045 P 
HETATM    8  C4  UNL     1      23.424   4.315  52.384  1.00  0.00     0.072 C 
HETATM    9  C5  UNL     1      24.238   3.079  52.418  1.00  0.00    -0.014 C 
ENDBRANCH   2   3
ENDBRANCH   1   2
BRANCH   1  10
HETATM   10  C9  UNL     1      25.685  -0.265  53.917  1.00  0.00    -0.023 C 
HETATM   11  C10 UNL     1      24.453  -0.819  53.853  1.00  0.00    -0.023 C 
BRANCH  11  12
HETATM   12  C11 UNL     1      23.115  -0.416  53.393  1.00  0.00     0.105 C 
BRANCH  12  13
HETATM   13  C12 UNL     1      22.108  -0.645  54.453  1.00  0.00     0.132 C 
HETATM   14  O1  UNL     1      22.260  -1.530  55.276  1.00  0.00    -0.298 OA
BRANCH  13  15
HETATM   15  C13 UNL     1      20.871   0.223  54.520  1.00  0.00     0.109 C 
BRANCH  15  16
HETATM   16  C14 UNL     1      19.962  -0.076  53.353  1.00  0.00     0.282 C 
BRANCH  16  17
HETATM   17  N1  UNL     1      20.106   0.850  52.249  1.00  0.00     0.113 N 
HETATM   18  C15 UNL     1      18.788   0.949  51.598  1.00  0.00     0.301 C 
HETATM   19  C16 UNL     1      18.741   2.417  51.240  1.00  0.00     0.200 C 
HETATM   20  O2  UNL     1      19.280   2.987  52.388  1.00  0.00    -0.361 OA
HETATM   21  C17 UNL     1      20.369   2.201  52.712  1.00  0.00     0.440 C 
ENDBRANCH  16  17
ENDBRANCH  15  16
ENDBRANCH  13  15
ENDBRANCH  12  13
ENDBRANCH  11  12
ENDBRANCH   1  10
BRANCH   1  22
HETATM   22  C18 UNL     1      27.320   1.581  53.850  1.00  0.00     0.172 C 
BRANCH  22  23
HETATM   23  O3  UNL     1      27.771   0.860  54.969  1.00  0.00    -0.400 OA
HETATM   24  H26 UNL     1      27.939  -0.067  54.671  1.00  0.00     0.209 HD
ENDBRANCH  22  23
ENDBRANCH   1  22
TORSDOF 10
ENDMDL
MODEL 8
REMARK VINA RESULT:      -6.1      3.280      6.018
REMARK  10 active torsions:
REMARK  status: ('A' for Active; 'I' for Inactive)
REMARK    1  A    between atoms: C6_7  and  C7_8 
REMARK    2  A    between atoms: C7_8  and  C8_9 
REMARK    3  A    between atoms: C8_9  and  C9_10 
REMARK    4  A    between atoms: C8_9  and  C18_22 
REMARK    5  A    between atoms: C10_11  and  C11_12 
REMARK    6  A    between atoms: C11_12  and  C12_13 
REMARK    7  A    between atoms: C12_13  and  C13_15 
REMARK    8  A    between atoms: C13_15  and  C14_16 
REMARK    9  A    between atoms: C14_16  and  N1_17 
REMARK   10  A    between atoms: C18_22  and  O3_23 
ROOT
HETATM    1  C8  UNL     1      24.059   3.459  51.815  1.00  0.00     0.036 C 
ENDROOT
BRANCH   1   2
HETATM    2  C7  UNL     1      23.698   2.185  52.517  1.00  0.00     0.049 C 
BRANCH   2   3
HETATM    3  C6  UNL     1      24.876   1.428  52.946  1.00  0.00    -0.054 C 
HETATM    4  C2  UNL     1      24.921   0.001  53.251  1.00  0.00    -0.044 C 
HETATM    5  C1  UNL     1      23.683  -0.626  53.839  1.00  0.00     0.049 C 
HETATM    6  C3  UNL     1      25.879  -0.862  53.120  1.00  0.00    -0.008 C 
HETATM    7  P1  UNL     1      27.341  -0.262  53.562  1.00  0.00    -0.045 P 
HETATM    8  C4  UNL     1      27.382   1.600  53.649  1.00  0.00     0.072 C 
HETATM    9  C5  UNL     1      26.051   2.034  53.168  1.00  0.00    -0.014 C 
ENDBRANCH   2   3
ENDBRANCH   1   2
BRANCH   1  10
HETATM   10  C9  UNL     1      23.986   3.382  50.358  1.00  0.00    -0.023 C 
HETATM   11  C10 UNL     1      25.106   3.503  49.610  1.00  0.00    -0.023 C 
BRANCH  11  12
HETATM   12  C11 UNL     1      26.542   3.715  49.850  1.00  0.00     0.105 C 
BRANCH  12  13
HETATM   13  C12 UNL     1      27.076   4.746  48.932  1.00  0.00     0.132 C 
HETATM   14  O1  UNL     1      28.228   4.696  48.541  1.00  0.00    -0.298 OA
BRANCH  13  15
HETATM   15  C13 UNL     1      26.187   5.881  48.472  1.00  0.00     0.109 C 
BRANCH  15  16
HETATM   16  C14 UNL     1      26.000   6.880  49.587  1.00  0.00     0.282 C 
BRANCH  16  17
HETATM   17  N1  UNL     1      24.851   7.742  49.411  1.00  0.00     0.113 N 
HETATM   18  C15 UNL     1      23.786   6.920  48.810  1.00  0.00     0.301 C 
HETATM   19  C16 UNL     1      22.561   7.457  49.515  1.00  0.00     0.200 C 
HETATM   20  O2  UNL     1      23.039   7.592  50.813  1.00  0.00    -0.361 OA
HETATM   21  C17 UNL     1      24.292   8.159  50.686  1.00  0.00     0.440 C 
ENDBRANCH  16  17
ENDBRANCH  15  16
ENDBRANCH  13  15
ENDBRANCH  12  13
ENDBRANCH  11  12
ENDBRANCH   1  10
BRANCH   1  22
HETATM   22  C18 UNL     1      23.121   4.578  52.335  1.00  0.00     0.172 C 
BRANCH  22  23
HETATM   23  O3  UNL     1      23.866   5.572  52.989  1.00  0.00    -0.400 OA
HETATM   24  H26 UNL     1      23.230   6.113  53.520  1.00  0.00     0.209 HD
ENDBRANCH  22  23
ENDBRANCH   1  22
TORSDOF 10
ENDMDL
MODEL 9
REMARK VINA RESULT:      -6.1      3.274      5.145
REMARK  10 active torsions:
REMARK  status: ('A' for Active; 'I' for Inactive)
REMARK    1  A    between atoms: C6_7  and  C7_8 
REMARK    2  A    between atoms: C7_8  and  C8_9 
REMARK    3  A    between atoms: C8_9  and  C9_10 
REMARK    4  A    between atoms: C8_9  and  C18_22 
REMARK    5  A    between atoms: C10_11  and  C11_12 
REMARK    6  A    between atoms: C11_12  and  C12_13 
REMARK    7  A    between atoms: C12_13  and  C13_15 
REMARK    8  A    between atoms: C13_15  and  C14_16 
REMARK    9  A    between atoms: C14_16  and  N1_17 
REMARK   10  A    between atoms: C18_22  and  O3_23 
ROOT
HETATM    1  C8  UNL     1      20.244   0.254  51.573  1.00  0.00     0.036 C 
ENDROOT
BRANCH   1   2
HETATM    2  C7  UNL     1      21.116   0.776  50.473  1.00  0.00     0.049 C 
BRANCH   2   3
HETATM    3  C6  UNL     1      21.929   1.918  50.895  1.00  0.00    -0.054 C 
HETATM    4  C2  UNL     1      21.492   3.309  50.971  1.00  0.00    -0.044 C 
HETATM    5  C1  UNL     1      20.463   3.772  49.971  1.00  0.00     0.049 C 
HETATM    6  C3  UNL     1      21.855   4.268  51.763  1.00  0.00    -0.008 C 
HETATM    7  P1  UNL     1      23.474   4.291  52.035  1.00  0.00    -0.045 P 
HETATM    8  C4  UNL     1      24.322   2.692  51.588  1.00  0.00     0.072 C 
HETATM    9  C5  UNL     1      23.228   1.775  51.197  1.00  0.00    -0.014 C 
ENDBRANCH   2   3
ENDBRANCH   1   2
BRANCH   1  10
HETATM   10  C9  UNL     1      20.381   0.970  52.838  1.00  0.00    -0.023 C 
HETATM   11  C10 UNL     1      20.754   0.313  53.959  1.00  0.00    -0.023 C 
BRANCH  11  12
HETATM   12  C11 UNL     1      21.099  -1.068  54.332  1.00  0.00     0.105 C 
BRANCH  12  13
HETATM   13  C12 UNL     1      22.511  -1.154  54.763  1.00  0.00     0.132 C 
HETATM   14  O1  UNL     1      22.826  -1.807  55.742  1.00  0.00    -0.298 OA
BRANCH  13  15
HETATM   15  C13 UNL     1      23.583  -0.420  53.988  1.00  0.00     0.109 C 
BRANCH  15  16
HETATM   16  C14 UNL     1      24.951  -0.822  54.484  1.00  0.00     0.282 C 
BRANCH  16  17
HETATM   17  N1  UNL     1      26.038  -0.306  53.678  1.00  0.00     0.113 N 
HETATM   18  C15 UNL     1      27.066   0.186  54.611  1.00  0.00     0.301 C 
HETATM   19  C16 UNL     1      28.336  -0.218  53.897  1.00  0.00     0.200 C 
HETATM   20  O2  UNL     1      27.993  -1.486  53.444  1.00  0.00    -0.361 OA
HETATM   21  C17 UNL     1      26.711  -1.364  52.945  1.00  0.00     0.440 C 
ENDBRANCH  16  17
ENDBRANCH  15  16
ENDBRANCH  13  15
ENDBRANCH  12  13
ENDBRANCH  11  12
ENDBRANCH   1  10
BRANCH   1  22
HETATM   22  C18 UNL     1      18.772   0.310  51.089  1.00  0.00     0.172 C 
BRANCH  22  23
HETATM   23  O3  UNL     1      18.720   0.657  49.729  1.00  0.00    -0.400 OA
HETATM   24  H26 UNL     1      18.162  -0.022  49.275  1.00  0.00     0.209 HD
ENDBRANCH  22  23
ENDBRANCH   1  22
TORSDOF 10
ENDMDL
