MODEL 1
REMARK VINA RESULT:      -6.7      0.000      0.000
REMARK  8 active torsions:
REMARK  status: ('A' for Active; 'I' for Inactive)
REMARK    1  A    between atoms: O1_2  and  C2_3 
REMARK    2  A    between atoms: C2_3  and  C3_5 
REMARK    3  A    between atoms: C3_5  and  C4_6 
REMARK    4  A    between atoms: C4_6  and  C5_7 
REMARK    5  A    between atoms: C5_7  and  C6_8 
REMARK    6  A    between atoms: C6_8  and  C7_9 
REMARK    7  A    between atoms: C7_9  and  S1_10 
REMARK    8  A    between atoms: S1_10  and  O4_12 
ROOT
HETATM    1  C5  UNL     1      25.454   0.968  52.562  1.00  0.00     0.043 A 
HETATM    2  C9  UNL     1      25.432   2.214  53.407  1.00  0.00     0.091 A 
HETATM    3  S2  UNL     1      24.296   3.394  53.478  1.00  0.00    -0.064 SA
HETATM    4  N1  UNL     1      26.610   2.308  54.234  1.00  0.00    -0.349 N 
HETATM    5  C10 UNL     1      27.373   1.120  53.949  1.00  0.00     0.040 A 
HETATM    6  C11 UNL     1      28.577   0.772  54.527  1.00  0.00     0.030 A 
HETATM    7  C12 UNL     1      29.200  -0.408  54.180  1.00  0.00     0.002 A 
HETATM    8  C13 UNL     1      28.582  -1.216  53.249  1.00  0.00     0.001 A 
HETATM    9  C14 UNL     1      27.394  -0.824  52.710  1.00  0.00     0.011 A 
HETATM   10  C15 UNL     1      26.716   0.341  53.008  1.00  0.00    -0.016 A 
HETATM   11  H15 UNL     1      26.862   3.068  54.898  1.00  0.00     0.166 HD
ENDROOT
BRANCH   1  12
HETATM   12  C4  UNL     1      24.328   0.038  52.839  1.00  0.00     0.031 C 
BRANCH  12  13
HETATM   13  C3  UNL     1      24.215  -0.476  54.233  1.00  0.00     0.112 C 
BRANCH  13  14
HETATM   14  C2  UNL     1      22.766  -0.868  54.406  1.00  0.00     0.258 C 
HETATM   15  O2  UNL     1      22.582  -1.568  55.429  1.00  0.00    -0.265 OA
BRANCH  14  16
HETATM   16  O1  UNL     1      21.753  -0.495  53.531  1.00  0.00    -0.326 OA
HETATM   17  C1  UNL     1      20.410  -0.854  53.790  1.00  0.00     0.213 C 
ENDBRANCH  14  16
ENDBRANCH  13  14
ENDBRANCH  12  13
ENDBRANCH   1  12
BRANCH   1  18
HETATM   18  C6  UNL     1      25.482   1.466  51.138  1.00  0.00     0.036 C 
BRANCH  18  19
HETATM   19  C7  UNL     1      26.734   2.167  50.735  1.00  0.00     0.141 C 
BRANCH  19  20
HETATM   20  S1  UNL     1      26.222   3.711  49.907  1.00  0.00     0.152 S 
HETATM   21  O3  UNL     1      24.875   3.558  49.270  1.00  0.00    -0.229 OA
BRANCH  20  22
HETATM   22  O4  UNL     1      27.440   4.253  48.890  1.00  0.00    -0.301 OA
HETATM   23  C8  UNL     1      27.381   5.584  48.554  1.00  0.00     0.222 C 
ENDBRANCH  20  22
ENDBRANCH  19  20
ENDBRANCH  18  19
ENDBRANCH   1  18
TORSDOF 8
ENDMDL
MODEL 2
REMARK VINA RESULT:      -6.4      3.537      5.609
REMARK  8 active torsions:
REMARK  status: ('A' for Active; 'I' for Inactive)
REMARK    1  A    between atoms: O1_2  and  C2_3 
REMARK    2  A    between atoms: C2_3  and  C3_5 
REMARK    3  A    between atoms: C3_5  and  C4_6 
REMARK    4  A    between atoms: C4_6  and  C5_7 
REMARK    5  A    between atoms: C5_7  and  C6_8 
REMARK    6  A    between atoms: C6_8  and  C7_9 
REMARK    7  A    between atoms: C7_9  and  S1_10 
REMARK    8  A    between atoms: S1_10  and  O4_12 
ROOT
HETATM    1  C5  UNL     1      22.611   2.062  51.853  1.00  0.00     0.043 A 
HETATM    2  C9  UNL     1      21.384   2.914  52.043  1.00  0.00     0.091 A 
HETATM    3  S2  UNL     1      21.007   4.351  51.350  1.00  0.00    -0.064 SA
HETATM    4  N1  UNL     1      20.469   2.314  52.983  1.00  0.00    -0.349 N 
HETATM    5  C10 UNL     1      21.084   1.072  53.376  1.00  0.00     0.040 A 
HETATM    6  C11 UNL     1      20.555   0.149  54.255  1.00  0.00     0.030 A 
HETATM    7  C12 UNL     1      21.238  -1.016  54.533  1.00  0.00     0.002 A 
HETATM    8  C13 UNL     1      22.451  -1.220  53.908  1.00  0.00     0.001 A 
HETATM    9  C14 UNL     1      22.925  -0.276  53.050  1.00  0.00     0.011 A 
HETATM   10  C15 UNL     1      22.299   0.911  52.726  1.00  0.00    -0.016 A 
HETATM   11  H15 UNL     1      19.557   2.691  53.313  1.00  0.00     0.166 HD
ENDROOT
BRANCH   1  12
HETATM   12  C4  UNL     1      22.792   1.578  50.459  1.00  0.00     0.031 C 
BRANCH  12  13
HETATM   13  C3  UNL     1      21.618   0.911  49.827  1.00  0.00     0.112 C 
BRANCH  13  14
HETATM   14  C2  UNL     1      21.324   1.708  48.577  1.00  0.00     0.258 C 
HETATM   15  O2  UNL     1      22.277   1.681  47.763  1.00  0.00    -0.265 OA
BRANCH  14  16
HETATM   16  O1  UNL     1      20.135   2.391  48.354  1.00  0.00    -0.326 OA
HETATM   17  C1  UNL     1      19.942   3.131  47.165  1.00  0.00     0.213 C 
ENDBRANCH  14  16
ENDBRANCH  13  14
ENDBRANCH  12  13
ENDBRANCH   1  12
BRANCH   1  18
HETATM   18  C6  UNL     1      23.755   2.915  52.342  1.00  0.00     0.036 C 
BRANCH  18  19
HETATM   19  C7  UNL     1      24.926   2.994  51.424  1.00  0.00     0.141 C 
BRANCH  19  20
HETATM   20  S1  UNL     1      26.262   2.021  52.200  1.00  0.00     0.152 S 
HETATM   21  O3  UNL     1      27.605   2.608  51.888  1.00  0.00    -0.229 OA
BRANCH  20  22
HETATM   22  O4  UNL     1      26.086   0.397  51.828  1.00  0.00    -0.301 OA
HETATM   23  C8  UNL     1      26.828  -0.469  52.594  1.00  0.00     0.222 C 
ENDBRANCH  20  22
ENDBRANCH  19  20
ENDBRANCH  18  19
ENDBRANCH   1  18
TORSDOF 8
ENDMDL
MODEL 3
REMARK VINA RESULT:      -6.4      1.527      2.023
REMARK  8 active torsions:
REMARK  status: ('A' for Active; 'I' for Inactive)
REMARK    1  A    between atoms: O1_2  and  C2_3 
REMARK    2  A    between atoms: C2_3  and  C3_5 
REMARK    3  A    between atoms: C3_5  and  C4_6 
REMARK    4  A    between atoms: C4_6  and  C5_7 
REMARK    5  A    between atoms: C5_7  and  C6_8 
REMARK    6  A    between atoms: C6_8  and  C7_9 
REMARK    7  A    between atoms: C7_9  and  S1_10 
REMARK    8  A    between atoms: S1_10  and  O4_12 
ROOT
HETATM    1  C5  UNL     1      24.628   1.981  51.716  1.00  0.00     0.043 A 
HETATM    2  C9  UNL     1      24.536   3.113  52.704  1.00  0.00     0.091 A 
HETATM    3  S2  UNL     1      23.550   4.423  52.685  1.00  0.00    -0.064 SA
HETATM    4  N1  UNL     1      25.480   2.947  53.782  1.00  0.00    -0.349 N 
HETATM    5  C10 UNL     1      26.157   1.706  53.509  1.00  0.00     0.040 A 
HETATM    6  C11 UNL     1      27.140   1.131  54.289  1.00  0.00     0.030 A 
HETATM    7  C12 UNL     1      27.698  -0.076  53.926  1.00  0.00     0.002 A 
HETATM    8  C13 UNL     1      27.242  -0.679  52.772  1.00  0.00     0.001 A 
HETATM    9  C14 UNL     1      26.271  -0.067  52.040  1.00  0.00     0.011 A 
HETATM   10  C15 UNL     1      25.669   1.139  52.341  1.00  0.00    -0.016 A 
HETATM   11  H15 UNL     1      25.643   3.584  54.588  1.00  0.00     0.166 HD
ENDROOT
BRANCH   1  12
HETATM   12  C4  UNL     1      23.376   1.191  51.592  1.00  0.00     0.031 C 
BRANCH  12  13
HETATM   13  C3  UNL     1      22.736   0.752  52.865  1.00  0.00     0.112 C 
BRANCH  13  14
HETATM   14  C2  UNL     1      21.460   0.053  52.457  1.00  0.00     0.258 C 
HETATM   15  O2  UNL     1      21.165   0.265  51.257  1.00  0.00    -0.265 OA
BRANCH  14  16
HETATM   16  O1  UNL     1      20.700  -0.735  53.313  1.00  0.00    -0.326 OA
HETATM   17  C1  UNL     1      21.292  -1.348  54.442  1.00  0.00     0.213 C 
ENDBRANCH  14  16
ENDBRANCH  13  14
ENDBRANCH  12  13
ENDBRANCH   1  12
BRANCH   1  18
HETATM   18  C6  UNL     1      25.055   2.631  50.422  1.00  0.00     0.036 C 
BRANCH  18  19
HETATM   19  C7  UNL     1      26.487   3.041  50.360  1.00  0.00     0.141 C 
BRANCH  19  20
HETATM   20  S1  UNL     1      26.572   4.468  49.225  1.00  0.00     0.152 S 
HETATM   21  O3  UNL     1      27.974   4.691  48.745  1.00  0.00    -0.229 OA
BRANCH  20  22
HETATM   22  O4  UNL     1      25.830   5.802  49.917  1.00  0.00    -0.301 OA
HETATM   23  C8  UNL     1      25.451   6.789  49.040  1.00  0.00     0.222 C 
ENDBRANCH  20  22
ENDBRANCH  19  20
ENDBRANCH  18  19
ENDBRANCH   1  18
TORSDOF 8
ENDMDL
MODEL 4
REMARK VINA RESULT:      -6.1      2.054      2.403
REMARK  8 active torsions:
REMARK  status: ('A' for Active; 'I' for Inactive)
REMARK    1  A    between atoms: O1_2  and  C2_3 
REMARK    2  A    between atoms: C2_3  and  C3_5 
REMARK    3  A    between atoms: C3_5  and  C4_6 
REMARK    4  A    between atoms: C4_6  and  C5_7 
REMARK    5  A    between atoms: C5_7  and  C6_8 
REMARK    6  A    between atoms: C6_8  and  C7_9 
REMARK    7  A    between atoms: C7_9  and  S1_10 
REMARK    8  A    between atoms: S1_10  and  O4_12 
ROOT
HETATM    1  C5  UNL     1      24.134   1.406  52.586  1.00  0.00     0.043 A 
HETATM    2  C9  UNL     1      24.536   2.803  52.978  1.00  0.00     0.091 A 
HETATM    3  S2  UNL     1      23.632   4.170  52.997  1.00  0.00    -0.064 SA
HETATM    4  N1  UNL     1      25.922   2.859  53.372  1.00  0.00    -0.349 N 
HETATM    5  C10 UNL     1      26.406   1.506  53.265  1.00  0.00     0.040 A 
HETATM    6  C11 UNL     1      27.683   1.076  53.561  1.00  0.00     0.030 A 
HETATM    7  C12 UNL     1      28.015  -0.256  53.434  1.00  0.00     0.002 A 
HETATM    8  C13 UNL     1      27.036  -1.129  53.007  1.00  0.00     0.001 A 
HETATM    9  C14 UNL     1      25.792  -0.650  52.729  1.00  0.00     0.011 A 
HETATM   10  C15 UNL     1      25.390   0.666  52.831  1.00  0.00    -0.016 A 
HETATM   11  H15 UNL     1      26.465   3.694  53.673  1.00  0.00     0.166 HD
ENDROOT
BRANCH   1  12
HETATM   12  C4  UNL     1      23.060   0.831  53.438  1.00  0.00     0.031 C 
BRANCH  12  13
HETATM   13  C3  UNL     1      23.065  -0.650  53.607  1.00  0.00     0.112 C 
BRANCH  13  14
HETATM   14  C2  UNL     1      21.908  -0.956  54.531  1.00  0.00     0.258 C 
HETATM   15  O2  UNL     1      22.180  -1.870  55.345  1.00  0.00    -0.265 OA
BRANCH  14  16
HETATM   16  O1  UNL     1      20.684  -0.300  54.484  1.00  0.00    -0.326 OA
HETATM   17  C1  UNL     1      19.743  -0.605  53.474  1.00  0.00     0.213 C 
ENDBRANCH  14  16
ENDBRANCH  13  14
ENDBRANCH  12  13
ENDBRANCH   1  12
BRANCH   1  18
HETATM   18  C6  UNL     1      23.752   1.507  51.130  1.00  0.00     0.036 C 
BRANCH  18  19
HETATM   19  C7  UNL     1      22.294   1.380  50.846  1.00  0.00     0.141 C 
BRANCH  19  20
HETATM   20  S1  UNL     1      22.037   2.011  49.153  1.00  0.00     0.152 S 
HETATM   21  O3  UNL     1      21.649   0.905  48.219  1.00  0.00    -0.229 OA
BRANCH  20  22
HETATM   22  O4  UNL     1      23.355   2.927  48.671  1.00  0.00    -0.301 OA
HETATM   23  C8  UNL     1      23.196   4.289  48.767  1.00  0.00     0.222 C 
ENDBRANCH  20  22
ENDBRANCH  19  20
ENDBRANCH  18  19
ENDBRANCH   1  18
TORSDOF 8
ENDMDL
MODEL 5
REMARK VINA RESULT:      -6.1      2.910      5.117
REMARK  8 active torsions:
REMARK  status: ('A' for Active; 'I' for Inactive)
REMARK    1  A    between atoms: O1_2  and  C2_3 
REMARK    2  A    between atoms: C2_3  and  C3_5 
REMARK    3  A    between atoms: C3_5  and  C4_6 
REMARK    4  A    between atoms: C4_6  and  C5_7 
REMARK    5  A    between atoms: C5_7  and  C6_8 
REMARK    6  A    between atoms: C6_8  and  C7_9 
REMARK    7  A    between atoms: C7_9  and  S1_10 
REMARK    8  A    between atoms: S1_10  and  O4_12 
ROOT
HETATM    1  C5  UNL     1      23.923   2.541  52.264  1.00  0.00     0.043 A 
HETATM    2  C9  UNL     1      24.279   2.653  50.805  1.00  0.00     0.091 A 
HETATM    3  S2  UNL     1      25.555   3.410  50.109  1.00  0.00    -0.064 SA
HETATM    4  N1  UNL     1      23.310   1.979  49.975  1.00  0.00    -0.349 N 
HETATM    5  C10 UNL     1      22.353   1.411  50.889  1.00  0.00     0.040 A 
HETATM    6  C11 UNL     1      21.250   0.657  50.542  1.00  0.00     0.030 A 
HETATM    7  C12 UNL     1      20.418   0.153  51.518  1.00  0.00     0.002 A 
HETATM    8  C13 UNL     1      20.725   0.426  52.835  1.00  0.00     0.001 A 
HETATM    9  C14 UNL     1      21.825   1.176  53.120  1.00  0.00     0.011 A 
HETATM   10  C15 UNL     1      22.700   1.713  52.198  1.00  0.00    -0.016 A 
HETATM   11  H15 UNL     1      23.299   1.912  48.937  1.00  0.00     0.166 HD
ENDROOT
BRANCH   1  12
HETATM   12  C4  UNL     1      24.945   1.831  53.076  1.00  0.00     0.031 C 
BRANCH  12  13
HETATM   13  C3  UNL     1      25.435   0.529  52.540  1.00  0.00     0.112 C 
BRANCH  13  14
HETATM   14  C2  UNL     1      25.729  -0.324  53.753  1.00  0.00     0.258 C 
HETATM   15  O2  UNL     1      24.690  -0.613  54.393  1.00  0.00    -0.265 OA
BRANCH  14  16
HETATM   16  O1  UNL     1      27.003  -0.740  54.118  1.00  0.00    -0.326 OA
HETATM   17  C1  UNL     1      27.894   0.150  54.762  1.00  0.00     0.213 C 
ENDBRANCH  14  16
ENDBRANCH  13  14
ENDBRANCH  12  13
ENDBRANCH   1  12
BRANCH   1  18
HETATM   18  C6  UNL     1      23.682   3.961  52.714  1.00  0.00     0.036 C 
BRANCH  18  19
HETATM   19  C7  UNL     1      22.372   4.543  52.306  1.00  0.00     0.141 C 
BRANCH  19  20
HETATM   20  S1  UNL     1      22.748   5.944  51.199  1.00  0.00     0.152 S 
HETATM   21  O3  UNL     1      22.559   5.560  49.762  1.00  0.00    -0.229 OA
BRANCH  20  22
HETATM   22  O4  UNL     1      24.246   6.594  51.576  1.00  0.00    -0.301 OA
HETATM   23  C8  UNL     1      24.926   7.162  50.526  1.00  0.00     0.222 C 
ENDBRANCH  20  22
ENDBRANCH  19  20
ENDBRANCH  18  19
ENDBRANCH   1  18
TORSDOF 8
ENDMDL
MODEL 6
REMARK VINA RESULT:      -6.0      3.493      5.731
REMARK  8 active torsions:
REMARK  status: ('A' for Active; 'I' for Inactive)
REMARK    1  A    between atoms: O1_2  and  C2_3 
REMARK    2  A    between atoms: C2_3  and  C3_5 
REMARK    3  A    between atoms: C3_5  and  C4_6 
REMARK    4  A    between atoms: C4_6  and  C5_7 
REMARK    5  A    between atoms: C5_7  and  C6_8 
REMARK    6  A    between atoms: C6_8  and  C7_9 
REMARK    7  A    between atoms: C7_9  and  S1_10 
REMARK    8  A    between atoms: S1_10  and  O4_12 
ROOT
HETATM    1  C5  UNL     1      24.583   3.516  50.853  1.00  0.00     0.043 A 
HETATM    2  C9  UNL     1      23.678   4.645  51.270  1.00  0.00     0.091 A 
HETATM    3  S2  UNL     1      22.343   4.602  52.220  1.00  0.00    -0.064 SA
HETATM    4  N1  UNL     1      24.115   5.901  50.710  1.00  0.00    -0.349 N 
HETATM    5  C10 UNL     1      25.306   5.593  49.961  1.00  0.00     0.040 A 
HETATM    6  C11 UNL     1      26.082   6.497  49.265  1.00  0.00     0.030 A 
HETATM    7  C12 UNL     1      27.215   6.075  48.602  1.00  0.00     0.002 A 
HETATM    8  C13 UNL     1      27.538   4.736  48.662  1.00  0.00     0.001 A 
HETATM    9  C14 UNL     1      26.737   3.888  49.364  1.00  0.00     0.011 A 
HETATM   10  C15 UNL     1      25.590   4.238  50.048  1.00  0.00    -0.016 A 
HETATM   11  H15 UNL     1      23.670   6.835  50.819  1.00  0.00     0.166 HD
ENDROOT
BRANCH   1  12
HETATM   12  C4  UNL     1      25.262   2.843  51.990  1.00  0.00     0.031 C 
BRANCH  12  13
HETATM   13  C3  UNL     1      25.769   1.463  51.740  1.00  0.00     0.112 C 
BRANCH  13  14
HETATM   14  C2  UNL     1      27.036   1.342  52.556  1.00  0.00     0.258 C 
HETATM   15  O2  UNL     1      27.839   2.277  52.326  1.00  0.00    -0.265 OA
BRANCH  14  16
HETATM   16  O1  UNL     1      27.282   0.315  53.457  1.00  0.00    -0.326 OA
HETATM   17  C1  UNL     1      26.669   0.312  54.731  1.00  0.00     0.213 C 
ENDBRANCH  14  16
ENDBRANCH  13  14
ENDBRANCH  12  13
ENDBRANCH   1  12
BRANCH   1  18
HETATM   18  C6  UNL     1      23.701   2.590  50.051  1.00  0.00     0.036 C 
BRANCH  18  19
HETATM   19  C7  UNL     1      23.102   3.189  48.824  1.00  0.00     0.141 C 
BRANCH  19  20
HETATM   20  S1  UNL     1      21.485   2.375  48.585  1.00  0.00     0.152 S 
HETATM   21  O3  UNL     1      21.622   0.884  48.630  1.00  0.00    -0.229 OA
BRANCH  20  22
HETATM   22  O4  UNL     1      20.728   2.985  47.219  1.00  0.00    -0.301 OA
HETATM   23  C8  UNL     1      19.416   3.360  47.388  1.00  0.00     0.222 C 
ENDBRANCH  20  22
ENDBRANCH  19  20
ENDBRANCH  18  19
ENDBRANCH   1  18
TORSDOF 8
ENDMDL
MODEL 7
REMARK VINA RESULT:      -5.7      3.514      4.748
REMARK  8 active torsions:
REMARK  status: ('A' for Active; 'I' for Inactive)
REMARK    1  A    between atoms: O1_2  and  C2_3 
REMARK    2  A    between atoms: C2_3  and  C3_5 
REMARK    3  A    between atoms: C3_5  and  C4_6 
REMARK    4  A    between atoms: C4_6  and  C5_7 
REMARK    5  A    between atoms: C5_7  and  C6_8 
REMARK    6  A    between atoms: C6_8  and  C7_9 
REMARK    7  A    between atoms: C7_9  and  S1_10 
REMARK    8  A    between atoms: S1_10  and  O4_12 
ROOT
HETATM    1  C5  UNL     1      23.039   2.594  51.679  1.00  0.00     0.043 A 
HETATM    2  C9  UNL     1      21.899   1.961  52.432  1.00  0.00     0.091 A 
HETATM    3  S2  UNL     1      20.328   2.424  52.507  1.00  0.00    -0.064 SA
HETATM    4  N1  UNL     1      22.335   0.798  53.164  1.00  0.00    -0.349 N 
HETATM    5  C10 UNL     1      23.738   0.661  52.866  1.00  0.00     0.040 A 
HETATM    6  C11 UNL     1      24.574  -0.331  53.336  1.00  0.00     0.030 A 
HETATM    7  C12 UNL     1      25.899  -0.360  52.957  1.00  0.00     0.002 A 
HETATM    8  C13 UNL     1      26.350   0.624  52.103  1.00  0.00     0.001 A 
HETATM    9  C14 UNL     1      25.482   1.579  51.670  1.00  0.00     0.011 A 
HETATM   10  C15 UNL     1      24.146   1.672  52.007  1.00  0.00    -0.016 A 
HETATM   11  H15 UNL     1      21.765   0.183  53.779  1.00  0.00     0.166 HD
ENDROOT
BRANCH   1  12
HETATM   12  C4  UNL     1      22.845   2.613  50.205  1.00  0.00     0.031 C 
BRANCH  12  13
HETATM   13  C3  UNL     1      22.127   1.448  49.613  1.00  0.00     0.112 C 
BRANCH  13  14
HETATM   14  C2  UNL     1      21.579   1.939  48.293  1.00  0.00     0.258 C 
HETATM   15  O2  UNL     1      22.456   1.969  47.397  1.00  0.00    -0.265 OA
BRANCH  14  16
HETATM   16  O1  UNL     1      20.256   2.313  48.094  1.00  0.00    -0.326 OA
HETATM   17  C1  UNL     1      19.910   3.209  47.055  1.00  0.00     0.213 C 
ENDBRANCH  14  16
ENDBRANCH  13  14
ENDBRANCH  12  13
ENDBRANCH   1  12
BRANCH   1  18
HETATM   18  C6  UNL     1      23.184   3.971  52.280  1.00  0.00     0.036 C 
BRANCH  18  19
HETATM   19  C7  UNL     1      22.681   5.089  51.432  1.00  0.00     0.141 C 
BRANCH  19  20
HETATM   20  S1  UNL     1      24.047   6.291  51.294  1.00  0.00     0.152 S 
HETATM   21  O3  UNL     1      23.535   7.646  50.910  1.00  0.00    -0.229 OA
BRANCH  20  22
HETATM   22  O4  UNL     1      25.260   5.679  50.311  1.00  0.00    -0.301 OA
HETATM   23  C8  UNL     1      24.899   5.438  49.007  1.00  0.00     0.222 C 
ENDBRANCH  20  22
ENDBRANCH  19  20
ENDBRANCH  18  19
ENDBRANCH   1  18
TORSDOF 8
ENDMDL
MODEL 8
REMARK VINA RESULT:      -5.6      8.788     10.372
REMARK  8 active torsions:
REMARK  status: ('A' for Active; 'I' for Inactive)
REMARK    1  A    between atoms: O1_2  and  C2_3 
REMARK    2  A    between atoms: C2_3  and  C3_5 
REMARK    3  A    between atoms: C3_5  and  C4_6 
REMARK    4  A    between atoms: C4_6  and  C5_7 
REMARK    5  A    between atoms: C5_7  and  C6_8 
REMARK    6  A    between atoms: C6_8  and  C7_9 
REMARK    7  A    between atoms: C7_9  and  S1_10 
REMARK    8  A    between atoms: S1_10  and  O4_12 
ROOT
HETATM    1  C5  UNL     1      33.320   5.139  46.980  1.00  0.00     0.043 A 
HETATM    2  C9  UNL     1      34.382   5.134  48.046  1.00  0.00     0.091 A 
HETATM    3  S2  UNL     1      35.294   6.378  48.602  1.00  0.00    -0.064 SA
HETATM    4  N1  UNL     1      34.563   3.814  48.601  1.00  0.00    -0.349 N 
HETATM    5  C10 UNL     1      33.607   2.980  47.920  1.00  0.00     0.040 A 
HETATM    6  C11 UNL     1      33.406   1.632  48.140  1.00  0.00     0.030 A 
HETATM    7  C12 UNL     1      32.440   0.949  47.432  1.00  0.00     0.002 A 
HETATM    8  C13 UNL     1      31.694   1.652  46.510  1.00  0.00     0.001 A 
HETATM    9  C14 UNL     1      31.934   2.981  46.334  1.00  0.00     0.011 A 
HETATM   10  C15 UNL     1      32.882   3.728  47.003  1.00  0.00    -0.016 A 
HETATM   11  H15 UNL     1      35.237   3.520  49.336  1.00  0.00     0.166 HD
ENDROOT
BRANCH   1  12
HETATM   12  C4  UNL     1      32.159   6.012  47.296  1.00  0.00     0.031 C 
BRANCH  12  13
HETATM   13  C3  UNL     1      31.497   5.789  48.613  1.00  0.00     0.112 C 
BRANCH  13  14
HETATM   14  C2  UNL     1      30.017   5.952  48.355  1.00  0.00     0.258 C 
HETATM   15  O2  UNL     1      29.451   4.857  48.126  1.00  0.00    -0.265 OA
BRANCH  14  16
HETATM   16  O1  UNL     1      29.358   7.175  48.369  1.00  0.00    -0.326 OA
HETATM   17  C1  UNL     1      28.545   7.568  47.281  1.00  0.00     0.213 C 
ENDBRANCH  14  16
ENDBRANCH  13  14
ENDBRANCH  12  13
ENDBRANCH   1  12
BRANCH   1  18
HETATM   18  C6  UNL     1      34.042   5.540  45.716  1.00  0.00     0.036 C 
BRANCH  18  19
HETATM   19  C7  UNL     1      33.493   6.742  45.026  1.00  0.00     0.141 C 
BRANCH  19  20
HETATM   20  S1  UNL     1      32.889   6.177  43.399  1.00  0.00     0.152 S 
HETATM   21  O3  UNL     1      33.128   4.709  43.217  1.00  0.00    -0.229 OA
BRANCH  20  22
HETATM   22  O4  UNL     1      33.496   7.159  42.184  1.00  0.00    -0.301 OA
HETATM   23  C8  UNL     1      34.647   6.710  41.581  1.00  0.00     0.222 C 
ENDBRANCH  20  22
ENDBRANCH  19  20
ENDBRANCH  18  19
ENDBRANCH   1  18
TORSDOF 8
ENDMDL
MODEL 9
REMARK VINA RESULT:      -5.6      3.664      6.032
REMARK  8 active torsions:
REMARK  status: ('A' for Active; 'I' for Inactive)
REMARK    1  A    between atoms: O1_2  and  C2_3 
REMARK    2  A    between atoms: C2_3  and  C3_5 
REMARK    3  A    between atoms: C3_5  and  C4_6 
REMARK    4  A    between atoms: C4_6  and  C5_7 
REMARK    5  A    between atoms: C5_7  and  C6_8 
REMARK    6  A    between atoms: C6_8  and  C7_9 
REMARK    7  A    between atoms: C7_9  and  S1_10 
REMARK    8  A    between atoms: S1_10  and  O4_12 
ROOT
HETATM    1  C5  UNL     1      23.592   3.108  50.774  1.00  0.00     0.043 A 
HETATM    2  C9  UNL     1      23.190   4.416  51.402  1.00  0.00     0.091 A 
HETATM    3  S2  UNL     1      23.908   5.885  51.280  1.00  0.00    -0.064 SA
HETATM    4  N1  UNL     1      22.003   4.268  52.208  1.00  0.00    -0.349 N 
HETATM    5  C10 UNL     1      21.624   2.884  52.081  1.00  0.00     0.040 A 
HETATM    6  C11 UNL     1      20.528   2.286  52.670  1.00  0.00     0.030 A 
HETATM    7  C12 UNL     1      20.264   0.951  52.451  1.00  0.00     0.002 A 
HETATM    8  C13 UNL     1      21.123   0.247  51.634  1.00  0.00     0.001 A 
HETATM    9  C14 UNL     1      22.189   0.887  51.079  1.00  0.00     0.011 A 
HETATM   10  C15 UNL     1      22.515   2.217  51.253  1.00  0.00    -0.016 A 
HETATM   11  H15 UNL     1      21.517   5.000  52.765  1.00  0.00     0.166 HD
ENDROOT
BRANCH   1  12
HETATM   12  C4  UNL     1      23.579   3.128  49.288  1.00  0.00     0.031 C 
BRANCH  12  13
HETATM   13  C3  UNL     1      22.395   3.762  48.641  1.00  0.00     0.112 C 
BRANCH  13  14
HETATM   14  C2  UNL     1      21.738   2.665  47.836  1.00  0.00     0.258 C 
HETATM   15  O2  UNL     1      22.576   1.928  47.266  1.00  0.00    -0.265 OA
BRANCH  14  16
HETATM   16  O1  UNL     1      20.363   2.493  47.738  1.00  0.00    -0.326 OA
HETATM   17  C1  UNL     1      19.557   2.458  48.900  1.00  0.00     0.213 C 
ENDBRANCH  14  16
ENDBRANCH  13  14
ENDBRANCH  12  13
ENDBRANCH   1  12
BRANCH   1  18
HETATM   18  C6  UNL     1      24.951   2.802  51.356  1.00  0.00     0.036 C 
BRANCH  18  19
HETATM   19  C7  UNL     1      24.951   2.408  52.794  1.00  0.00     0.141 C 
BRANCH  19  20
HETATM   20  S1  UNL     1      26.662   1.916  53.198  1.00  0.00     0.152 S 
HETATM   21  O3  UNL     1      27.623   2.409  52.158  1.00  0.00    -0.229 OA
BRANCH  20  22
HETATM   22  O4  UNL     1      26.732   0.272  53.517  1.00  0.00    -0.301 OA
HETATM   23  C8  UNL     1      26.636  -0.548  52.418  1.00  0.00     0.222 C 
ENDBRANCH  20  22
ENDBRANCH  19  20
ENDBRANCH  18  19
ENDBRANCH   1  18
TORSDOF 8
ENDMDL
