MODEL 1
REMARK VINA RESULT:      -7.5      0.000      0.000
REMARK  3 active torsions:
REMARK  status: ('A' for Active; 'I' for Inactive)
REMARK    1  A    between atoms: O1_2  and  C2_3 
REMARK    2  A    between atoms: C6_7  and  N1_8 
REMARK    3  A    between atoms: C13_16  and  C14_17 
ROOT
HETATM    1  N1  UNL     1      25.595   4.205  49.775  1.00  0.00    -0.345 N 
HETATM    2  C7  UNL     1      26.106   2.909  50.175  1.00  0.00     0.095 C 
HETATM    3  C8  UNL     1      26.492   1.934  50.965  1.00  0.00     0.056 C 
HETATM    4  C9  UNL     1      26.659   1.526  52.353  1.00  0.00     0.101 C 
HETATM    5  C10 UNL     1      26.061   1.876  53.513  1.00  0.00     0.103 C 
HETATM    6  C11 UNL     1      24.981   2.927  53.312  1.00  0.00     0.235 C 
HETATM    7  O2  UNL     1      24.838   3.107  51.976  1.00  0.00    -0.382 OA
HETATM    8  C12 UNL     1      24.043   4.141  51.576  1.00  0.00     0.199 C 
HETATM    9  C13 UNL     1      24.144   4.164  50.017  1.00  0.00     0.153 C 
HETATM   10  O3  UNL     1      26.388   1.347  54.725  1.00  0.00    -0.348 OA
HETATM   11  C15 UNL     1      27.155   0.200  54.957  1.00  0.00     0.202 C 
HETATM   12  C16 UNL     1      27.422  -0.442  53.619  1.00  0.00     0.202 C 
HETATM   13  O4  UNL     1      27.606   0.586  52.666  1.00  0.00    -0.346 OA
ENDROOT
BRANCH   1  14
HETATM   14  C6  UNL     1      26.478   5.219  49.278  1.00  0.00     0.037 A 
HETATM   15  C5  UNL     1      27.611   4.725  48.675  1.00  0.00     0.030 A 
HETATM   16  C4  UNL     1      28.470   5.723  48.198  1.00  0.00     0.005 A 
HETATM   17  C3  UNL     1      28.190   7.070  48.329  1.00  0.00     0.037 A 
HETATM   18  C2  UNL     1      27.023   7.481  48.952  1.00  0.00     0.070 A 
HETATM   19  C17 UNL     1      26.125   6.532  49.451  1.00  0.00     0.066 A 
BRANCH  18  20
HETATM   20  O1  UNL     1      26.643   8.805  49.138  1.00  0.00    -0.356 OA
HETATM   21  C1  UNL     1      27.285   9.564  50.143  1.00  0.00     0.210 C 
ENDBRANCH  18  20
ENDBRANCH   1  14
BRANCH   9  22
HETATM   22  C14 UNL     1      23.584   2.959  49.412  1.00  0.00     0.107 C 
HETATM   23  N2  UNL     1      22.572   2.489  50.059  1.00  0.00    -0.314 NA
HETATM   24  H15 UNL     1      22.039   1.665  49.812  1.00  0.00     0.185 HD
ENDBRANCH   9  22
TORSDOF 3
ENDMDL
MODEL 2
REMARK VINA RESULT:      -7.4      1.187      1.779
REMARK  3 active torsions:
REMARK  status: ('A' for Active; 'I' for Inactive)
REMARK    1  A    between atoms: O1_2  and  C2_3 
REMARK    2  A    between atoms: C6_7  and  N1_8 
REMARK    3  A    between atoms: C13_16  and  C14_17 
ROOT
HETATM    1  N1  UNL     1      25.468   4.100  49.663  1.00  0.00    -0.345 N 
HETATM    2  C7  UNL     1      26.011   2.826  50.090  1.00  0.00     0.095 C 
HETATM    3  C8  UNL     1      26.437   1.884  50.900  1.00  0.00     0.056 C 
HETATM    4  C9  UNL     1      26.652   1.525  52.295  1.00  0.00     0.101 C 
HETATM    5  C10 UNL     1      26.083   1.905  53.460  1.00  0.00     0.103 C 
HETATM    6  C11 UNL     1      24.982   2.932  53.258  1.00  0.00     0.235 C 
HETATM    7  O2  UNL     1      24.795   3.065  51.922  1.00  0.00    -0.382 OA
HETATM    8  C12 UNL     1      23.972   4.073  51.512  1.00  0.00     0.199 C 
HETATM    9  C13 UNL     1      24.026   4.045  49.950  1.00  0.00     0.153 C 
HETATM   10  O3  UNL     1      26.455   1.422  54.678  1.00  0.00    -0.348 OA
HETATM   11  C15 UNL     1      27.247   0.294  54.925  1.00  0.00     0.202 C 
HETATM   12  C16 UNL     1      27.485  -0.388  53.601  1.00  0.00     0.202 C 
HETATM   13  O4  UNL     1      27.623   0.610  52.610  1.00  0.00    -0.346 OA
ENDROOT
BRANCH   1  14
HETATM   14  C6  UNL     1      26.320   5.110  49.107  1.00  0.00     0.037 A 
HETATM   15  C5  UNL     1      25.705   6.331  48.949  1.00  0.00     0.030 A 
HETATM   16  C4  UNL     1      26.544   7.310  48.400  1.00  0.00     0.005 A 
HETATM   17  C3  UNL     1      27.859   7.057  48.058  1.00  0.00     0.037 A 
HETATM   18  C2  UNL     1      28.398   5.796  48.253  1.00  0.00     0.070 A 
HETATM   19  C17 UNL     1      27.611   4.775  48.795  1.00  0.00     0.066 A 
BRANCH  18  20
HETATM   20  O1  UNL     1      29.703   5.432  47.945  1.00  0.00    -0.356 OA
HETATM   21  C1  UNL     1      30.768   6.085  48.607  1.00  0.00     0.210 C 
ENDBRANCH  18  20
ENDBRANCH   1  14
BRANCH   9  22
HETATM   22  C14 UNL     1      23.468   2.812  49.403  1.00  0.00     0.107 C 
HETATM   23  N2  UNL     1      22.507   2.329  50.115  1.00  0.00    -0.314 NA
HETATM   24  H15 UNL     1      21.985   1.486  49.915  1.00  0.00     0.185 HD
ENDBRANCH   9  22
TORSDOF 3
ENDMDL
MODEL 3
REMARK VINA RESULT:      -7.2      3.321      7.075
REMARK  3 active torsions:
REMARK  status: ('A' for Active; 'I' for Inactive)
REMARK    1  A    between atoms: O1_2  and  C2_3 
REMARK    2  A    between atoms: C6_7  and  N1_8 
REMARK    3  A    between atoms: C13_16  and  C14_17 
ROOT
HETATM    1  N1  UNL     1      24.413   2.005  51.337  1.00  0.00    -0.345 N 
HETATM    2  C7  UNL     1      23.136   1.738  50.707  1.00  0.00     0.095 C 
HETATM    3  C8  UNL     1      21.839   1.774  50.501  1.00  0.00     0.056 C 
HETATM    4  C9  UNL     1      20.573   2.300  50.991  1.00  0.00     0.101 C 
HETATM    5  C10 UNL     1      20.224   3.392  51.705  1.00  0.00     0.103 C 
HETATM    6  C11 UNL     1      21.423   4.250  52.073  1.00  0.00     0.235 C 
HETATM    7  O2  UNL     1      22.502   3.726  51.442  1.00  0.00    -0.382 OA
HETATM    8  C12 UNL     1      23.721   4.237  51.777  1.00  0.00     0.199 C 
HETATM    9  C13 UNL     1      24.763   3.389  50.979  1.00  0.00     0.153 C 
HETATM   10  O3  UNL     1      18.942   3.691  52.057  1.00  0.00    -0.348 OA
HETATM   11  C15 UNL     1      17.776   3.120  51.532  1.00  0.00     0.202 C 
HETATM   12  C16 UNL     1      18.187   2.226  50.390  1.00  0.00     0.202 C 
HETATM   13  O4  UNL     1      19.415   1.614  50.729  1.00  0.00    -0.346 OA
ENDROOT
BRANCH   1  14
HETATM   14  C6  UNL     1      25.061   1.004  52.134  1.00  0.00     0.037 A 
HETATM   15  C5  UNL     1      26.337   0.702  51.720  1.00  0.00     0.030 A 
HETATM   16  C4  UNL     1      26.959  -0.279  52.502  1.00  0.00     0.005 A 
HETATM   17  C3  UNL     1      26.336  -0.875  53.583  1.00  0.00     0.037 A 
HETATM   18  C2  UNL     1      25.046  -0.509  53.931  1.00  0.00     0.070 A 
HETATM   19  C17 UNL     1      24.371   0.465  53.188  1.00  0.00     0.066 A 
BRANCH  18  20
HETATM   20  O1  UNL     1      24.327  -1.042  54.994  1.00  0.00    -0.356 OA
HETATM   21  C1  UNL     1      22.923  -1.158  54.877  1.00  0.00     0.210 C 
ENDBRANCH  18  20
ENDBRANCH   1  14
BRANCH   9  22
HETATM   22  C14 UNL     1      24.627   3.568  49.537  1.00  0.00     0.107 C 
HETATM   23  N2  UNL     1      24.323   4.775  49.200  1.00  0.00    -0.314 NA
HETATM   24  H15 UNL     1      24.183   5.111  48.257  1.00  0.00     0.185 HD
ENDBRANCH   9  22
TORSDOF 3
ENDMDL
MODEL 4
REMARK VINA RESULT:      -7.1      3.891      8.004
REMARK  3 active torsions:
REMARK  status: ('A' for Active; 'I' for Inactive)
REMARK    1  A    between atoms: O1_2  and  C2_3 
REMARK    2  A    between atoms: C6_7  and  N1_8 
REMARK    3  A    between atoms: C13_16  and  C14_17 
ROOT
HETATM    1  N1  UNL     1      23.567   1.160  52.595  1.00  0.00    -0.345 N 
HETATM    2  C7  UNL     1      23.454   1.604  51.220  1.00  0.00     0.095 C 
HETATM    3  C8  UNL     1      23.210   2.400  50.204  1.00  0.00     0.056 C 
HETATM    4  C9  UNL     1      22.761   3.731  49.820  1.00  0.00     0.101 C 
HETATM    5  C10 UNL     1      22.785   4.940  50.423  1.00  0.00     0.103 C 
HETATM    6  C11 UNL     1      23.420   4.885  51.803  1.00  0.00     0.235 C 
HETATM    7  O2  UNL     1      23.913   3.633  51.971  1.00  0.00    -0.382 OA
HETATM    8  C12 UNL     1      24.368   3.312  53.215  1.00  0.00     0.199 C 
HETATM    9  C13 UNL     1      24.775   1.805  53.134  1.00  0.00     0.153 C 
HETATM   10  O3  UNL     1      22.296   6.079  49.859  1.00  0.00    -0.348 OA
HETATM   11  C15 UNL     1      21.960   6.268  48.513  1.00  0.00     0.202 C 
HETATM   12  C16 UNL     1      22.388   5.031  47.764  1.00  0.00     0.202 C 
HETATM   13  O4  UNL     1      22.166   3.912  48.599  1.00  0.00    -0.346 OA
ENDROOT
BRANCH   1  14
HETATM   14  C6  UNL     1      22.590   0.277  53.162  1.00  0.00     0.037 A 
HETATM   15  C5  UNL     1      23.113  -0.634  54.051  1.00  0.00     0.030 A 
HETATM   16  C4  UNL     1      22.152  -1.494  54.597  1.00  0.00     0.005 A 
HETATM   17  C3  UNL     1      20.813  -1.421  54.263  1.00  0.00     0.037 A 
HETATM   18  C2  UNL     1      20.372  -0.470  53.357  1.00  0.00     0.070 A 
HETATM   19  C17 UNL     1      21.283   0.417  52.777  1.00  0.00     0.066 A 
BRANCH  18  20
HETATM   20  O1  UNL     1      19.053  -0.309  52.951  1.00  0.00    -0.356 OA
HETATM   21  C1  UNL     1      18.117  -1.325  53.252  1.00  0.00     0.210 C 
ENDBRANCH  18  20
ENDBRANCH   1  14
BRANCH   9  22
HETATM   22  C14 UNL     1      25.892   1.587  52.220  1.00  0.00     0.107 C 
HETATM   23  N2  UNL     1      26.755   2.545  52.232  1.00  0.00    -0.314 NA
HETATM   24  H15 UNL     1      27.599   2.593  51.677  1.00  0.00     0.185 HD
ENDBRANCH   9  22
TORSDOF 3
ENDMDL
MODEL 5
REMARK VINA RESULT:      -7.1      3.253      6.681
REMARK  3 active torsions:
REMARK  status: ('A' for Active; 'I' for Inactive)
REMARK    1  A    between atoms: O1_2  and  C2_3 
REMARK    2  A    between atoms: C6_7  and  N1_8 
REMARK    3  A    between atoms: C13_16  and  C14_17 
ROOT
HETATM    1  N1  UNL     1      24.382   2.107  51.745  1.00  0.00    -0.345 N 
HETATM    2  C7  UNL     1      23.140   1.646  51.158  1.00  0.00     0.095 C 
HETATM    3  C8  UNL     1      21.850   1.566  50.922  1.00  0.00     0.056 C 
HETATM    4  C9  UNL     1      20.544   2.107  51.269  1.00  0.00     0.101 C 
HETATM    5  C10 UNL     1      20.117   3.300  51.739  1.00  0.00     0.103 C 
HETATM    6  C11 UNL     1      21.259   4.281  51.948  1.00  0.00     0.235 C 
HETATM    7  O2  UNL     1      22.382   3.702  51.459  1.00  0.00    -0.382 OA
HETATM    8  C12 UNL     1      23.562   4.339  51.707  1.00  0.00     0.199 C 
HETATM    9  C13 UNL     1      24.671   3.408  51.120  1.00  0.00     0.153 C 
HETATM   10  O3  UNL     1      18.811   3.590  51.996  1.00  0.00    -0.348 OA
HETATM   11  C15 UNL     1      17.693   2.860  51.576  1.00  0.00     0.202 C 
HETATM   12  C16 UNL     1      18.185   1.778  50.648  1.00  0.00     0.202 C 
HETATM   13  O4  UNL     1      19.432   1.318  51.129  1.00  0.00    -0.346 OA
ENDROOT
BRANCH   1  14
HETATM   14  C6  UNL     1      25.055   1.327  52.743  1.00  0.00     0.037 A 
HETATM   15  C5  UNL     1      24.337   0.236  53.175  1.00  0.00     0.030 A 
HETATM   16  C4  UNL     1      25.000  -0.516  54.152  1.00  0.00     0.005 A 
HETATM   17  C3  UNL     1      26.255  -0.181  54.625  1.00  0.00     0.037 A 
HETATM   18  C2  UNL     1      26.908   0.938  54.133  1.00  0.00     0.070 A 
HETATM   19  C17 UNL     1      26.297   1.730  53.156  1.00  0.00     0.066 A 
BRANCH  18  20
HETATM   20  O1  UNL     1      28.167   1.366  54.536  1.00  0.00    -0.356 OA
HETATM   21  C1  UNL     1      28.807   2.389  53.800  1.00  0.00     0.210 C 
ENDBRANCH  18  20
ENDBRANCH   1  14
BRANCH   9  22
HETATM   22  C14 UNL     1      24.571   3.282  49.669  1.00  0.00     0.107 C 
HETATM   23  N2  UNL     1      24.167   4.363  49.091  1.00  0.00    -0.314 NA
HETATM   24  H15 UNL     1      24.030   4.490  48.098  1.00  0.00     0.185 HD
ENDBRANCH   9  22
TORSDOF 3
ENDMDL
MODEL 6
REMARK VINA RESULT:      -7.1      2.589      6.613
REMARK  3 active torsions:
REMARK  status: ('A' for Active; 'I' for Inactive)
REMARK    1  A    between atoms: O1_2  and  C2_3 
REMARK    2  A    between atoms: C6_7  and  N1_8 
REMARK    3  A    between atoms: C13_16  and  C14_17 
ROOT
HETATM    1  N1  UNL     1      23.540   2.065  52.448  1.00  0.00    -0.345 N 
HETATM    2  C7  UNL     1      23.436   3.508  52.513  1.00  0.00     0.095 C 
HETATM    3  C8  UNL     1      23.513   4.762  52.128  1.00  0.00     0.056 C 
HETATM    4  C9  UNL     1      23.880   5.647  51.032  1.00  0.00     0.101 C 
HETATM    5  C10 UNL     1      23.934   5.507  49.689  1.00  0.00     0.103 C 
HETATM    6  C11 UNL     1      23.518   4.116  49.237  1.00  0.00     0.235 C 
HETATM    7  O2  UNL     1      23.073   3.453  50.331  1.00  0.00    -0.382 OA
HETATM    8  C12 UNL     1      22.816   2.121  50.183  1.00  0.00     0.199 C 
HETATM    9  C13 UNL     1      22.421   1.612  51.606  1.00  0.00     0.153 C 
HETATM   10  O3  UNL     1      24.317   6.498  48.837  1.00  0.00    -0.348 OA
HETATM   11  C15 UNL     1      24.441   7.859  49.140  1.00  0.00     0.202 C 
HETATM   12  C16 UNL     1      23.920   8.059  50.541  1.00  0.00     0.202 C 
HETATM   13  O4  UNL     1      24.279   6.929  51.310  1.00  0.00    -0.346 OA
ENDROOT
BRANCH   1  14
HETATM   14  C6  UNL     1      24.603   1.375  53.120  1.00  0.00     0.037 A 
HETATM   15  C5  UNL     1      24.312   0.066  53.425  1.00  0.00     0.030 A 
HETATM   16  C4  UNL     1      25.355  -0.597  54.085  1.00  0.00     0.005 A 
HETATM   17  C3  UNL     1      26.553   0.020  54.391  1.00  0.00     0.037 A 
HETATM   18  C2  UNL     1      26.762   1.345  54.046  1.00  0.00     0.070 A 
HETATM   19  C17 UNL     1      25.758   2.062  53.386  1.00  0.00     0.066 A 
BRANCH  18  20
HETATM   20  O1  UNL     1      27.923   2.062  54.305  1.00  0.00    -0.356 OA
HETATM   21  C1  UNL     1      29.165   1.387  54.264  1.00  0.00     0.210 C 
ENDBRANCH  18  20
ENDBRANCH   1  14
BRANCH   9  22
HETATM   22  C14 UNL     1      21.180   2.217  52.081  1.00  0.00     0.107 C 
HETATM   23  N2  UNL     1      20.317   2.413  51.142  1.00  0.00    -0.314 NA
HETATM   24  H15 UNL     1      19.398   2.818  51.254  1.00  0.00     0.185 HD
ENDBRANCH   9  22
TORSDOF 3
ENDMDL
MODEL 7
REMARK VINA RESULT:      -6.8      2.951      5.838
REMARK  3 active torsions:
REMARK  status: ('A' for Active; 'I' for Inactive)
REMARK    1  A    between atoms: O1_2  and  C2_3 
REMARK    2  A    between atoms: C6_7  and  N1_8 
REMARK    3  A    between atoms: C13_16  and  C14_17 
ROOT
HETATM    1  N1  UNL     1      23.049   3.228  51.999  1.00  0.00    -0.345 N 
HETATM    2  C7  UNL     1      23.969   2.910  53.073  1.00  0.00     0.095 C 
HETATM    3  C8  UNL     1      25.053   2.468  53.668  1.00  0.00     0.056 C 
HETATM    4  C9  UNL     1      26.352   1.845  53.459  1.00  0.00     0.101 C 
HETATM    5  C10 UNL     1      27.225   1.816  52.428  1.00  0.00     0.103 C 
HETATM    6  C11 UNL     1      26.730   2.610  51.230  1.00  0.00     0.235 C 
HETATM    7  O2  UNL     1      25.593   3.244  51.608  1.00  0.00    -0.382 OA
HETATM    8  C12 UNL     1      24.883   3.873  50.629  1.00  0.00     0.199 C 
HETATM    9  C13 UNL     1      23.598   4.419  51.330  1.00  0.00     0.153 C 
HETATM   10  O3  UNL     1      28.413   1.151  52.458  1.00  0.00    -0.348 OA
HETATM   11  C15 UNL     1      29.058   0.642  53.591  1.00  0.00     0.202 C 
HETATM   12  C16 UNL     1      28.280   1.102  54.797  1.00  0.00     0.202 C 
HETATM   13  O4  UNL     1      26.906   1.095  54.465  1.00  0.00    -0.346 OA
ENDROOT
BRANCH   1  14
HETATM   14  C6  UNL     1      21.888   2.419  51.765  1.00  0.00     0.037 A 
HETATM   15  C5  UNL     1      22.174   1.152  51.313  1.00  0.00     0.030 A 
HETATM   16  C4  UNL     1      21.034   0.372  51.083  1.00  0.00     0.005 A 
HETATM   17  C3  UNL     1      19.753   0.845  51.295  1.00  0.00     0.037 A 
HETATM   18  C2  UNL     1      19.556   2.138  51.753  1.00  0.00     0.070 A 
HETATM   19  C17 UNL     1      20.655   2.967  52.001  1.00  0.00     0.066 A 
BRANCH  18  20
HETATM   20  O1  UNL     1      18.316   2.715  51.999  1.00  0.00    -0.356 OA
HETATM   21  C1  UNL     1      17.947   3.872  51.276  1.00  0.00     0.210 C 
ENDBRANCH  18  20
ENDBRANCH   1  14
BRANCH   9  22
HETATM   22  C14 UNL     1      23.908   5.437  52.329  1.00  0.00     0.107 C 
HETATM   23  N2  UNL     1      24.343   6.538  51.816  1.00  0.00    -0.314 NA
HETATM   24  H15 UNL     1      24.613   7.366  52.328  1.00  0.00     0.185 HD
ENDBRANCH   9  22
TORSDOF 3
ENDMDL
MODEL 8
REMARK VINA RESULT:      -6.7      2.743      7.191
REMARK  3 active torsions:
REMARK  status: ('A' for Active; 'I' for Inactive)
REMARK    1  A    between atoms: O1_2  and  C2_3 
REMARK    2  A    between atoms: C6_7  and  N1_8 
REMARK    3  A    between atoms: C13_16  and  C14_17 
ROOT
HETATM    1  N1  UNL     1      22.740   2.634  51.855  1.00  0.00    -0.345 N 
HETATM    2  C7  UNL     1      23.262   3.983  51.932  1.00  0.00     0.095 C 
HETATM    3  C8  UNL     1      23.822   5.106  51.542  1.00  0.00     0.056 C 
HETATM    4  C9  UNL     1      24.415   5.807  50.413  1.00  0.00     0.101 C 
HETATM    5  C10 UNL     1      24.268   5.723  49.072  1.00  0.00     0.103 C 
HETATM    6  C11 UNL     1      23.261   4.658  48.668  1.00  0.00     0.235 C 
HETATM    7  O2  UNL     1      22.690   4.191  49.805  1.00  0.00    -0.382 OA
HETATM    8  C12 UNL     1      21.882   3.099  49.685  1.00  0.00     0.199 C 
HETATM    9  C13 UNL     1      21.455   2.734  51.143  1.00  0.00     0.153 C 
HETATM   10  O3  UNL     1      24.945   6.502  48.184  1.00  0.00    -0.348 OA
HETATM   11  C15 UNL     1      25.663   7.669  48.472  1.00  0.00     0.202 C 
HETATM   12  C16 UNL     1      25.419   8.001  49.923  1.00  0.00     0.202 C 
HETATM   13  O4  UNL     1      25.344   6.788  50.646  1.00  0.00    -0.346 OA
ENDROOT
BRANCH   1  14
HETATM   14  C6  UNL     1      23.474   1.531  52.402  1.00  0.00     0.037 A 
HETATM   15  C5  UNL     1      24.785   1.475  51.988  1.00  0.00     0.030 A 
HETATM   16  C4  UNL     1      25.493   0.392  52.524  1.00  0.00     0.005 A 
HETATM   17  C3  UNL     1      24.915  -0.522  53.384  1.00  0.00     0.037 A 
HETATM   18  C2  UNL     1      23.585  -0.390  53.750  1.00  0.00     0.070 A 
HETATM   19  C17 UNL     1      22.824   0.671  53.247  1.00  0.00     0.066 A 
BRANCH  18  20
HETATM   20  O1  UNL     1      22.905  -1.249  54.604  1.00  0.00    -0.356 OA
HETATM   21  C1  UNL     1      21.493  -1.295  54.543  1.00  0.00     0.210 C 
ENDBRANCH  18  20
ENDBRANCH   1  14
BRANCH   9  22
HETATM   22  C14 UNL     1      20.641   3.780  51.755  1.00  0.00     0.107 C 
HETATM   23  N2  UNL     1      19.565   3.331  52.306  1.00  0.00    -0.314 NA
HETATM   24  H15 UNL     1      18.866   3.885  52.783  1.00  0.00     0.185 HD
ENDBRANCH   9  22
TORSDOF 3
ENDMDL
MODEL 9
REMARK VINA RESULT:      -6.7      3.262      7.102
REMARK  3 active torsions:
REMARK  status: ('A' for Active; 'I' for Inactive)
REMARK    1  A    between atoms: O1_2  and  C2_3 
REMARK    2  A    between atoms: C6_7  and  N1_8 
REMARK    3  A    between atoms: C13_16  and  C14_17 
ROOT
HETATM    1  N1  UNL     1      24.076   3.612  51.249  1.00  0.00    -0.345 N 
HETATM    2  C7  UNL     1      23.789   3.835  49.846  1.00  0.00     0.095 C 
HETATM    3  C8  UNL     1      23.100   3.893  48.730  1.00  0.00     0.056 C 
HETATM    4  C9  UNL     1      21.790   3.679  48.131  1.00  0.00     0.101 C 
HETATM    5  C10 UNL     1      20.525   3.706  48.604  1.00  0.00     0.103 C 
HETATM    6  C11 UNL     1      20.471   4.031  50.088  1.00  0.00     0.235 C 
HETATM    7  O2  UNL     1      21.731   4.341  50.479  1.00  0.00    -0.382 OA
HETATM    8  C12 UNL     1      21.941   4.492  51.818  1.00  0.00     0.199 C 
HETATM    9  C13 UNL     1      23.475   4.744  51.974  1.00  0.00     0.153 C 
HETATM   10  O3  UNL     1      19.423   3.469  47.839  1.00  0.00    -0.348 OA
HETATM   11  C15 UNL     1      19.366   3.442  46.441  1.00  0.00     0.202 C 
HETATM   12  C16 UNL     1      20.714   3.881  45.926  1.00  0.00     0.202 C 
HETATM   13  O4  UNL     1      21.705   3.373  46.797  1.00  0.00    -0.346 OA
ENDROOT
BRANCH   1  14
HETATM   14  C6  UNL     1      24.802   2.450  51.673  1.00  0.00     0.037 A 
HETATM   15  C5  UNL     1      26.113   2.431  51.259  1.00  0.00     0.030 A 
HETATM   16  C4  UNL     1      26.812   1.290  51.674  1.00  0.00     0.005 A 
HETATM   17  C3  UNL     1      26.225   0.291  52.427  1.00  0.00     0.037 A 
HETATM   18  C2  UNL     1      24.895   0.392  52.802  1.00  0.00     0.070 A 
HETATM   19  C17 UNL     1      24.143   1.507  52.417  1.00  0.00     0.066 A 
BRANCH  18  20
HETATM   20  O1  UNL     1      24.206  -0.551  53.555  1.00  0.00    -0.356 OA
HETATM   21  C1  UNL     1      22.792  -0.533  53.543  1.00  0.00     0.210 C 
ENDBRANCH  18  20
ENDBRANCH   1  14
BRANCH   9  22
HETATM   22  C14 UNL     1      23.892   5.996  51.350  1.00  0.00     0.107 C 
HETATM   23  N2  UNL     1      24.406   6.834  52.185  1.00  0.00    -0.314 NA
HETATM   24  H15 UNL     1      24.757   7.755  51.963  1.00  0.00     0.185 HD
ENDBRANCH   9  22
TORSDOF 3
ENDMDL
