MODEL 1
REMARK VINA RESULT:      -6.7      0.000      0.000
REMARK  7 active torsions:
REMARK  status: ('A' for Active; 'I' for Inactive)
REMARK    1  A    between atoms: C2_2  and  C3_3 
REMARK    2  A    between atoms: C3_3  and  O1_4 
REMARK    3  A    between atoms: O1_4  and  C4_5 
REMARK    4  A    between atoms: C5_6  and  C6_7 
REMARK    5  A    between atoms: C6_7  and  C7_9 
REMARK    6  A    between atoms: C7_9  and  C9_11 
REMARK    7  A    between atoms: C9_11  and  N1_12 
ROOT
HETATM    1  C4  UNL     1      23.501   2.499  49.950  1.00  0.00     0.152 A 
HETATM    2  C5  UNL     1      22.985   1.699  50.855  1.00  0.00     0.065 A 
HETATM    3  C14 UNL     1      21.812   0.950  50.437  1.00  0.00     0.017 A 
HETATM    4  C15 UNL     1      21.227   0.998  49.257  1.00  0.00    -0.006 A 
HETATM    5  C16 UNL     1      21.774   1.883  48.213  1.00  0.00     0.149 A 
HETATM    6  N2  UNL     1      22.931   2.615  48.638  1.00  0.00    -0.367 N 
HETATM    7  H22 UNL     1      23.313   3.237  47.901  1.00  0.00     0.161 HD
ENDROOT
BRANCH   2   8
HETATM    8  C6  UNL     1      23.615   1.635  52.153  1.00  0.00     0.193 C 
HETATM    9  O2  UNL     1      23.474   2.666  52.860  1.00  0.00    -0.287 OA
BRANCH   8  10
HETATM   10  C7  UNL     1      24.379   0.553  52.743  1.00  0.00     0.012 C 
HETATM   11  C8  UNL     1      23.886  -0.413  53.492  1.00  0.00     0.025 C 
BRANCH  10  12
HETATM   12  C9  UNL     1      25.841   0.474  52.523  1.00  0.00     0.314 C 
BRANCH  12  13
HETATM   13  N1  UNL     1      26.553   0.931  53.729  1.00  0.00     0.096 N 
HETATM   14  C10 UNL     1      27.535  -0.084  53.989  1.00  0.00     0.299 C 
HETATM   15  C11 UNL     1      28.743   0.341  54.735  1.00  0.00     0.198 C 
HETATM   16  O3  UNL     1      29.017   1.683  54.752  1.00  0.00    -0.388 OA
HETATM   17  C12 UNL     1      28.571   2.331  53.626  1.00  0.00     0.198 C 
HETATM   18  C13 UNL     1      27.082   2.219  53.437  1.00  0.00     0.299 C 
ENDBRANCH  12  13
ENDBRANCH  10  12
ENDBRANCH   8  10
ENDBRANCH   2   8
BRANCH   1  19
HETATM   19  O1  UNL     1      24.633   3.315  50.135  1.00  0.00    -0.335 OA
BRANCH  19  20
HETATM   20  C3  UNL     1      24.710   4.566  49.467  1.00  0.00     0.182 C 
BRANCH  20  21
HETATM   21  C2  UNL     1      26.117   5.049  49.361  1.00  0.00     0.016 C 
HETATM   22  C1  UNL     1      27.175   4.357  48.970  1.00  0.00     0.007 C 
ENDBRANCH  20  21
ENDBRANCH  19  20
ENDBRANCH   1  19
TORSDOF 7
ENDMDL
MODEL 2
REMARK VINA RESULT:      -6.6      1.758      4.000
REMARK  7 active torsions:
REMARK  status: ('A' for Active; 'I' for Inactive)
REMARK    1  A    between atoms: C2_2  and  C3_3 
REMARK    2  A    between atoms: C3_3  and  O1_4 
REMARK    3  A    between atoms: O1_4  and  C4_5 
REMARK    4  A    between atoms: C5_6  and  C6_7 
REMARK    5  A    between atoms: C6_7  and  C7_9 
REMARK    6  A    between atoms: C7_9  and  C9_11 
REMARK    7  A    between atoms: C9_11  and  N1_12 
ROOT
HETATM    1  C4  UNL     1      22.732   1.421  51.257  1.00  0.00     0.152 A 
HETATM    2  C5  UNL     1      23.386   2.285  50.516  1.00  0.00     0.065 A 
HETATM    3  C14 UNL     1      22.898   2.445  49.156  1.00  0.00     0.017 A 
HETATM    4  C15 UNL     1      21.879   1.815  48.606  1.00  0.00    -0.006 A 
HETATM    5  C16 UNL     1      21.117   0.837  49.404  1.00  0.00     0.149 A 
HETATM    6  N2  UNL     1      21.609   0.689  50.742  1.00  0.00    -0.367 N 
HETATM    7  H22 UNL     1      21.071  -0.001  51.300  1.00  0.00     0.161 HD
ENDROOT
BRANCH   2   8
HETATM    8  C6  UNL     1      24.505   2.983  51.104  1.00  0.00     0.193 C 
HETATM    9  O2  UNL     1      24.199   3.807  52.004  1.00  0.00    -0.287 OA
BRANCH   8  10
HETATM   10  C7  UNL     1      25.918   2.863  50.800  1.00  0.00     0.012 C 
HETATM   11  C8  UNL     1      26.486   3.199  49.660  1.00  0.00     0.025 C 
BRANCH  10  12
HETATM   12  C9  UNL     1      26.849   2.323  51.817  1.00  0.00     0.314 C 
BRANCH  12  13
HETATM   13  N1  UNL     1      26.201   1.223  52.552  1.00  0.00     0.096 N 
HETATM   14  C10 UNL     1      26.736   0.022  51.974  1.00  0.00     0.299 C 
HETATM   15  C11 UNL     1      26.745  -1.181  52.840  1.00  0.00     0.198 C 
HETATM   16  O3  UNL     1      26.641  -0.970  54.190  1.00  0.00    -0.388 OA
HETATM   17  C12 UNL     1      27.172   0.234  54.583  1.00  0.00     0.198 C 
HETATM   18  C13 UNL     1      26.499   1.412  53.930  1.00  0.00     0.299 C 
ENDBRANCH  12  13
ENDBRANCH  10  12
ENDBRANCH   8  10
ENDBRANCH   2   8
BRANCH   1  19
HETATM   19  O1  UNL     1      23.028   1.107  52.596  1.00  0.00    -0.335 OA
BRANCH  19  20
HETATM   20  C3  UNL     1      23.056  -0.253  53.007  1.00  0.00     0.182 C 
BRANCH  20  21
HETATM   21  C2  UNL     1      22.207  -0.483  54.211  1.00  0.00     0.016 C 
HETATM   22  C1  UNL     1      21.114  -1.224  54.290  1.00  0.00     0.007 C 
ENDBRANCH  20  21
ENDBRANCH  19  20
ENDBRANCH   1  19
TORSDOF 7
ENDMDL
MODEL 3
REMARK VINA RESULT:      -6.6      2.314      6.725
REMARK  7 active torsions:
REMARK  status: ('A' for Active; 'I' for Inactive)
REMARK    1  A    between atoms: C2_2  and  C3_3 
REMARK    2  A    between atoms: C3_3  and  O1_4 
REMARK    3  A    between atoms: O1_4  and  C4_5 
REMARK    4  A    between atoms: C5_6  and  C6_7 
REMARK    5  A    between atoms: C6_7  and  C7_9 
REMARK    6  A    between atoms: C7_9  and  C9_11 
REMARK    7  A    between atoms: C9_11  and  N1_12 
ROOT
HETATM    1  C4  UNL     1      27.094  -0.554  53.226  1.00  0.00     0.152 A 
HETATM    2  C5  UNL     1      27.591   0.662  53.229  1.00  0.00     0.065 A 
HETATM    3  C14 UNL     1      29.036   0.750  53.358  1.00  0.00     0.017 A 
HETATM    4  C15 UNL     1      29.879  -0.256  53.471  1.00  0.00    -0.006 A 
HETATM    5  C16 UNL     1      29.363  -1.637  53.472  1.00  0.00     0.149 A 
HETATM    6  N2  UNL     1      27.937  -1.710  53.344  1.00  0.00    -0.367 N 
HETATM    7  H22 UNL     1      27.576  -2.682  53.346  1.00  0.00     0.161 HD
ENDROOT
BRANCH   2   8
HETATM    8  C6  UNL     1      26.680   1.775  53.106  1.00  0.00     0.193 C 
HETATM    9  O2  UNL     1      26.412   2.362  54.186  1.00  0.00    -0.287 OA
BRANCH   8  10
HETATM   10  C7  UNL     1      26.039   2.302  51.916  1.00  0.00     0.012 C 
HETATM   11  C8  UNL     1      26.663   2.825  50.880  1.00  0.00     0.025 C 
BRANCH  10  12
HETATM   12  C9  UNL     1      24.564   2.278  51.799  1.00  0.00     0.314 C 
BRANCH  12  13
HETATM   13  N1  UNL     1      24.080   3.587  51.324  1.00  0.00     0.096 N 
HETATM   14  C10 UNL     1      23.084   3.279  50.336  1.00  0.00     0.299 C 
HETATM   15  C11 UNL     1      22.037   4.304  50.112  1.00  0.00     0.198 C 
HETATM   16  O3  UNL     1      21.860   5.232  51.104  1.00  0.00    -0.388 OA
HETATM   17  C12 UNL     1      22.169   4.744  52.350  1.00  0.00     0.198 C 
HETATM   18  C13 UNL     1      23.600   4.290  52.463  1.00  0.00     0.299 C 
ENDBRANCH  12  13
ENDBRANCH  10  12
ENDBRANCH   8  10
ENDBRANCH   2   8
BRANCH   1  19
HETATM   19  O1  UNL     1      25.728  -0.875  53.113  1.00  0.00    -0.335 OA
BRANCH  19  20
HETATM   20  C3  UNL     1      24.913  -0.885  54.276  1.00  0.00     0.182 C 
BRANCH  20  21
HETATM   21  C2  UNL     1      23.483  -0.615  53.949  1.00  0.00     0.016 C 
HETATM   22  C1  UNL     1      22.416  -1.126  54.542  1.00  0.00     0.007 C 
ENDBRANCH  20  21
ENDBRANCH  19  20
ENDBRANCH   1  19
TORSDOF 7
ENDMDL
MODEL 4
REMARK VINA RESULT:      -6.4      2.112      6.770
REMARK  7 active torsions:
REMARK  status: ('A' for Active; 'I' for Inactive)
REMARK    1  A    between atoms: C2_2  and  C3_3 
REMARK    2  A    between atoms: C3_3  and  O1_4 
REMARK    3  A    between atoms: O1_4  and  C4_5 
REMARK    4  A    between atoms: C5_6  and  C6_7 
REMARK    5  A    between atoms: C6_7  and  C7_9 
REMARK    6  A    between atoms: C7_9  and  C9_11 
REMARK    7  A    between atoms: C9_11  and  N1_12 
ROOT
HETATM    1  C4  UNL     1      26.789   0.344  53.297  1.00  0.00     0.152 A 
HETATM    2  C5  UNL     1      27.150   1.534  52.875  1.00  0.00     0.065 A 
HETATM    3  C14 UNL     1      28.378   2.059  53.446  1.00  0.00     0.017 A 
HETATM    4  C15 UNL     1      29.152   1.464  54.332  1.00  0.00    -0.006 A 
HETATM    5  C16 UNL     1      28.784   0.126  54.831  1.00  0.00     0.149 A 
HETATM    6  N2  UNL     1      27.570  -0.379  54.260  1.00  0.00    -0.367 N 
HETATM    7  H22 UNL     1      27.314  -1.320  54.614  1.00  0.00     0.161 HD
ENDROOT
BRANCH   2   8
HETATM    8  C6  UNL     1      26.313   2.199  51.904  1.00  0.00     0.193 C 
HETATM    9  O2  UNL     1      26.863   2.418  50.794  1.00  0.00    -0.287 OA
BRANCH   8  10
HETATM   10  C7  UNL     1      24.938   2.642  52.035  1.00  0.00     0.012 C 
HETATM   11  C8  UNL     1      24.408   3.184  53.112  1.00  0.00     0.025 C 
BRANCH  10  12
HETATM   12  C9  UNL     1      24.003   2.497  50.896  1.00  0.00     0.314 C 
BRANCH  12  13
HETATM   13  N1  UNL     1      23.433   3.811  50.548  1.00  0.00     0.096 N 
HETATM   14  C10 UNL     1      24.229   4.283  49.450  1.00  0.00     0.299 C 
HETATM   15  C11 UNL     1      23.578   5.245  48.529  1.00  0.00     0.198 C 
HETATM   16  O3  UNL     1      22.209   5.286  48.546  1.00  0.00    -0.388 OA
HETATM   17  C12 UNL     1      21.645   4.080  48.883  1.00  0.00     0.198 C 
HETATM   18  C13 UNL     1      22.059   3.601  50.249  1.00  0.00     0.299 C 
ENDBRANCH  12  13
ENDBRANCH  10  12
ENDBRANCH   8  10
ENDBRANCH   2   8
BRANCH   1  19
HETATM   19  O1  UNL     1      25.641  -0.354  52.881  1.00  0.00    -0.335 OA
BRANCH  19  20
HETATM   20  C3  UNL     1      24.600  -0.609  53.814  1.00  0.00     0.182 C 
BRANCH  20  21
HETATM   21  C2  UNL     1      23.253  -0.461  53.192  1.00  0.00     0.016 C 
HETATM   22  C1  UNL     1      22.205   0.173  53.692  1.00  0.00     0.007 C 
ENDBRANCH  20  21
ENDBRANCH  19  20
ENDBRANCH   1  19
TORSDOF 7
ENDMDL
MODEL 5
REMARK VINA RESULT:      -6.3      1.835      6.753
REMARK  7 active torsions:
REMARK  status: ('A' for Active; 'I' for Inactive)
REMARK    1  A    between atoms: C2_2  and  C3_3 
REMARK    2  A    between atoms: C3_3  and  O1_4 
REMARK    3  A    between atoms: O1_4  and  C4_5 
REMARK    4  A    between atoms: C5_6  and  C6_7 
REMARK    5  A    between atoms: C6_7  and  C7_9 
REMARK    6  A    between atoms: C7_9  and  C9_11 
REMARK    7  A    between atoms: C9_11  and  N1_12 
ROOT
HETATM    1  C4  UNL     1      26.510   0.336  53.463  1.00  0.00     0.152 A 
HETATM    2  C5  UNL     1      26.727   1.612  53.236  1.00  0.00     0.065 A 
HETATM    3  C14 UNL     1      28.057   2.093  53.568  1.00  0.00     0.017 A 
HETATM    4  C15 UNL     1      29.048   1.383  54.069  1.00  0.00    -0.006 A 
HETATM    5  C16 UNL     1      28.847  -0.052  54.339  1.00  0.00     0.149 A 
HETATM    6  N2  UNL     1      27.531  -0.513  54.006  1.00  0.00    -0.367 N 
HETATM    7  H22 UNL     1      27.393  -1.524  54.198  1.00  0.00     0.161 HD
ENDROOT
BRANCH   2   8
HETATM    8  C6  UNL     1      25.650   2.402  52.687  1.00  0.00     0.193 C 
HETATM    9  O2  UNL     1      24.802   2.797  53.528  1.00  0.00    -0.287 OA
BRANCH   8  10
HETATM   10  C7  UNL     1      25.419   2.799  51.311  1.00  0.00     0.012 C 
HETATM   11  C8  UNL     1      26.330   2.826  50.360  1.00  0.00     0.025 C 
BRANCH  10  12
HETATM   12  C9  UNL     1      24.067   3.220  50.881  1.00  0.00     0.314 C 
BRANCH  12  13
HETATM   13  N1  UNL     1      23.480   2.191  50.003  1.00  0.00     0.096 N 
HETATM   14  C10 UNL     1      22.579   1.454  50.844  1.00  0.00     0.299 C 
HETATM   15  C11 UNL     1      21.448   0.776  50.167  1.00  0.00     0.198 C 
HETATM   16  O3  UNL     1      21.121   1.226  48.915  1.00  0.00    -0.388 OA
HETATM   17  C12 UNL     1      21.406   2.557  48.736  1.00  0.00     0.198 C 
HETATM   18  C13 UNL     1      22.867   2.873  48.916  1.00  0.00     0.299 C 
ENDBRANCH  12  13
ENDBRANCH  10  12
ENDBRANCH   8  10
ENDBRANCH   2   8
BRANCH   1  19
HETATM   19  O1  UNL     1      25.301  -0.341  53.216  1.00  0.00    -0.335 OA
BRANCH  19  20
HETATM   20  C3  UNL     1      24.474  -0.715  54.309  1.00  0.00     0.182 C 
BRANCH  20  21
HETATM   21  C2  UNL     1      23.026  -0.592  53.972  1.00  0.00     0.016 C 
HETATM   22  C1  UNL     1      21.995  -0.839  54.764  1.00  0.00     0.007 C 
ENDBRANCH  20  21
ENDBRANCH  19  20
ENDBRANCH   1  19
TORSDOF 7
ENDMDL
MODEL 6
REMARK VINA RESULT:      -6.2      2.188      5.943
REMARK  7 active torsions:
REMARK  status: ('A' for Active; 'I' for Inactive)
REMARK    1  A    between atoms: C2_2  and  C3_3 
REMARK    2  A    between atoms: C3_3  and  O1_4 
REMARK    3  A    between atoms: O1_4  and  C4_5 
REMARK    4  A    between atoms: C5_6  and  C6_7 
REMARK    5  A    between atoms: C6_7  and  C7_9 
REMARK    6  A    between atoms: C7_9  and  C9_11 
REMARK    7  A    between atoms: C9_11  and  N1_12 
ROOT
HETATM    1  C4  UNL     1      24.798   0.189  53.076  1.00  0.00     0.152 A 
HETATM    2  C5  UNL     1      25.304   1.344  52.710  1.00  0.00     0.065 A 
HETATM    3  C14 UNL     1      26.745   1.370  52.527  1.00  0.00     0.017 A 
HETATM    4  C15 UNL     1      27.578   0.362  52.693  1.00  0.00    -0.006 A 
HETATM    5  C16 UNL     1      27.051  -0.952  53.104  1.00  0.00     0.149 A 
HETATM    6  N2  UNL     1      25.629  -0.964  53.280  1.00  0.00    -0.367 N 
HETATM    7  H22 UNL     1      25.261  -1.890  53.569  1.00  0.00     0.161 HD
ENDROOT
BRANCH   2   8
HETATM    8  C6  UNL     1      24.404   2.458  52.524  1.00  0.00     0.193 C 
HETATM    9  O2  UNL     1      24.374   3.278  53.477  1.00  0.00    -0.287 OA
BRANCH   8  10
HETATM   10  C7  UNL     1      23.541   2.755  51.397  1.00  0.00     0.012 C 
HETATM   11  C8  UNL     1      22.223   2.755  51.421  1.00  0.00     0.025 C 
BRANCH  10  12
HETATM   12  C9  UNL     1      24.131   3.093  50.082  1.00  0.00     0.314 C 
BRANCH  12  13
HETATM   13  N1  UNL     1      25.232   4.056  50.263  1.00  0.00     0.096 N 
HETATM   14  C10 UNL     1      26.296   3.565  49.432  1.00  0.00     0.299 C 
HETATM   15  C11 UNL     1      27.273   4.569  48.948  1.00  0.00     0.198 C 
HETATM   16  O3  UNL     1      26.875   5.880  48.975  1.00  0.00    -0.388 OA
HETATM   17  C12 UNL     1      25.518   6.027  48.822  1.00  0.00     0.198 C 
HETATM   18  C13 UNL     1      24.728   5.336  49.901  1.00  0.00     0.299 C 
ENDBRANCH  12  13
ENDBRANCH  10  12
ENDBRANCH   8  10
ENDBRANCH   2   8
BRANCH   1  19
HETATM   19  O1  UNL     1      23.433  -0.066  53.308  1.00  0.00    -0.335 OA
BRANCH  19  20
HETATM   20  C3  UNL     1      23.051  -0.891  54.400  1.00  0.00     0.182 C 
BRANCH  20  21
HETATM   21  C2  UNL     1      21.634  -0.657  54.799  1.00  0.00     0.016 C 
HETATM   22  C1  UNL     1      20.823   0.292  54.359  1.00  0.00     0.007 C 
ENDBRANCH  20  21
ENDBRANCH  19  20
ENDBRANCH   1  19
TORSDOF 7
ENDMDL
MODEL 7
REMARK VINA RESULT:      -6.2      2.524      5.284
REMARK  7 active torsions:
REMARK  status: ('A' for Active; 'I' for Inactive)
REMARK    1  A    between atoms: C2_2  and  C3_3 
REMARK    2  A    between atoms: C3_3  and  O1_4 
REMARK    3  A    between atoms: O1_4  and  C4_5 
REMARK    4  A    between atoms: C5_6  and  C6_7 
REMARK    5  A    between atoms: C6_7  and  C7_9 
REMARK    6  A    between atoms: C7_9  and  C9_11 
REMARK    7  A    between atoms: C9_11  and  N1_12 
ROOT
HETATM    1  C4  UNL     1      26.710   2.562  51.831  1.00  0.00     0.152 A 
HETATM    2  C5  UNL     1      25.545   2.365  52.404  1.00  0.00     0.065 A 
HETATM    3  C14 UNL     1      24.433   3.115  51.844  1.00  0.00     0.017 A 
HETATM    4  C15 UNL     1      24.484   3.962  50.836  1.00  0.00    -0.006 A 
HETATM    5  C16 UNL     1      25.772   4.213  50.165  1.00  0.00     0.149 A 
HETATM    6  N2  UNL     1      26.859   3.466  50.726  1.00  0.00    -0.367 N 
HETATM    7  H22 UNL     1      27.765   3.646  50.252  1.00  0.00     0.161 HD
ENDROOT
BRANCH   2   8
HETATM    8  C6  UNL     1      25.473   1.439  53.510  1.00  0.00     0.193 C 
HETATM    9  O2  UNL     1      25.667   1.953  54.642  1.00  0.00    -0.287 OA
BRANCH   8  10
HETATM   10  C7  UNL     1      25.210   0.013  53.491  1.00  0.00     0.012 C 
HETATM   11  C8  UNL     1      26.019  -0.920  53.949  1.00  0.00     0.025 C 
BRANCH  10  12
HETATM   12  C9  UNL     1      23.942  -0.497  52.921  1.00  0.00     0.314 C 
BRANCH  12  13
HETATM   13  N1  UNL     1      22.801   0.034  53.688  1.00  0.00     0.096 N 
HETATM   14  C10 UNL     1      21.911   0.578  52.702  1.00  0.00     0.299 C 
HETATM   15  C11 UNL     1      20.477   0.645  53.071  1.00  0.00     0.198 C 
HETATM   16  O3  UNL     1      20.068  -0.161  54.100  1.00  0.00    -0.388 OA
HETATM   17  C12 UNL     1      20.810  -1.312  54.202  1.00  0.00     0.198 C 
HETATM   18  C13 UNL     1      22.272  -1.047  54.446  1.00  0.00     0.299 C 
ENDBRANCH  12  13
ENDBRANCH  10  12
ENDBRANCH   8  10
ENDBRANCH   2   8
BRANCH   1  19
HETATM   19  O1  UNL     1      27.917   1.944  52.206  1.00  0.00    -0.335 OA
BRANCH  19  20
HETATM   20  C3  UNL     1      28.634   2.433  53.331  1.00  0.00     0.182 C 
BRANCH  20  21
HETATM   21  C2  UNL     1      29.185   1.323  54.160  1.00  0.00     0.016 C 
HETATM   22  C1  UNL     1      29.567   0.126  53.744  1.00  0.00     0.007 C 
ENDBRANCH  20  21
ENDBRANCH  19  20
ENDBRANCH   1  19
TORSDOF 7
ENDMDL
MODEL 8
REMARK VINA RESULT:      -6.2      2.595      4.149
REMARK  7 active torsions:
REMARK  status: ('A' for Active; 'I' for Inactive)
REMARK    1  A    between atoms: C2_2  and  C3_3 
REMARK    2  A    between atoms: C3_3  and  O1_4 
REMARK    3  A    between atoms: O1_4  and  C4_5 
REMARK    4  A    between atoms: C5_6  and  C6_7 
REMARK    5  A    between atoms: C6_7  and  C7_9 
REMARK    6  A    between atoms: C7_9  and  C9_11 
REMARK    7  A    between atoms: C9_11  and  N1_12 
ROOT
HETATM    1  C4  UNL     1      25.405   5.570  50.071  1.00  0.00     0.152 A 
HETATM    2  C5  UNL     1      25.783   4.315  49.983  1.00  0.00     0.065 A 
HETATM    3  C14 UNL     1      26.985   4.073  49.203  1.00  0.00     0.017 A 
HETATM    4  C15 UNL     1      27.718   4.978  48.586  1.00  0.00    -0.006 A 
HETATM    5  C16 UNL     1      27.329   6.398  48.660  1.00  0.00     0.149 A 
HETATM    6  N2  UNL     1      26.142   6.622  49.432  1.00  0.00    -0.367 N 
HETATM    7  H22 UNL     1      25.871   7.622  49.481  1.00  0.00     0.161 HD
ENDROOT
BRANCH   2   8
HETATM    8  C6  UNL     1      24.991   3.312  50.654  1.00  0.00     0.193 C 
HETATM    9  O2  UNL     1      24.048   2.838  49.970  1.00  0.00    -0.287 OA
BRANCH   8  10
HETATM   10  C7  UNL     1      25.135   2.783  51.997  1.00  0.00     0.012 C 
HETATM   11  C8  UNL     1      24.181   2.725  52.903  1.00  0.00     0.025 C 
BRANCH  10  12
HETATM   12  C9  UNL     1      26.442   2.250  52.445  1.00  0.00     0.314 C 
BRANCH  12  13
HETATM   13  N1  UNL     1      26.251   0.941  53.094  1.00  0.00     0.096 N 
HETATM   14  C10 UNL     1      26.481  -0.025  52.057  1.00  0.00     0.299 C 
HETATM   15  C11 UNL     1      26.933  -1.368  52.493  1.00  0.00     0.198 C 
HETATM   16  O3  UNL     1      27.476  -1.458  53.748  1.00  0.00    -0.388 OA
HETATM   17  C12 UNL     1      28.097  -0.298  54.143  1.00  0.00     0.198 C 
HETATM   18  C13 UNL     1      27.162   0.882  54.184  1.00  0.00     0.299 C 
ENDBRANCH  12  13
ENDBRANCH  10  12
ENDBRANCH   8  10
ENDBRANCH   2   8
BRANCH   1  19
HETATM   19  O1  UNL     1      24.277   6.033  50.773  1.00  0.00    -0.335 OA
BRANCH  19  20
HETATM   20  C3  UNL     1      24.065   7.431  50.914  1.00  0.00     0.182 C 
BRANCH  20  21
HETATM   21  C2  UNL     1      22.759   7.852  50.331  1.00  0.00     0.016 C 
HETATM   22  C1  UNL     1      21.551   7.457  50.701  1.00  0.00     0.007 C 
ENDBRANCH  20  21
ENDBRANCH  19  20
ENDBRANCH   1  19
TORSDOF 7
ENDMDL
MODEL 9
REMARK VINA RESULT:      -6.1      2.724      6.007
REMARK  7 active torsions:
REMARK  status: ('A' for Active; 'I' for Inactive)
REMARK    1  A    between atoms: C2_2  and  C3_3 
REMARK    2  A    between atoms: C3_3  and  O1_4 
REMARK    3  A    between atoms: O1_4  and  C4_5 
REMARK    4  A    between atoms: C5_6  and  C6_7 
REMARK    5  A    between atoms: C6_7  and  C7_9 
REMARK    6  A    between atoms: C7_9  and  C9_11 
REMARK    7  A    between atoms: C9_11  and  N1_12 
ROOT
HETATM    1  C4  UNL     1      23.668  -0.123  53.437  1.00  0.00     0.152 A 
HETATM    2  C5  UNL     1      22.792   0.742  52.979  1.00  0.00     0.065 A 
HETATM    3  C14 UNL     1      21.450   0.627  53.523  1.00  0.00     0.017 A 
HETATM    4  C15 UNL     1      21.035  -0.249  54.417  1.00  0.00    -0.006 A 
HETATM    5  C16 UNL     1      21.986  -1.238  54.957  1.00  0.00     0.149 A 
HETATM    6  N2  UNL     1      23.306  -1.113  54.411  1.00  0.00    -0.367 N 
HETATM    7  H22 UNL     1      23.973  -1.810  54.793  1.00  0.00     0.161 HD
ENDROOT
BRANCH   2   8
HETATM    8  C6  UNL     1      23.231   1.709  52.000  1.00  0.00     0.193 C 
HETATM    9  O2  UNL     1      22.997   1.394  50.805  1.00  0.00    -0.287 OA
BRANCH   8  10
HETATM   10  C7  UNL     1      23.898   2.980  52.209  1.00  0.00     0.012 C 
HETATM   11  C8  UNL     1      24.491   3.359  53.322  1.00  0.00     0.025 C 
BRANCH  10  12
HETATM   12  C9  UNL     1      23.947   3.976  51.115  1.00  0.00     0.314 C 
BRANCH  12  13
HETATM   13  N1  UNL     1      23.459   5.278  51.603  1.00  0.00     0.096 N 
HETATM   14  C10 UNL     1      24.297   6.253  50.964  1.00  0.00     0.299 C 
HETATM   15  C11 UNL     1      23.718   7.606  50.783  1.00  0.00     0.198 C 
HETATM   16  O3  UNL     1      22.353   7.705  50.850  1.00  0.00    -0.388 OA
HETATM   17  C12 UNL     1      21.715   6.561  50.439  1.00  0.00     0.198 C 
HETATM   18  C13 UNL     1      22.080   5.357  51.267  1.00  0.00     0.299 C 
ENDBRANCH  12  13
ENDBRANCH  10  12
ENDBRANCH   8  10
ENDBRANCH   2   8
BRANCH   1  19
HETATM   19  O1  UNL     1      25.020  -0.195  53.052  1.00  0.00    -0.335 OA
BRANCH  19  20
HETATM   20  C3  UNL     1      25.996  -0.609  53.998  1.00  0.00     0.182 C 
BRANCH  20  21
HETATM   21  C2  UNL     1      26.797   0.542  54.503  1.00  0.00     0.016 C 
HETATM   22  C1  UNL     1      27.684   1.258  53.831  1.00  0.00     0.007 C 
ENDBRANCH  20  21
ENDBRANCH  19  20
ENDBRANCH   1  19
TORSDOF 7
ENDMDL
