MODEL 1
REMARK VINA RESULT:      -8.4      0.000      0.000
REMARK  4 active torsions:
REMARK  status: ('A' for Active; 'I' for Inactive)
REMARK    1  A    between atoms: N4_13  and  C9_14 
REMARK    2  A    between atoms: C10_15  and  C11_16 
REMARK    3  A    between atoms: C11_16  and  N5_17 
REMARK    4  A    between atoms: N5_17  and  S1_18 
ROOT
HETATM    1 CL1  UNL     1      28.972   6.165  47.805  1.00  0.00    -0.084 Cl
HETATM    2  C1  UNL     1      27.501   5.714  48.664  1.00  0.00     0.036 A 
HETATM    3  C2  UNL     1      27.203   4.360  48.828  1.00  0.00     0.024 A 
HETATM    4  C3  UNL     1      26.065   3.893  49.495  1.00  0.00     0.013 A 
HETATM    5  C4  UNL     1      25.246   4.875  49.987  1.00  0.00     0.001 A 
HETATM    6  C5  UNL     1      25.501   6.216  49.840  1.00  0.00     0.044 A 
HETATM    7  C6  UNL     1      26.636   6.684  49.178  1.00  0.00     0.054 A 
HETATM    8  N1  UNL     1      24.441   7.082  50.230  1.00  0.00    -0.342 N 
HETATM    9  C7  UNL     1      23.366   6.214  50.660  1.00  0.00     0.135 C 
HETATM   10  N2  UNL     1      22.129   6.285  51.006  1.00  0.00    -0.224 NA
HETATM   11  C8  UNL     1      21.318   5.177  51.368  1.00  0.00     0.257 C 
HETATM   12  N3  UNL     1      21.859   4.004  51.327  1.00  0.00    -0.165 NA
HETATM   13  N4  UNL     1      23.189   3.851  50.925  1.00  0.00    -0.264 N 
HETATM   14  C17 UNL     1      24.091   4.943  50.869  1.00  0.00     0.214 C 
HETATM   15  H4  UNL     1      24.353   8.119  50.242  1.00  0.00     0.167 HD
ENDROOT
BRANCH  13  16
HETATM   16  C9  UNL     1      23.504   2.482  50.589  1.00  0.00     0.111 C 
HETATM   17  C10 UNL     1      24.011   1.814  51.604  1.00  0.00     0.007 C 
BRANCH  17  18
HETATM   18  C11 UNL     1      24.270   2.311  52.971  1.00  0.00     0.127 C 
BRANCH  18  19
HETATM   19  N5  UNL     1      25.628   2.773  53.152  1.00  0.00    -0.270 NA
HETATM   20  H10 UNL     1      25.958   3.098  52.204  1.00  0.00     0.134 HD
BRANCH  19  21
HETATM   21  S1  UNL     1      26.662   1.480  53.640  1.00  0.00    -0.130 SA
HETATM   22  C12 UNL     1      26.474   0.137  52.820  1.00  0.00     0.025 C 
HETATM   23  C13 UNL     1      27.111  -1.183  52.878  1.00  0.00     0.064 C 
HETATM   24  C14 UNL     1      28.535  -1.053  53.315  1.00  0.00     0.273 C 
HETATM   25  N6  UNL     1      28.586  -0.341  54.555  1.00  0.00     0.084 N 
HETATM   26  C15 UNL     1      29.233   0.949  54.433  1.00  0.00     0.280 C 
HETATM   27  H16 UNL     1      27.685  -0.296  55.061  1.00  0.00     0.315 HD
HETATM   28  C16 UNL     1      28.372   1.981  53.792  1.00  0.00     0.113 C 
ENDBRANCH  19  21
ENDBRANCH  18  19
ENDBRANCH  17  18
ENDBRANCH  13  16
TORSDOF 4
ENDMDL
MODEL 2
REMARK VINA RESULT:      -8.4      4.305      7.773
REMARK  4 active torsions:
REMARK  status: ('A' for Active; 'I' for Inactive)
REMARK    1  A    between atoms: N4_13  and  C9_14 
REMARK    2  A    between atoms: C10_15  and  C11_16 
REMARK    3  A    between atoms: C11_16  and  N5_17 
REMARK    4  A    between atoms: N5_17  and  S1_18 
ROOT
HETATM    1 CL1  UNL     1      17.509   0.185  50.512  1.00  0.00    -0.084 Cl
HETATM    2  C1  UNL     1      19.028   0.122  51.401  1.00  0.00     0.036 A 
HETATM    3  C2  UNL     1      20.194   0.573  50.780  1.00  0.00     0.024 A 
HETATM    4  C3  UNL     1      21.450   0.571  51.395  1.00  0.00     0.013 A 
HETATM    5  C4  UNL     1      21.460   0.086  52.676  1.00  0.00     0.001 A 
HETATM    6  C5  UNL     1      20.337  -0.374  53.319  1.00  0.00     0.044 A 
HETATM    7  C6  UNL     1      19.083  -0.370  52.708  1.00  0.00     0.054 A 
HETATM    8  N1  UNL     1      20.573  -1.029  54.560  1.00  0.00    -0.342 N 
HETATM    9  C7  UNL     1      22.008  -1.017  54.741  1.00  0.00     0.135 C 
HETATM   10  N2  UNL     1      22.901  -1.510  55.526  1.00  0.00    -0.224 NA
HETATM   11  C8  UNL     1      24.300  -1.305  55.401  1.00  0.00     0.257 C 
HETATM   12  N3  UNL     1      24.711  -0.584  54.411  1.00  0.00    -0.165 NA
HETATM   13  N4  UNL     1      23.798  -0.046  53.500  1.00  0.00    -0.264 N 
HETATM   14  C17 UNL     1      22.409   0.029  53.777  1.00  0.00     0.214 C 
HETATM   15  H4  UNL     1      19.931  -1.458  55.257  1.00  0.00     0.167 HD
ENDROOT
BRANCH  13  16
HETATM   16  C9  UNL     1      24.438   0.404  52.286  1.00  0.00     0.111 C 
HETATM   17  C10 UNL     1      24.873   1.644  52.371  1.00  0.00     0.007 C 
BRANCH  17  18
HETATM   18  C11 UNL     1      24.769   2.558  53.528  1.00  0.00     0.127 C 
BRANCH  18  19
HETATM   19  N5  UNL     1      24.350   3.890  53.153  1.00  0.00    -0.270 NA
HETATM   20  H10 UNL     1      23.825   4.279  53.982  1.00  0.00     0.134 HD
BRANCH  19  21
HETATM   21  S1  UNL     1      23.250   3.843  51.824  1.00  0.00    -0.130 SA
HETATM   22  C12 UNL     1      21.746   4.167  52.199  1.00  0.00     0.025 C 
HETATM   23  C13 UNL     1      20.502   4.243  51.424  1.00  0.00     0.064 C 
HETATM   24  C14 UNL     1      20.786   4.705  50.030  1.00  0.00     0.273 C 
HETATM   25  N6  UNL     1      21.773   3.851  49.442  1.00  0.00     0.084 N 
HETATM   26  C15 UNL     1      23.021   4.537  49.180  1.00  0.00     0.280 C 
HETATM   27  H16 UNL     1      21.901   2.947  49.926  1.00  0.00     0.315 HD
HETATM   28  C16 UNL     1      23.839   4.759  50.405  1.00  0.00     0.113 C 
ENDBRANCH  19  21
ENDBRANCH  18  19
ENDBRANCH  17  18
ENDBRANCH  13  16
TORSDOF 4
ENDMDL
MODEL 3
REMARK VINA RESULT:      -8.0      5.066      7.149
REMARK  4 active torsions:
REMARK  status: ('A' for Active; 'I' for Inactive)
REMARK    1  A    between atoms: N4_13  and  C9_14 
REMARK    2  A    between atoms: C10_15  and  C11_16 
REMARK    3  A    between atoms: C11_16  and  N5_17 
REMARK    4  A    between atoms: N5_17  and  S1_18 
ROOT
HETATM    1 CL1  UNL     1      15.291  -0.156  50.244  1.00  0.00    -0.084 Cl
HETATM    2  C1  UNL     1      16.885  -0.109  50.991  1.00  0.00     0.036 A 
HETATM    3  C2  UNL     1      17.941   0.481  50.294  1.00  0.00     0.024 A 
HETATM    4  C3  UNL     1      19.244   0.574  50.794  1.00  0.00     0.013 A 
HETATM    5  C4  UNL     1      19.418   0.037  52.042  1.00  0.00     0.001 A 
HETATM    6  C5  UNL     1      18.408  -0.557  52.757  1.00  0.00     0.044 A 
HETATM    7  C6  UNL     1      17.107  -0.649  52.261  1.00  0.00     0.054 A 
HETATM    8  N1  UNL     1      18.818  -1.240  53.936  1.00  0.00    -0.342 N 
HETATM    9  C7  UNL     1      20.257  -1.096  53.990  1.00  0.00     0.135 C 
HETATM   10  N2  UNL     1      21.261  -1.533  54.665  1.00  0.00    -0.224 NA
HETATM   11  C8  UNL     1      22.617  -1.187  54.428  1.00  0.00     0.257 C 
HETATM   12  N3  UNL     1      22.865  -0.386  53.445  1.00  0.00    -0.165 NA
HETATM   13  N4  UNL     1      21.825   0.099  52.647  1.00  0.00    -0.264 N 
HETATM   14  C17 UNL     1      20.467   0.026  53.050  1.00  0.00     0.214 C 
HETATM   15  H4  UNL     1      18.287  -1.759  54.664  1.00  0.00     0.167 HD
ENDROOT
BRANCH  13  16
HETATM   16  C9  UNL     1      22.304   0.662  51.407  1.00  0.00     0.111 C 
HETATM   17  C10 UNL     1      23.184   1.623  51.592  1.00  0.00     0.007 C 
BRANCH  17  18
HETATM   18  C11 UNL     1      23.693   2.144  52.878  1.00  0.00     0.127 C 
BRANCH  18  19
HETATM   19  N5  UNL     1      25.071   2.572  52.804  1.00  0.00    -0.270 NA
HETATM   20  H10 UNL     1      25.284   2.708  51.779  1.00  0.00     0.134 HD
BRANCH  19  21
HETATM   21  S1  UNL     1      26.134   1.344  53.391  1.00  0.00    -0.130 SA
HETATM   22  C12 UNL     1      26.156   0.019  52.523  1.00  0.00     0.025 C 
HETATM   23  C13 UNL     1      26.882  -1.251  52.632  1.00  0.00     0.064 C 
HETATM   24  C14 UNL     1      28.225  -1.030  53.250  1.00  0.00     0.273 C 
HETATM   25  N6  UNL     1      28.063  -0.357  54.503  1.00  0.00     0.084 N 
HETATM   26  C15 UNL     1      28.618   0.980  54.495  1.00  0.00     0.280 C 
HETATM   27  H16 UNL     1      27.105  -0.397  54.890  1.00  0.00     0.315 HD
HETATM   28  C16 UNL     1      27.766   1.966  53.773  1.00  0.00     0.113 C 
ENDBRANCH  19  21
ENDBRANCH  18  19
ENDBRANCH  17  18
ENDBRANCH  13  16
TORSDOF 4
ENDMDL
MODEL 4
REMARK VINA RESULT:      -7.9      3.111      6.251
REMARK  4 active torsions:
REMARK  status: ('A' for Active; 'I' for Inactive)
REMARK    1  A    between atoms: N4_13  and  C9_14 
REMARK    2  A    between atoms: C10_15  and  C11_16 
REMARK    3  A    between atoms: C11_16  and  N5_17 
REMARK    4  A    between atoms: N5_17  and  S1_18 
ROOT
HETATM    1 CL1  UNL     1      27.802  -0.030  54.661  1.00  0.00    -0.084 Cl
HETATM    2  C1  UNL     1      26.318   0.671  54.023  1.00  0.00     0.036 A 
HETATM    3  C2  UNL     1      26.242   2.054  53.851  1.00  0.00     0.024 A 
HETATM    4  C3  UNL     1      25.114   2.713  53.350  1.00  0.00     0.013 A 
HETATM    5  C4  UNL     1      24.066   1.891  53.031  1.00  0.00     0.001 A 
HETATM    6  C5  UNL     1      24.098   0.527  53.191  1.00  0.00     0.044 A 
HETATM    7  C6  UNL     1      25.222  -0.131  53.688  1.00  0.00     0.054 A 
HETATM    8  N1  UNL     1      22.853  -0.136  53.005  1.00  0.00    -0.342 N 
HETATM    9  C7  UNL     1      21.895   0.908  52.711  1.00  0.00     0.135 C 
HETATM   10  N2  UNL     1      20.626   1.060  52.564  1.00  0.00    -0.224 NA
HETATM   11  C8  UNL     1      19.978   2.293  52.287  1.00  0.00     0.257 C 
HETATM   12  N3  UNL     1      20.718   3.348  52.197  1.00  0.00    -0.165 NA
HETATM   13  N4  UNL     1      22.101   3.261  52.381  1.00  0.00    -0.264 N 
HETATM   14  C17 UNL     1      22.792   2.024  52.342  1.00  0.00     0.214 C 
HETATM   15  H4  UNL     1      22.581  -1.139  53.048  1.00  0.00     0.167 HD
ENDROOT
BRANCH  13  16
HETATM   16  C9  UNL     1      22.704   4.553  52.609  1.00  0.00     0.111 C 
HETATM   17  C10 UNL     1      22.977   5.191  51.490  1.00  0.00     0.007 C 
BRANCH  17  18
HETATM   18  C11 UNL     1      22.736   4.728  50.107  1.00  0.00     0.127 C 
BRANCH  18  19
HETATM   19  N5  UNL     1      23.154   5.690  49.113  1.00  0.00    -0.270 NA
HETATM   20  H10 UNL     1      22.926   5.264  48.174  1.00  0.00     0.134 HD
BRANCH  19  21
HETATM   21  S1  UNL     1      24.863   5.930  49.165  1.00  0.00    -0.130 SA
HETATM   22  C12 UNL     1      25.720   4.600  49.110  1.00  0.00     0.025 C 
HETATM   23  C13 UNL     1      27.161   4.321  49.127  1.00  0.00     0.064 C 
HETATM   24  C14 UNL     1      27.912   5.433  48.470  1.00  0.00     0.273 C 
HETATM   25  N6  UNL     1      27.565   6.673  49.095  1.00  0.00     0.084 N 
HETATM   26  C15 UNL     1      26.847   7.565  48.208  1.00  0.00     0.280 C 
HETATM   27  H16 UNL     1      27.116   6.575  50.021  1.00  0.00     0.315 HD
HETATM   28  C16 UNL     1      25.422   7.179  48.013  1.00  0.00     0.113 C 
ENDBRANCH  19  21
ENDBRANCH  18  19
ENDBRANCH  17  18
ENDBRANCH  13  16
TORSDOF 4
ENDMDL
MODEL 5
REMARK VINA RESULT:      -7.9      2.845      6.559
REMARK  4 active torsions:
REMARK  status: ('A' for Active; 'I' for Inactive)
REMARK    1  A    between atoms: N4_13  and  C9_14 
REMARK    2  A    between atoms: C10_15  and  C11_16 
REMARK    3  A    between atoms: C11_16  and  N5_17 
REMARK    4  A    between atoms: N5_17  and  S1_18 
ROOT
HETATM    1 CL1  UNL     1      30.215  -0.105  53.677  1.00  0.00    -0.084 Cl
HETATM    2  C1  UNL     1      28.527   0.310  53.393  1.00  0.00     0.036 A 
HETATM    3  C2  UNL     1      28.181   1.649  53.210  1.00  0.00     0.024 A 
HETATM    4  C3  UNL     1      26.874   2.087  52.975  1.00  0.00     0.013 A 
HETATM    5  C4  UNL     1      25.935   1.091  52.936  1.00  0.00     0.001 A 
HETATM    6  C5  UNL     1      26.233  -0.237  53.118  1.00  0.00     0.044 A 
HETATM    7  C6  UNL     1      27.536  -0.676  53.350  1.00  0.00     0.054 A 
HETATM    8  N1  UNL     1      25.109  -1.100  53.251  1.00  0.00    -0.342 N 
HETATM    9  C7  UNL     1      23.947  -0.242  53.167  1.00  0.00     0.135 C 
HETATM   10  N2  UNL     1      22.671  -0.303  53.322  1.00  0.00    -0.224 NA
HETATM   11  C8  UNL     1      21.777   0.791  53.176  1.00  0.00     0.257 C 
HETATM   12  N3  UNL     1      22.288   1.942  52.886  1.00  0.00    -0.165 NA
HETATM   13  N4  UNL     1      23.670   2.088  52.738  1.00  0.00    -0.264 N 
HETATM   14  C17 UNL     1      24.532   0.975  52.566  1.00  0.00     0.214 C 
HETATM   15  H4  UNL     1      25.028  -2.129  53.383  1.00  0.00     0.167 HD
ENDROOT
BRANCH  13  16
HETATM   16  C9  UNL     1      24.081   3.471  52.782  1.00  0.00     0.111 C 
HETATM   17  C10 UNL     1      24.214   4.001  51.584  1.00  0.00     0.007 C 
BRANCH  17  18
HETATM   18  C11 UNL     1      23.992   3.343  50.279  1.00  0.00     0.127 C 
BRANCH  18  19
HETATM   19  N5  UNL     1      24.075   4.263  49.167  1.00  0.00    -0.270 NA
HETATM   20  H10 UNL     1      24.425   3.703  48.345  1.00  0.00     0.134 HD
BRANCH  19  21
HETATM   21  S1  UNL     1      25.236   5.503  49.475  1.00  0.00    -0.130 SA
HETATM   22  C12 UNL     1      26.573   5.379  48.636  1.00  0.00     0.025 C 
HETATM   23  C13 UNL     1      27.803   6.177  48.565  1.00  0.00     0.064 C 
HETATM   24  C14 UNL     1      27.503   7.618  48.826  1.00  0.00     0.273 C 
HETATM   25  N6  UNL     1      26.816   7.739  50.076  1.00  0.00     0.084 N 
HETATM   26  C15 UNL     1      25.453   8.201  49.923  1.00  0.00     0.280 C 
HETATM   27  H16 UNL     1      26.898   6.911  50.691  1.00  0.00     0.315 HD
HETATM   28  C16 UNL     1      24.525   7.144  49.433  1.00  0.00     0.113 C 
ENDBRANCH  19  21
ENDBRANCH  18  19
ENDBRANCH  17  18
ENDBRANCH  13  16
TORSDOF 4
ENDMDL
MODEL 6
REMARK VINA RESULT:      -7.9      6.558     10.160
REMARK  4 active torsions:
REMARK  status: ('A' for Active; 'I' for Inactive)
REMARK    1  A    between atoms: N4_13  and  C9_14 
REMARK    2  A    between atoms: C10_15  and  C11_16 
REMARK    3  A    between atoms: C11_16  and  N5_17 
REMARK    4  A    between atoms: N5_17  and  S1_18 
ROOT
HETATM    1 CL1  UNL     1      32.066   0.215  46.673  1.00  0.00    -0.084 Cl
HETATM    2  C1  UNL     1      32.470   1.884  47.067  1.00  0.00     0.036 A 
HETATM    3  C2  UNL     1      31.630   2.906  46.623  1.00  0.00     0.024 A 
HETATM    4  C3  UNL     1      31.856   4.262  46.882  1.00  0.00     0.013 A 
HETATM    5  C4  UNL     1      32.980   4.525  47.617  1.00  0.00     0.001 A 
HETATM    6  C5  UNL     1      33.836   3.549  48.067  1.00  0.00     0.044 A 
HETATM    7  C6  UNL     1      33.611   2.196  47.812  1.00  0.00     0.054 A 
HETATM    8  N1  UNL     1      35.054   4.021  48.631  1.00  0.00    -0.342 N 
HETATM    9  C7  UNL     1      35.002   5.463  48.520  1.00  0.00     0.135 C 
HETATM   10  N2  UNL     1      35.761   6.487  48.696  1.00  0.00    -0.224 NA
HETATM   11  C8  UNL     1      35.381   7.835  48.462  1.00  0.00     0.257 C 
HETATM   12  N3  UNL     1      34.186   8.048  48.018  1.00  0.00    -0.165 NA
HETATM   13  N4  UNL     1      33.321   6.979  47.770  1.00  0.00    -0.264 N 
HETATM   14  C17 UNL     1      33.558   5.680  48.287  1.00  0.00     0.214 C 
HETATM   15  H4  UNL     1      35.866   3.528  49.054  1.00  0.00     0.167 HD
ENDROOT
BRANCH  13  16
HETATM   16  C9  UNL     1      32.197   7.365  46.950  1.00  0.00     0.111 C 
HETATM   17  C10 UNL     1      31.220   7.907  47.648  1.00  0.00     0.007 C 
BRANCH  17  18
HETATM   18  C11 UNL     1      31.178   8.142  49.107  1.00  0.00     0.127 C 
BRANCH  18  19
HETATM   19  N5  UNL     1      29.905   8.659  49.554  1.00  0.00    -0.270 NA
HETATM   20  H10 UNL     1      29.632   8.086  50.397  1.00  0.00     0.134 HD
BRANCH  19  21
HETATM   21  S1  UNL     1      28.685   8.422  48.356  1.00  0.00    -0.130 SA
HETATM   22  C12 UNL     1      27.527   7.428  48.780  1.00  0.00     0.025 C 
HETATM   23  C13 UNL     1      26.316   6.938  48.110  1.00  0.00     0.064 C 
HETATM   24  C14 UNL     1      25.773   7.983  47.190  1.00  0.00     0.273 C 
HETATM   25  N6  UNL     1      26.801   8.392  46.281  1.00  0.00     0.084 N 
HETATM   26  C15 UNL     1      27.206   9.768  46.479  1.00  0.00     0.280 C 
HETATM   27  H16 UNL     1      27.600   7.740  46.216  1.00  0.00     0.315 HD
HETATM   28  C16 UNL     1      28.081   9.959  47.669  1.00  0.00     0.113 C 
ENDBRANCH  19  21
ENDBRANCH  18  19
ENDBRANCH  17  18
ENDBRANCH  13  16
TORSDOF 4
ENDMDL
MODEL 7
REMARK VINA RESULT:      -7.7      5.568      8.260
REMARK  4 active torsions:
REMARK  status: ('A' for Active; 'I' for Inactive)
REMARK    1  A    between atoms: N4_13  and  C9_14 
REMARK    2  A    between atoms: C10_15  and  C11_16 
REMARK    3  A    between atoms: C11_16  and  N5_17 
REMARK    4  A    between atoms: N5_17  and  S1_18 
ROOT
HETATM    1 CL1  UNL     1      14.439  -0.619  50.563  1.00  0.00    -0.084 Cl
HETATM    2  C1  UNL     1      16.109  -0.472  51.104  1.00  0.00     0.036 A 
HETATM    3  C2  UNL     1      17.046   0.113  50.252  1.00  0.00     0.024 A 
HETATM    4  C3  UNL     1      18.395   0.282  50.582  1.00  0.00     0.013 A 
HETATM    5  C4  UNL     1      18.741  -0.175  51.826  1.00  0.00     0.001 A 
HETATM    6  C5  UNL     1      17.851  -0.762  52.691  1.00  0.00     0.044 A 
HETATM    7  C6  UNL     1      16.505  -0.929  52.364  1.00  0.00     0.054 A 
HETATM    8  N1  UNL     1      18.429  -1.359  53.845  1.00  0.00    -0.342 N 
HETATM    9  C7  UNL     1      19.856  -1.161  53.714  1.00  0.00     0.135 C 
HETATM   10  N2  UNL     1      20.953  -1.522  54.283  1.00  0.00    -0.224 NA
HETATM   11  C8  UNL     1      22.255  -1.142  53.863  1.00  0.00     0.257 C 
HETATM   12  N3  UNL     1      22.347  -0.392  52.815  1.00  0.00    -0.165 NA
HETATM   13  N4  UNL     1      21.198   0.008  52.126  1.00  0.00    -0.264 N 
HETATM   14  C17 UNL     1      19.904  -0.090  52.696  1.00  0.00     0.214 C 
HETATM   15  H4  UNL     1      18.013  -1.854  54.660  1.00  0.00     0.167 HD
ENDROOT
BRANCH  13  16
HETATM   16  C9  UNL     1      21.500   0.514  50.808  1.00  0.00     0.111 C 
HETATM   17  C10 UNL     1      21.899   1.769  50.824  1.00  0.00     0.007 C 
BRANCH  17  18
HETATM   18  C11 UNL     1      22.056   2.649  52.002  1.00  0.00     0.127 C 
BRANCH  18  19
HETATM   19  N5  UNL     1      23.395   2.625  52.545  1.00  0.00    -0.270 NA
HETATM   20  H10 UNL     1      23.323   3.005  53.527  1.00  0.00     0.134 HD
BRANCH  19  21
HETATM   21  S1  UNL     1      24.440   3.679  51.662  1.00  0.00    -0.130 SA
HETATM   22  C12 UNL     1      25.406   2.948  50.642  1.00  0.00     0.025 C 
HETATM   23  C13 UNL     1      26.434   3.418  49.706  1.00  0.00     0.064 C 
HETATM   24  C14 UNL     1      26.080   4.774  49.184  1.00  0.00     0.273 C 
HETATM   25  N6  UNL     1      25.863   5.662  50.285  1.00  0.00     0.084 N 
HETATM   26  C15 UNL     1      24.488   6.105  50.384  1.00  0.00     0.280 C 
HETATM   27  H16 UNL     1      26.248   5.330  51.186  1.00  0.00     0.315 HD
HETATM   28  C16 UNL     1      23.575   5.070  50.945  1.00  0.00     0.113 C 
ENDBRANCH  19  21
ENDBRANCH  18  19
ENDBRANCH  17  18
ENDBRANCH  13  16
TORSDOF 4
ENDMDL
MODEL 8
REMARK VINA RESULT:      -7.7      3.416      5.175
REMARK  4 active torsions:
REMARK  status: ('A' for Active; 'I' for Inactive)
REMARK    1  A    between atoms: N4_13  and  C9_14 
REMARK    2  A    between atoms: C10_15  and  C11_16 
REMARK    3  A    between atoms: C11_16  and  N5_17 
REMARK    4  A    between atoms: N5_17  and  S1_18 
ROOT
HETATM    1 CL1  UNL     1      20.320  -0.997  53.851  1.00  0.00    -0.084 Cl
HETATM    2  C1  UNL     1      21.019   0.108  52.671  1.00  0.00     0.036 A 
HETATM    3  C2  UNL     1      21.807   1.168  53.121  1.00  0.00     0.024 A 
HETATM    4  C3  UNL     1      22.412   2.100  52.272  1.00  0.00     0.013 A 
HETATM    5  C4  UNL     1      22.173   1.898  50.938  1.00  0.00     0.001 A 
HETATM    6  C5  UNL     1      21.399   0.872  50.455  1.00  0.00     0.044 A 
HETATM    7  C6  UNL     1      20.797  -0.060  51.301  1.00  0.00     0.054 A 
HETATM    8  N1  UNL     1      21.093   0.942  49.067  1.00  0.00    -0.342 N 
HETATM    9  C7  UNL     1      21.718   2.157  48.592  1.00  0.00     0.135 C 
HETATM   10  N2  UNL     1      21.758   2.890  47.534  1.00  0.00    -0.224 NA
HETATM   11  C8  UNL     1      22.496   4.096  47.403  1.00  0.00     0.257 C 
HETATM   12  N3  UNL     1      23.163   4.501  48.434  1.00  0.00    -0.165 NA
HETATM   13  N4  UNL     1      23.135   3.773  49.626  1.00  0.00    -0.264 N 
HETATM   14  C17 UNL     1      22.677   2.432  49.682  1.00  0.00     0.214 C 
HETATM   15  H4  UNL     1      20.551   0.317  48.438  1.00  0.00     0.167 HD
ENDROOT
BRANCH  13  16
HETATM   16  C9  UNL     1      23.618   4.543  50.748  1.00  0.00     0.111 C 
HETATM   17  C10 UNL     1      24.894   4.335  50.996  1.00  0.00     0.007 C 
BRANCH  17  18
HETATM   18  C11 UNL     1      25.818   3.437  50.271  1.00  0.00     0.127 C 
BRANCH  18  19
HETATM   19  N5  UNL     1      27.059   3.220  50.980  1.00  0.00    -0.270 NA
HETATM   20  H10 UNL     1      27.697   2.711  50.311  1.00  0.00     0.134 HD
BRANCH  19  21
HETATM   21  S1  UNL     1      26.820   2.188  52.344  1.00  0.00    -0.130 SA
HETATM   22  C12 UNL     1      25.838   0.971  52.089  1.00  0.00     0.025 C 
HETATM   23  C13 UNL     1      25.351  -0.131  52.926  1.00  0.00     0.064 C 
HETATM   24  C14 UNL     1      26.392  -0.522  53.926  1.00  0.00     0.273 C 
HETATM   25  N6  UNL     1      26.785   0.632  54.675  1.00  0.00     0.084 N 
HETATM   26  C15 UNL     1      28.160   1.016  54.431  1.00  0.00     0.280 C 
HETATM   27  H16 UNL     1      26.126   1.427  54.616  1.00  0.00     0.315 HD
HETATM   28  C16 UNL     1      28.354   1.707  53.125  1.00  0.00     0.113 C 
ENDBRANCH  19  21
ENDBRANCH  18  19
ENDBRANCH  17  18
ENDBRANCH  13  16
TORSDOF 4
ENDMDL
MODEL 9
REMARK VINA RESULT:      -7.6      4.172      7.584
REMARK  4 active torsions:
REMARK  status: ('A' for Active; 'I' for Inactive)
REMARK    1  A    between atoms: N4_13  and  C9_14 
REMARK    2  A    between atoms: C10_15  and  C11_16 
REMARK    3  A    between atoms: C11_16  and  N5_17 
REMARK    4  A    between atoms: N5_17  and  S1_18 
ROOT
HETATM    1 CL1  UNL     1      17.763  -1.511  53.397  1.00  0.00    -0.084 Cl
HETATM    2  C1  UNL     1      19.307  -0.721  53.088  1.00  0.00     0.036 A 
HETATM    3  C2  UNL     1      19.391   0.220  52.061  1.00  0.00     0.024 A 
HETATM    4  C3  UNL     1      20.565   0.907  51.733  1.00  0.00     0.013 A 
HETATM    5  C4  UNL     1      21.650   0.587  52.506  1.00  0.00     0.001 A 
HETATM    6  C5  UNL     1      21.610  -0.337  53.520  1.00  0.00     0.044 A 
HETATM    7  C6  UNL     1      20.440  -1.021  53.850  1.00  0.00     0.054 A 
HETATM    8  N1  UNL     1      22.873  -0.689  54.072  1.00  0.00    -0.342 N 
HETATM    9  C7  UNL     1      23.851   0.071  53.324  1.00  0.00     0.135 C 
HETATM   10  N2  UNL     1      25.128   0.164  53.191  1.00  0.00    -0.224 NA
HETATM   11  C8  UNL     1      25.794   1.050  52.304  1.00  0.00     0.257 C 
HETATM   12  N3  UNL     1      25.061   1.808  51.557  1.00  0.00    -0.165 NA
HETATM   13  N4  UNL     1      23.667   1.734  51.624  1.00  0.00    -0.264 N 
HETATM   14  C17 UNL     1      22.995   1.104  52.702  1.00  0.00     0.214 C 
HETATM   15  H4  UNL     1      23.146  -1.337  54.839  1.00  0.00     0.167 HD
ENDROOT
BRANCH  13  16
HETATM   16  C9  UNL     1      23.032   2.363  50.491  1.00  0.00     0.111 C 
HETATM   17  C10 UNL     1      22.764   3.635  50.699  1.00  0.00     0.007 C 
BRANCH  17  18
HETATM   18  C11 UNL     1      23.040   4.427  51.916  1.00  0.00     0.127 C 
BRANCH  18  19
HETATM   19  N5  UNL     1      23.052   5.850  51.668  1.00  0.00    -0.270 NA
HETATM   20  H10 UNL     1      22.294   6.033  50.957  1.00  0.00     0.134 HD
BRANCH  19  21
HETATM   21  S1  UNL     1      24.549   6.343  50.962  1.00  0.00    -0.130 SA
HETATM   22  C12 UNL     1      25.223   5.262  50.021  1.00  0.00     0.025 C 
HETATM   23  C13 UNL     1      26.459   5.236  49.230  1.00  0.00     0.064 C 
HETATM   24  C14 UNL     1      26.790   6.609  48.740  1.00  0.00     0.273 C 
HETATM   25  N6  UNL     1      26.844   7.508  49.853  1.00  0.00     0.084 N 
HETATM   26  C15 UNL     1      25.793   8.504  49.819  1.00  0.00     0.280 C 
HETATM   27  H16 UNL     1      26.935   7.046  50.773  1.00  0.00     0.315 HD
HETATM   28  C16 UNL     1      24.463   7.969  50.222  1.00  0.00     0.113 C 
ENDBRANCH  19  21
ENDBRANCH  18  19
ENDBRANCH  17  18
ENDBRANCH  13  16
TORSDOF 4
ENDMDL
