MODEL 1
REMARK VINA RESULT:      -7.9      0.000      0.000
REMARK  5 active torsions:
REMARK  status: ('A' for Active; 'I' for Inactive)
REMARK       I    between atoms: N2_5  and  C4_6 
REMARK    1  A    between atoms: C4_6  and  C5_8 
REMARK    2  A    between atoms: C6_9  and  C7_10 
REMARK    3  A    between atoms: C7_10  and  N3_11 
REMARK    4  A    between atoms: C10_14  and  N4_15 
REMARK    5  A    between atoms: N4_15  and  C11_16 
ROOT
HETATM    1  C1  UNL     1      26.761   2.170  51.683  1.00  0.00     0.179 C 
HETATM    2  N1  UNL     1      25.434   2.355  51.148  1.00  0.00    -0.278 NA
HETATM    3  C2  UNL     1      24.488   1.581  51.619  1.00  0.00     0.138 C 
HETATM    4  C3  UNL     1      23.146   1.811  51.040  1.00  0.00     0.214 C 
HETATM    5  N2  UNL     1      22.076   1.800  52.018  1.00  0.00    -0.292 N 
HETATM    6  C4  UNL     1      21.141   2.852  52.214  1.00  0.00     0.249 C 
HETATM    7  O1  UNL     1      20.152   3.198  52.905  1.00  0.00    -0.268 OA
HETATM    8  C10 UNL     1      21.823   0.709  52.932  1.00  0.00     0.133 C 
HETATM    9  C17 UNL     1      22.714  -0.095  53.533  1.00  0.00     0.106 C 
HETATM   10  C18 UNL     1      22.240  -1.131  54.418  1.00  0.00     0.104 C 
HETATM   11  N5  UNL     1      21.882  -1.952  55.128  1.00  0.00    -0.191 NA
HETATM   12  C19 UNL     1      24.191  -0.099  53.436  1.00  0.00     0.145 C 
HETATM   13  N6  UNL     1      24.856   0.633  52.608  1.00  0.00    -0.243 NA
ENDROOT
BRANCH   8  14
HETATM   14  N4  UNL     1      20.479   0.426  53.249  1.00  0.00    -0.341 N 
HETATM   15  H16 UNL     1      20.069   0.762  54.151  1.00  0.00     0.167 HD
BRANCH  14  16
HETATM   16  C11 UNL     1      19.301  -0.175  52.840  1.00  0.00     0.034 A 
HETATM   17  C12 UNL     1      18.700  -1.197  53.588  1.00  0.00     0.029 A 
HETATM   18  C13 UNL     1      17.507  -1.828  53.216  1.00  0.00     0.004 A 
HETATM   19  C14 UNL     1      16.978  -1.357  52.052  1.00  0.00     0.019 A 
HETATM   20  C15 UNL     1      17.469  -0.366  51.233  1.00  0.00     0.013 A 
HETATM   21 BR1  UNL     1      16.592   0.170  49.630  1.00  0.00    -0.051 Br
HETATM   22  C16 UNL     1      18.664   0.228  51.657  1.00  0.00     0.048 A 
ENDBRANCH  14  16
ENDBRANCH   8  14
BRANCH   6  23
HETATM   23  C5  UNL     1      21.013   4.126  51.531  1.00  0.00     0.072 C 
HETATM   24  C6  UNL     1      21.874   5.096  51.349  1.00  0.00     0.008 C 
BRANCH  24  25
HETATM   25  C7  UNL     1      23.217   5.614  51.563  1.00  0.00     0.299 C 
BRANCH  25  26
HETATM   26  N3  UNL     1      23.768   6.351  50.439  1.00  0.00     0.083 N 
HETATM   27  C8  UNL     1      25.142   5.956  50.209  1.00  0.00     0.309 C 
HETATM   28  C9  UNL     1      23.821   7.778  50.797  1.00  0.00     0.309 C 
ENDBRANCH  25  26
ENDBRANCH  24  25
ENDBRANCH   6  23
TORSDOF 5
ENDMDL
MODEL 2
REMARK VINA RESULT:      -7.7      2.072      2.898
REMARK  5 active torsions:
REMARK  status: ('A' for Active; 'I' for Inactive)
REMARK       I    between atoms: N2_5  and  C4_6 
REMARK    1  A    between atoms: C4_6  and  C5_8 
REMARK    2  A    between atoms: C6_9  and  C7_10 
REMARK    3  A    between atoms: C7_10  and  N3_11 
REMARK    4  A    between atoms: C10_14  and  N4_15 
REMARK    5  A    between atoms: N4_15  and  C11_16 
ROOT
HETATM    1  C1  UNL     1      28.662   0.026  53.853  1.00  0.00     0.179 C 
HETATM    2  N1  UNL     1      27.771   0.618  52.885  1.00  0.00    -0.278 NA
HETATM    3  C2  UNL     1      26.505   0.290  52.960  1.00  0.00     0.138 C 
HETATM    4  C3  UNL     1      25.634   0.923  51.947  1.00  0.00     0.214 C 
HETATM    5  N2  UNL     1      24.371   1.401  52.476  1.00  0.00    -0.292 N 
HETATM    6  C4  UNL     1      23.890   2.733  52.358  1.00  0.00     0.249 C 
HETATM    7  O1  UNL     1      22.929   3.482  52.659  1.00  0.00    -0.268 OA
HETATM    8  C10 UNL     1      23.432   0.577  53.203  1.00  0.00     0.133 C 
HETATM    9  C17 UNL     1      23.693  -0.425  54.057  1.00  0.00     0.106 C 
HETATM   10  C18 UNL     1      22.594  -1.122  54.678  1.00  0.00     0.104 C 
HETATM   11  N5  UNL     1      21.735  -1.679  55.186  1.00  0.00    -0.191 NA
HETATM   12  C19 UNL     1      24.997  -0.969  54.495  1.00  0.00     0.145 C 
HETATM   13  N6  UNL     1      26.128  -0.617  53.984  1.00  0.00    -0.243 NA
ENDROOT
BRANCH   8  14
HETATM   14  N4  UNL     1      22.058   0.831  53.008  1.00  0.00    -0.341 N 
HETATM   15  H16 UNL     1      21.525   1.402  53.703  1.00  0.00     0.167 HD
BRANCH  14  16
HETATM   16  C11 UNL     1      20.956   0.638  52.193  1.00  0.00     0.034 A 
HETATM   17  C12 UNL     1      20.973   1.000  50.838  1.00  0.00     0.029 A 
HETATM   18  C13 UNL     1      19.885   0.818  49.976  1.00  0.00     0.004 A 
HETATM   19  C14 UNL     1      18.799   0.255  50.576  1.00  0.00     0.019 A 
HETATM   20  C15 UNL     1      18.660  -0.141  51.887  1.00  0.00     0.013 A 
HETATM   21 BR1  UNL     1      17.056  -0.916  52.560  1.00  0.00    -0.051 Br
HETATM   22  C16 UNL     1      19.781   0.066  52.699  1.00  0.00     0.048 A 
ENDBRANCH  14  16
ENDBRANCH   8  14
BRANCH   6  23
HETATM   23  C5  UNL     1      24.490   3.888  51.716  1.00  0.00     0.072 C 
HETATM   24  C6  UNL     1      24.369   4.357  50.499  1.00  0.00     0.008 C 
BRANCH  24  25
HETATM   25  C7  UNL     1      23.772   4.230  49.178  1.00  0.00     0.299 C 
BRANCH  25  26
HETATM   26  N3  UNL     1      22.581   3.398  49.130  1.00  0.00     0.083 N 
HETATM   27  C8  UNL     1      22.662   2.476  48.015  1.00  0.00     0.309 C 
HETATM   28  C9  UNL     1      21.422   4.261  48.846  1.00  0.00     0.309 C 
ENDBRANCH  25  26
ENDBRANCH  24  25
ENDBRANCH   6  23
TORSDOF 5
ENDMDL
MODEL 3
REMARK VINA RESULT:      -7.5      2.018      3.077
REMARK  5 active torsions:
REMARK  status: ('A' for Active; 'I' for Inactive)
REMARK       I    between atoms: N2_5  and  C4_6 
REMARK    1  A    between atoms: C4_6  and  C5_8 
REMARK    2  A    between atoms: C6_9  and  C7_10 
REMARK    3  A    between atoms: C7_10  and  N3_11 
REMARK    4  A    between atoms: C10_14  and  N4_15 
REMARK    5  A    between atoms: N4_15  and  C11_16 
ROOT
HETATM    1  C1  UNL     1      27.742   4.736  48.870  1.00  0.00     0.179 C 
HETATM    2  N1  UNL     1      26.311   4.563  48.943  1.00  0.00    -0.278 NA
HETATM    3  C2  UNL     1      25.862   3.665  49.784  1.00  0.00     0.138 C 
HETATM    4  C3  UNL     1      24.389   3.526  49.822  1.00  0.00     0.214 C 
HETATM    5  N2  UNL     1      23.847   3.402  51.161  1.00  0.00    -0.292 N 
HETATM    6  C4  UNL     1      22.842   4.243  51.714  1.00  0.00     0.249 C 
HETATM    7  O1  UNL     1      22.166   4.446  52.752  1.00  0.00    -0.268 OA
HETATM    8  C10 UNL     1      24.265   2.402  52.117  1.00  0.00     0.133 C 
HETATM    9  C17 UNL     1      25.492   1.889  52.300  1.00  0.00     0.106 C 
HETATM   10  C18 UNL     1      25.689   0.890  53.322  1.00  0.00     0.104 C 
HETATM   11  N5  UNL     1      25.866   0.103  54.131  1.00  0.00    -0.191 NA
HETATM   12  C19 UNL     1      26.752   2.193  51.588  1.00  0.00     0.145 C 
HETATM   13  N6  UNL     1      26.821   2.946  50.543  1.00  0.00    -0.243 NA
ENDROOT
BRANCH   8  14
HETATM   14  N4  UNL     1      23.280   1.874  52.978  1.00  0.00    -0.341 N 
HETATM   15  H16 UNL     1      23.194   2.230  53.958  1.00  0.00     0.167 HD
BRANCH  14  16
HETATM   16  C11 UNL     1      22.234   0.979  53.119  1.00  0.00     0.034 A 
HETATM   17  C12 UNL     1      22.256  -0.026  54.095  1.00  0.00     0.029 A 
HETATM   18  C13 UNL     1      21.218  -0.949  54.279  1.00  0.00     0.004 A 
HETATM   19  C14 UNL     1      20.177  -0.780  53.416  1.00  0.00     0.019 A 
HETATM   20  C15 UNL     1      20.039   0.162  52.422  1.00  0.00     0.013 A 
HETATM   21 BR1  UNL     1      18.503   0.252  51.300  1.00  0.00    -0.051 Br
HETATM   22  C16 UNL     1      21.108   1.055  52.287  1.00  0.00     0.048 A 
ENDBRANCH  14  16
ENDBRANCH   8  14
BRANCH   6  23
HETATM   23  C5  UNL     1      22.137   5.366  51.125  1.00  0.00     0.072 C 
HETATM   24  C6  UNL     1      22.538   6.579  50.837  1.00  0.00     0.008 C 
BRANCH  24  25
HETATM   25  C7  UNL     1      23.617   7.556  50.829  1.00  0.00     0.299 C 
BRANCH  25  26
HETATM   26  N3  UNL     1      24.689   7.266  49.893  1.00  0.00     0.083 N 
HETATM   27  C8  UNL     1      25.793   8.181  50.101  1.00  0.00     0.309 C 
HETATM   28  C9  UNL     1      24.204   7.536  48.529  1.00  0.00     0.309 C 
ENDBRANCH  25  26
ENDBRANCH  24  25
ENDBRANCH   6  23
TORSDOF 5
ENDMDL
MODEL 4
REMARK VINA RESULT:      -7.5      2.272      3.820
REMARK  5 active torsions:
REMARK  status: ('A' for Active; 'I' for Inactive)
REMARK       I    between atoms: N2_5  and  C4_6 
REMARK    1  A    between atoms: C4_6  and  C5_8 
REMARK    2  A    between atoms: C6_9  and  C7_10 
REMARK    3  A    between atoms: C7_10  and  N3_11 
REMARK    4  A    between atoms: C10_14  and  N4_15 
REMARK    5  A    between atoms: N4_15  and  C11_16 
ROOT
HETATM    1  C1  UNL     1      27.542   4.737  48.867  1.00  0.00     0.179 C 
HETATM    2  N1  UNL     1      26.136   4.421  48.939  1.00  0.00    -0.278 NA
HETATM    3  C2  UNL     1      25.767   3.546  49.841  1.00  0.00     0.138 C 
HETATM    4  C3  UNL     1      24.316   3.256  49.874  1.00  0.00     0.214 C 
HETATM    5  N2  UNL     1      23.766   3.176  51.213  1.00  0.00    -0.292 N 
HETATM    6  C4  UNL     1      22.669   3.945  51.690  1.00  0.00     0.249 C 
HETATM    7  O1  UNL     1      21.957   4.153  52.702  1.00  0.00    -0.268 OA
HETATM    8  C10 UNL     1      24.268   2.299  52.246  1.00  0.00     0.133 C 
HETATM    9  C17 UNL     1      25.538   1.933  52.480  1.00  0.00     0.106 C 
HETATM   10  C18 UNL     1      25.820   1.039  53.577  1.00  0.00     0.104 C 
HETATM   11  N5  UNL     1      26.062   0.338  54.446  1.00  0.00    -0.191 NA
HETATM   12  C19 UNL     1      26.773   2.314  51.760  1.00  0.00     0.145 C 
HETATM   13  N6  UNL     1      26.782   2.990  50.662  1.00  0.00    -0.243 NA
ENDROOT
BRANCH   8  14
HETATM   14  N4  UNL     1      23.328   1.736  53.135  1.00  0.00    -0.341 N 
HETATM   15  H16 UNL     1      23.155   2.180  54.066  1.00  0.00     0.167 HD
BRANCH  14  16
HETATM   16  C11 UNL     1      22.406   0.726  53.348  1.00  0.00     0.034 A 
HETATM   17  C12 UNL     1      22.700  -0.375  54.163  1.00  0.00     0.029 A 
HETATM   18  C13 UNL     1      21.797  -1.416  54.412  1.00  0.00     0.004 A 
HETATM   19  C14 UNL     1      20.597  -1.261  53.785  1.00  0.00     0.019 A 
HETATM   20  C15 UNL     1      20.191  -0.233  52.965  1.00  0.00     0.013 A 
HETATM   21 BR1  UNL     1      18.463  -0.179  52.166  1.00  0.00    -0.051 Br
HETATM   22  C16 UNL     1      21.137   0.777  52.754  1.00  0.00     0.048 A 
ENDBRANCH  14  16
ENDBRANCH   8  14
BRANCH   6  23
HETATM   23  C5  UNL     1      21.862   4.941  51.010  1.00  0.00     0.072 C 
HETATM   24  C6  UNL     1      20.959   4.822  50.069  1.00  0.00     0.008 C 
BRANCH  24  25
HETATM   25  C7  UNL     1      20.210   3.950  49.177  1.00  0.00     0.299 C 
BRANCH  25  26
HETATM   26  N3  UNL     1      19.998   2.604  49.683  1.00  0.00     0.083 N 
HETATM   27  C8  UNL     1      20.909   1.680  49.039  1.00  0.00     0.309 C 
HETATM   28  C9  UNL     1      18.648   2.166  49.292  1.00  0.00     0.309 C 
ENDBRANCH  25  26
ENDBRANCH  24  25
ENDBRANCH   6  23
TORSDOF 5
ENDMDL
MODEL 5
REMARK VINA RESULT:      -7.3      1.874      2.570
REMARK  5 active torsions:
REMARK  status: ('A' for Active; 'I' for Inactive)
REMARK       I    between atoms: N2_5  and  C4_6 
REMARK    1  A    between atoms: C4_6  and  C5_8 
REMARK    2  A    between atoms: C6_9  and  C7_10 
REMARK    3  A    between atoms: C7_10  and  N3_11 
REMARK    4  A    between atoms: C10_14  and  N4_15 
REMARK    5  A    between atoms: N4_15  and  C11_16 
ROOT
HETATM    1  C1  UNL     1      26.569   2.638  51.406  1.00  0.00     0.179 C 
HETATM    2  N1  UNL     1      25.211   2.691  50.922  1.00  0.00    -0.278 NA
HETATM    3  C2  UNL     1      24.355   1.857  51.457  1.00  0.00     0.138 C 
HETATM    4  C3  UNL     1      22.976   1.950  50.929  1.00  0.00     0.214 C 
HETATM    5  N2  UNL     1      21.950   1.882  51.952  1.00  0.00    -0.292 N 
HETATM    6  C4  UNL     1      20.936   2.858  52.153  1.00  0.00     0.249 C 
HETATM    7  O1  UNL     1      19.948   3.142  52.873  1.00  0.00    -0.268 OA
HETATM    8  C10 UNL     1      21.829   0.808  52.910  1.00  0.00     0.133 C 
HETATM    9  C17 UNL     1      22.809   0.105  53.499  1.00  0.00     0.106 C 
HETATM   10  C18 UNL     1      22.462  -0.935  54.436  1.00  0.00     0.104 C 
HETATM   11  N5  UNL     1      22.205  -1.758  55.186  1.00  0.00    -0.191 NA
HETATM   12  C19 UNL     1      24.276   0.223  53.339  1.00  0.00     0.145 C 
HETATM   13  N6  UNL     1      24.841   0.979  52.461  1.00  0.00    -0.243 NA
ENDROOT
BRANCH   8  14
HETATM   14  N4  UNL     1      20.528   0.423  53.293  1.00  0.00    -0.341 N 
HETATM   15  H16 UNL     1      20.169   0.658  54.247  1.00  0.00     0.167 HD
BRANCH  14  16
HETATM   16  C11 UNL     1      19.355  -0.208  52.915  1.00  0.00     0.034 A 
HETATM   17  C12 UNL     1      18.784  -1.223  53.695  1.00  0.00     0.029 A 
HETATM   18  C13 UNL     1      17.597  -1.884  53.354  1.00  0.00     0.004 A 
HETATM   19  C14 UNL     1      17.043  -1.449  52.187  1.00  0.00     0.019 A 
HETATM   20  C15 UNL     1      17.505  -0.469  51.339  1.00  0.00     0.013 A 
HETATM   21 BR1  UNL     1      16.596   0.013  49.736  1.00  0.00    -0.051 Br
HETATM   22  C16 UNL     1      18.695   0.155  51.732  1.00  0.00     0.048 A 
ENDBRANCH  14  16
ENDBRANCH   8  14
BRANCH   6  23
HETATM   23  C5  UNL     1      20.671   4.091  51.435  1.00  0.00     0.072 C 
HETATM   24  C6  UNL     1      19.873   4.348  50.429  1.00  0.00     0.008 C 
BRANCH  24  25
HETATM   25  C7  UNL     1      18.896   3.856  49.468  1.00  0.00     0.299 C 
BRANCH  25  26
HETATM   26  N3  UNL     1      17.933   4.849  49.024  1.00  0.00     0.083 N 
HETATM   27  C8  UNL     1      17.156   4.328  47.918  1.00  0.00     0.309 C 
HETATM   28  C9  UNL     1      18.668   6.004  48.482  1.00  0.00     0.309 C 
ENDBRANCH  25  26
ENDBRANCH  24  25
ENDBRANCH   6  23
TORSDOF 5
ENDMDL
MODEL 6
REMARK VINA RESULT:      -7.2      3.859      6.169
REMARK  5 active torsions:
REMARK  status: ('A' for Active; 'I' for Inactive)
REMARK       I    between atoms: N2_5  and  C4_6 
REMARK    1  A    between atoms: C4_6  and  C5_8 
REMARK    2  A    between atoms: C6_9  and  C7_10 
REMARK    3  A    between atoms: C7_10  and  N3_11 
REMARK    4  A    between atoms: C10_14  and  N4_15 
REMARK    5  A    between atoms: N4_15  and  C11_16 
ROOT
HETATM    1  C1  UNL     1      21.164   7.683  50.322  1.00  0.00     0.179 C 
HETATM    2  N1  UNL     1      22.499   7.235  50.632  1.00  0.00    -0.278 NA
HETATM    3  C2  UNL     1      22.622   6.036  51.146  1.00  0.00     0.138 C 
HETATM    4  C3  UNL     1      24.011   5.623  51.445  1.00  0.00     0.214 C 
HETATM    5  N2  UNL     1      24.310   4.255  51.067  1.00  0.00    -0.292 N 
HETATM    6  C4  UNL     1      25.373   3.861  50.210  1.00  0.00     0.249 C 
HETATM    7  O1  UNL     1      25.914   2.860  49.680  1.00  0.00    -0.268 OA
HETATM    8  C10 UNL     1      23.555   3.107  51.514  1.00  0.00     0.133 C 
HETATM    9  C17 UNL     1      22.236   3.017  51.740  1.00  0.00     0.106 C 
HETATM   10  C18 UNL     1      21.684   1.760  52.187  1.00  0.00     0.104 C 
HETATM   11  N5  UNL     1      21.230   0.771  52.534  1.00  0.00    -0.191 NA
HETATM   12  C19 UNL     1      21.186   4.050  51.602  1.00  0.00     0.145 C 
HETATM   13  N6  UNL     1      21.432   5.291  51.353  1.00  0.00    -0.243 NA
ENDROOT
BRANCH   8  14
HETATM   14  N4  UNL     1      24.269   1.915  51.756  1.00  0.00    -0.341 N 
HETATM   15  H16 UNL     1      24.291   1.159  51.033  1.00  0.00     0.167 HD
BRANCH  14  16
HETATM   16  C11 UNL     1      25.064   1.208  52.641  1.00  0.00     0.034 A 
HETATM   17  C12 UNL     1      24.573   0.099  53.343  1.00  0.00     0.029 A 
HETATM   18  C13 UNL     1      25.342  -0.649  54.243  1.00  0.00     0.004 A 
HETATM   19  C14 UNL     1      26.621  -0.198  54.377  1.00  0.00     0.019 A 
HETATM   20  C15 UNL     1      27.217   0.872  53.748  1.00  0.00     0.013 A 
HETATM   21 BR1  UNL     1      29.030   1.364  54.058  1.00  0.00    -0.051 Br
HETATM   22  C16 UNL     1      26.398   1.580  52.861  1.00  0.00     0.048 A 
ENDBRANCH  14  16
ENDBRANCH   8  14
BRANCH   6  23
HETATM   23  C5  UNL     1      26.376   4.665  49.536  1.00  0.00     0.072 C 
HETATM   24  C6  UNL     1      26.270   5.772  48.844  1.00  0.00     0.008 C 
BRANCH  24  25
HETATM   25  C7  UNL     1      25.413   6.819  48.310  1.00  0.00     0.299 C 
BRANCH  25  26
HETATM   26  N3  UNL     1      25.853   8.172  48.608  1.00  0.00     0.083 N 
HETATM   27  C8  UNL     1      26.233   8.277  50.001  1.00  0.00     0.309 C 
HETATM   28  C9  UNL     1      24.707   9.082  48.441  1.00  0.00     0.309 C 
ENDBRANCH  25  26
ENDBRANCH  24  25
ENDBRANCH   6  23
TORSDOF 5
ENDMDL
MODEL 7
REMARK VINA RESULT:      -7.0      3.393      6.033
REMARK  5 active torsions:
REMARK  status: ('A' for Active; 'I' for Inactive)
REMARK       I    between atoms: N2_5  and  C4_6 
REMARK    1  A    between atoms: C4_6  and  C5_8 
REMARK    2  A    between atoms: C6_9  and  C7_10 
REMARK    3  A    between atoms: C7_10  and  N3_11 
REMARK    4  A    between atoms: C10_14  and  N4_15 
REMARK    5  A    between atoms: N4_15  and  C11_16 
ROOT
HETATM    1  C1  UNL     1      18.103   3.908  51.385  1.00  0.00     0.179 C 
HETATM    2  N1  UNL     1      19.480   4.329  51.304  1.00  0.00    -0.278 NA
HETATM    3  C2  UNL     1      20.387   3.492  51.742  1.00  0.00     0.138 C 
HETATM    4  C3  UNL     1      21.783   3.971  51.637  1.00  0.00     0.214 C 
HETATM    5  N2  UNL     1      22.714   2.963  51.167  1.00  0.00    -0.292 N 
HETATM    6  C4  UNL     1      23.570   3.107  50.042  1.00  0.00     0.249 C 
HETATM    7  O1  UNL     1      24.444   2.512  49.365  1.00  0.00    -0.268 OA
HETATM    8  C10 UNL     1      22.888   1.668  51.785  1.00  0.00     0.133 C 
HETATM    9  C17 UNL     1      21.960   0.893  52.367  1.00  0.00     0.106 C 
HETATM   10  C18 UNL     1      22.356  -0.376  52.926  1.00  0.00     0.104 C 
HETATM   11  N5  UNL     1      22.651  -1.388  53.368  1.00  0.00    -0.191 NA
HETATM   12  C19 UNL     1      20.511   1.135  52.543  1.00  0.00     0.145 C 
HETATM   13  N6  UNL     1      19.932   2.251  52.257  1.00  0.00    -0.243 NA
ENDROOT
BRANCH   8  14
HETATM   14  N4  UNL     1      24.190   1.125  51.798  1.00  0.00    -0.341 N 
HETATM   15  H16 UNL     1      24.466   0.405  51.092  1.00  0.00     0.167 HD
BRANCH  14  16
HETATM   16  C11 UNL     1      25.432   1.126  52.409  1.00  0.00     0.034 A 
HETATM   17  C12 UNL     1      25.954   2.282  53.007  1.00  0.00     0.029 A 
HETATM   18  C13 UNL     1      27.202   2.327  53.641  1.00  0.00     0.004 A 
HETATM   19  C14 UNL     1      27.869   1.139  53.625  1.00  0.00     0.019 A 
HETATM   20  C15 UNL     1      27.465  -0.056  53.074  1.00  0.00     0.013 A 
HETATM   21 BR1  UNL     1      28.534  -1.631  53.143  1.00  0.00    -0.051 Br
HETATM   22  C16 UNL     1      26.210  -0.039  52.454  1.00  0.00     0.048 A 
ENDBRANCH  14  16
ENDBRANCH   8  14
BRANCH   6  23
HETATM   23  C5  UNL     1      23.734   4.225  49.131  1.00  0.00     0.072 C 
HETATM   24  C6  UNL     1      24.576   5.228  49.141  1.00  0.00     0.008 C 
BRANCH  24  25
HETATM   25  C7  UNL     1      25.687   5.903  49.794  1.00  0.00     0.299 C 
BRANCH  25  26
HETATM   26  N3  UNL     1      26.212   7.046  49.067  1.00  0.00     0.083 N 
HETATM   27  C8  UNL     1      26.465   8.143  49.978  1.00  0.00     0.309 C 
HETATM   28  C9  UNL     1      25.172   7.531  48.144  1.00  0.00     0.309 C 
ENDBRANCH  25  26
ENDBRANCH  24  25
ENDBRANCH   6  23
TORSDOF 5
ENDMDL
MODEL 8
REMARK VINA RESULT:      -6.9      8.189     13.298
REMARK  5 active torsions:
REMARK  status: ('A' for Active; 'I' for Inactive)
REMARK       I    between atoms: N2_5  and  C4_6 
REMARK    1  A    between atoms: C4_6  and  C5_8 
REMARK    2  A    between atoms: C6_9  and  C7_10 
REMARK    3  A    between atoms: C7_10  and  N3_11 
REMARK    4  A    between atoms: C10_14  and  N4_15 
REMARK    5  A    between atoms: N4_15  and  C11_16 
ROOT
HETATM    1  C1  UNL     1      26.344   4.037  49.468  1.00  0.00     0.179 C 
HETATM    2  N1  UNL     1      27.612   4.350  48.854  1.00  0.00    -0.278 NA
HETATM    3  C2  UNL     1      27.860   5.611  48.606  1.00  0.00     0.138 C 
HETATM    4  C3  UNL     1      29.172   5.880  47.978  1.00  0.00     0.214 C 
HETATM    5  N2  UNL     1      29.864   7.027  48.532  1.00  0.00    -0.292 N 
HETATM    6  C4  UNL     1      31.180   7.003  49.069  1.00  0.00     0.249 C 
HETATM    7  O1  UNL     1      32.057   7.723  49.605  1.00  0.00    -0.268 OA
HETATM    8  C10 UNL     1      29.297   8.354  48.617  1.00  0.00     0.133 C 
HETATM    9  C17 UNL     1      28.022   8.699  48.851  1.00  0.00     0.106 C 
HETATM   10  C18 UNL     1      27.670  10.098  48.895  1.00  0.00     0.104 C 
HETATM   11  N5  UNL     1      27.376  11.201  48.940  1.00  0.00    -0.191 NA
HETATM   12  C19 UNL     1      26.843   7.837  49.086  1.00  0.00     0.145 C 
HETATM   13  N6  UNL     1      26.859   6.553  48.963  1.00  0.00    -0.243 NA
ENDROOT
BRANCH   8  14
HETATM   14  N4  UNL     1      30.170   9.446  48.429  1.00  0.00    -0.341 N 
HETATM   15  H16 UNL     1      30.539   9.971  49.255  1.00  0.00     0.167 HD
BRANCH  14  16
HETATM   16  C11 UNL     1      30.850  10.233  47.516  1.00  0.00     0.034 A 
HETATM   17  C12 UNL     1      32.175  10.633  47.737  1.00  0.00     0.029 A 
HETATM   18  C13 UNL     1      32.904  11.423  46.839  1.00  0.00     0.004 A 
HETATM   19  C14 UNL     1      32.204  11.771  45.722  1.00  0.00     0.019 A 
HETATM   20  C15 UNL     1      30.908  11.443  45.394  1.00  0.00     0.013 A 
HETATM   21 BR1  UNL     1      30.081  12.021  43.778  1.00  0.00    -0.051 Br
HETATM   22  C16 UNL     1      30.231  10.653  46.330  1.00  0.00     0.048 A 
ENDBRANCH  14  16
ENDBRANCH   8  14
BRANCH   6  23
HETATM   23  C5  UNL     1      32.118   5.902  49.190  1.00  0.00     0.072 C 
HETATM   24  C6  UNL     1      32.669   5.136  48.282  1.00  0.00     0.008 C 
BRANCH  24  25
HETATM   25  C7  UNL     1      32.812   4.792  46.876  1.00  0.00     0.299 C 
BRANCH  25  26
HETATM   26  N3  UNL     1      33.568   3.577  46.623  1.00  0.00     0.083 N 
HETATM   27  C8  UNL     1      32.758   2.415  46.921  1.00  0.00     0.309 C 
HETATM   28  C9  UNL     1      34.697   3.526  47.568  1.00  0.00     0.309 C 
ENDBRANCH  25  26
ENDBRANCH  24  25
ENDBRANCH   6  23
TORSDOF 5
ENDMDL
MODEL 9
REMARK VINA RESULT:      -6.9      1.901      2.463
REMARK  5 active torsions:
REMARK  status: ('A' for Active; 'I' for Inactive)
REMARK       I    between atoms: N2_5  and  C4_6 
REMARK    1  A    between atoms: C4_6  and  C5_8 
REMARK    2  A    between atoms: C6_9  and  C7_10 
REMARK    3  A    between atoms: C7_10  and  N3_11 
REMARK    4  A    between atoms: C10_14  and  N4_15 
REMARK    5  A    between atoms: N4_15  and  C11_16 
ROOT
HETATM    1  C1  UNL     1      28.509   1.356  53.297  1.00  0.00     0.179 C 
HETATM    2  N1  UNL     1      27.541   1.990  52.436  1.00  0.00    -0.278 NA
HETATM    3  C2  UNL     1      26.331   1.489  52.430  1.00  0.00     0.138 C 
HETATM    4  C3  UNL     1      25.375   2.174  51.532  1.00  0.00     0.214 C 
HETATM    5  N2  UNL     1      24.063   2.376  52.117  1.00  0.00    -0.292 N 
HETATM    6  C4  UNL     1      23.408   3.632  52.232  1.00  0.00     0.249 C 
HETATM    7  O1  UNL     1      22.358   4.180  52.647  1.00  0.00    -0.268 OA
HETATM    8  C10 UNL     1      23.248   1.317  52.668  1.00  0.00     0.133 C 
HETATM    9  C17 UNL     1      23.647   0.222  53.332  1.00  0.00     0.106 C 
HETATM   10  C18 UNL     1      22.655  -0.716  53.800  1.00  0.00     0.104 C 
HETATM   11  N5  UNL     1      21.883  -1.465  54.184  1.00  0.00    -0.191 NA
HETATM   12  C19 UNL     1      25.016  -0.215  53.687  1.00  0.00     0.145 C 
HETATM   13  N6  UNL     1      26.085   0.370  53.268  1.00  0.00    -0.243 NA
ENDROOT
BRANCH   8  14
HETATM   14  N4  UNL     1      21.852   1.418  52.499  1.00  0.00    -0.341 N 
HETATM   15  H16 UNL     1      21.245   1.708  53.299  1.00  0.00     0.167 HD
BRANCH  14  16
HETATM   16  C11 UNL     1      20.786   1.291  51.625  1.00  0.00     0.034 A 
HETATM   17  C12 UNL     1      19.717   0.425  51.893  1.00  0.00     0.029 A 
HETATM   18  C13 UNL     1      18.616   0.270  51.042  1.00  0.00     0.004 A 
HETATM   19  C14 UNL     1      18.677   1.042  49.920  1.00  0.00     0.019 A 
HETATM   20  C15 UNL     1      19.665   1.923  49.547  1.00  0.00     0.013 A 
HETATM   21 BR1  UNL     1      19.588   2.927  47.930  1.00  0.00    -0.051 Br
HETATM   22  C16 UNL     1      20.739   2.035  50.437  1.00  0.00     0.048 A 
ENDBRANCH  14  16
ENDBRANCH   8  14
BRANCH   6  23
HETATM   23  C5  UNL     1      23.844   4.953  51.819  1.00  0.00     0.072 C 
HETATM   24  C6  UNL     1      24.183   5.419  50.643  1.00  0.00     0.008 C 
BRANCH  24  25
HETATM   25  C7  UNL     1      24.371   5.171  49.221  1.00  0.00     0.299 C 
BRANCH  25  26
HETATM   26  N3  UNL     1      25.165   6.174  48.532  1.00  0.00     0.083 N 
HETATM   27  C8  UNL     1      26.139   6.748  49.438  1.00  0.00     0.309 C 
HETATM   28  C9  UNL     1      24.280   7.286  48.146  1.00  0.00     0.309 C 
ENDBRANCH  25  26
ENDBRANCH  24  25
ENDBRANCH   6  23
TORSDOF 5
ENDMDL
