MODEL 1
REMARK VINA RESULT:      -7.8      0.000      0.000
REMARK  3 active torsions:
REMARK  status: ('A' for Active; 'I' for Inactive)
REMARK       I    between atoms: C2_3  and  N2_5 
REMARK    1  A    between atoms: N2_5  and  C3_6 
REMARK    2  A    between atoms: C8_13  and  N5_14 
REMARK    3  A    between atoms: N5_14  and  C9_15 
ROOT
HETATM    1  N1  UNL     1      29.489   1.397  54.750  1.00  0.00    -0.186 NA
HETATM    2  C1  UNL     1      28.414   1.030  54.639  1.00  0.00     0.162 C 
HETATM    3  C2  UNL     1      27.072   0.560  54.480  1.00  0.00     0.326 C 
HETATM    4  O1  UNL     1      26.159   1.456  54.548  1.00  0.00    -0.256 OA
HETATM    5  N2  UNL     1      26.558  -0.734  54.250  1.00  0.00    -0.315 N 
HETATM    6  H1  UNL     1      27.334  -1.447  54.201  1.00  0.00     0.170 HD
ENDROOT
BRANCH   5   7
HETATM    7  C3  UNL     1      25.141  -0.618  54.161  1.00  0.00     0.036 A 
HETATM    8  C4  UNL     1      24.595  -1.274  55.272  1.00  0.00     0.032 A 
HETATM    9  C5  UNL     1      23.228  -1.320  55.450  1.00  0.00     0.035 A 
HETATM   10  C6  UNL     1      22.401  -0.707  54.507  1.00  0.00     0.072 A 
HETATM   11  N3  UNL     1      21.071  -0.732  54.633  1.00  0.00    -0.241 NA
HETATM   12  C15 UNL     1      23.011  -0.091  53.458  1.00  0.00     0.041 A 
HETATM   13  C7  UNL     1      20.248  -0.138  53.718  1.00  0.00     0.236 A 
HETATM   14  N4  UNL     1      20.853   0.481  52.666  1.00  0.00    -0.224 NA
HETATM   15  C8  UNL     1      22.181   0.501  52.546  1.00  0.00     0.142 A 
HETATM   16  C16 UNL     1      24.349  -0.011  53.230  1.00  0.00     0.047 A 
BRANCH  15  17
HETATM   17  N5  UNL     1      22.589   1.173  51.379  1.00  0.00    -0.340 N 
HETATM   18  H5  UNL     1      23.058   0.539  50.702  1.00  0.00     0.167 HD
BRANCH  17  19
HETATM   19  C9  UNL     1      22.270   2.578  51.382  1.00  0.00     0.035 A 
HETATM   20  C10 UNL     1      23.098   3.245  52.283  1.00  0.00     0.029 A 
HETATM   21  C11 UNL     1      22.948   4.630  52.442  1.00  0.00     0.004 A 
HETATM   22  C12 UNL     1      21.979   5.289  51.700  1.00  0.00     0.019 A 
HETATM   23  C13 UNL     1      21.176   4.605  50.822  1.00  0.00     0.013 A 
HETATM   24 BR1  UNL     1      19.810   5.445  49.763  1.00  0.00    -0.051 Br
HETATM   25  C14 UNL     1      21.315   3.255  50.657  1.00  0.00     0.048 A 
ENDBRANCH  17  19
ENDBRANCH  15  17
ENDBRANCH   5   7
TORSDOF 3
ENDMDL
MODEL 2
REMARK VINA RESULT:      -7.7      2.349      2.854
REMARK  3 active torsions:
REMARK  status: ('A' for Active; 'I' for Inactive)
REMARK       I    between atoms: C2_3  and  N2_5 
REMARK    1  A    between atoms: N2_5  and  C3_6 
REMARK    2  A    between atoms: C8_13  and  N5_14 
REMARK    3  A    between atoms: N5_14  and  C9_15 
ROOT
HETATM    1  N1  UNL     1      30.095  -1.022  53.597  1.00  0.00    -0.186 NA
HETATM    2  C1  UNL     1      29.015  -0.652  53.563  1.00  0.00     0.162 C 
HETATM    3  C2  UNL     1      27.656  -0.209  53.530  1.00  0.00     0.326 C 
HETATM    4  O1  UNL     1      27.195   0.084  52.372  1.00  0.00    -0.256 OA
HETATM    5  N2  UNL     1      26.705  -0.037  54.560  1.00  0.00    -0.315 N 
HETATM    6  H1  UNL     1      27.117  -0.285  55.500  1.00  0.00     0.170 HD
ENDROOT
BRANCH   5   7
HETATM    7  C3  UNL     1      25.500   0.418  53.953  1.00  0.00     0.036 A 
HETATM    8  C4  UNL     1      24.653  -0.690  53.816  1.00  0.00     0.032 A 
HETATM    9  C5  UNL     1      23.402  -0.544  53.255  1.00  0.00     0.035 A 
HETATM   10  C6  UNL     1      22.996   0.721  52.825  1.00  0.00     0.072 A 
HETATM   11  N3  UNL     1      21.796   0.911  52.268  1.00  0.00    -0.241 NA
HETATM   12  C15 UNL     1      23.878   1.744  52.995  1.00  0.00     0.041 A 
HETATM   13  C7  UNL     1      21.385   2.142  51.841  1.00  0.00     0.236 A 
HETATM   14  N4  UNL     1      22.263   3.169  52.009  1.00  0.00    -0.224 NA
HETATM   15  C8  UNL     1      23.460   2.973  52.564  1.00  0.00     0.142 A 
HETATM   16  C16 UNL     1      25.120   1.662  53.541  1.00  0.00     0.047 A 
BRANCH  15  17
HETATM   17  N5  UNL     1      24.210   4.162  52.620  1.00  0.00    -0.340 N 
HETATM   18  H5  UNL     1      24.582   4.350  53.573  1.00  0.00     0.167 HD
BRANCH  17  19
HETATM   19  C9  UNL     1      24.294   4.849  51.356  1.00  0.00     0.035 A 
HETATM   20  C10 UNL     1      25.116   4.135  50.488  1.00  0.00     0.029 A 
HETATM   21  C11 UNL     1      25.335   4.636  49.197  1.00  0.00     0.004 A 
HETATM   22  C12 UNL     1      24.729   5.829  48.829  1.00  0.00     0.019 A 
HETATM   23  C13 UNL     1      23.926   6.513  49.708  1.00  0.00     0.013 A 
HETATM   24 BR1  UNL     1      23.055   8.170  49.275  1.00  0.00    -0.051 Br
HETATM   25  C14 UNL     1      23.703   6.031  50.967  1.00  0.00     0.048 A 
ENDBRANCH  17  19
ENDBRANCH  15  17
ENDBRANCH   5   7
TORSDOF 3
ENDMDL
MODEL 3
REMARK VINA RESULT:      -7.5      3.823      6.594
REMARK  3 active torsions:
REMARK  status: ('A' for Active; 'I' for Inactive)
REMARK       I    between atoms: C2_3  and  N2_5 
REMARK    1  A    between atoms: N2_5  and  C3_6 
REMARK    2  A    between atoms: C8_13  and  N5_14 
REMARK    3  A    between atoms: N5_14  and  C9_15 
ROOT
HETATM    1  N1  UNL     1      17.400   3.185  50.221  1.00  0.00    -0.186 NA
HETATM    2  C1  UNL     1      18.173   2.526  50.741  1.00  0.00     0.162 C 
HETATM    3  C2  UNL     1      19.125   1.682  51.395  1.00  0.00     0.326 C 
HETATM    4  O1  UNL     1      19.716   2.194  52.410  1.00  0.00    -0.256 OA
HETATM    5  N2  UNL     1      19.537   0.358  51.130  1.00  0.00    -0.315 N 
HETATM    6  H1  UNL     1      19.034  -0.034  50.289  1.00  0.00     0.170 HD
ENDROOT
BRANCH   5   7
HETATM    7  C3  UNL     1      20.507   0.010  52.113  1.00  0.00     0.036 A 
HETATM    8  C4  UNL     1      19.831  -0.619  53.166  1.00  0.00     0.032 A 
HETATM    9  C5  UNL     1      20.527  -1.070  54.268  1.00  0.00     0.035 A 
HETATM   10  C6  UNL     1      21.911  -0.887  54.317  1.00  0.00     0.072 A 
HETATM   11  N3  UNL     1      22.627  -1.300  55.367  1.00  0.00    -0.241 NA
HETATM   12  C15 UNL     1      22.489  -0.267  53.253  1.00  0.00     0.041 A 
HETATM   13  C7  UNL     1      23.981  -1.126  55.430  1.00  0.00     0.236 A 
HETATM   14  N4  UNL     1      24.566  -0.507  54.368  1.00  0.00    -0.224 NA
HETATM   15  C8  UNL     1      23.845  -0.096  53.324  1.00  0.00     0.142 A 
HETATM   16  C16 UNL     1      21.858   0.197  52.141  1.00  0.00     0.047 A 
BRANCH  15  17
HETATM   17  N5  UNL     1      24.645   0.534  52.353  1.00  0.00    -0.340 N 
HETATM   18  H5  UNL     1      24.095   0.841  51.526  1.00  0.00     0.167 HD
BRANCH  17  19
HETATM   19  C9  UNL     1      26.038   0.613  52.718  1.00  0.00     0.035 A 
HETATM   20  C10 UNL     1      26.381   1.939  52.970  1.00  0.00     0.029 A 
HETATM   21  C11 UNL     1      27.700   2.237  53.340  1.00  0.00     0.004 A 
HETATM   22  C12 UNL     1      28.619   1.203  53.439  1.00  0.00     0.019 A 
HETATM   23  C13 UNL     1      28.252  -0.094  53.182  1.00  0.00     0.013 A 
HETATM   24 BR1  UNL     1      29.465  -1.580  53.294  1.00  0.00    -0.051 Br
HETATM   25  C14 UNL     1      26.968  -0.397  52.823  1.00  0.00     0.048 A 
ENDBRANCH  17  19
ENDBRANCH  15  17
ENDBRANCH   5   7
TORSDOF 3
ENDMDL
MODEL 4
REMARK VINA RESULT:      -7.4      4.185      6.501
REMARK  3 active torsions:
REMARK  status: ('A' for Active; 'I' for Inactive)
REMARK       I    between atoms: C2_3  and  N2_5 
REMARK    1  A    between atoms: N2_5  and  C3_6 
REMARK    2  A    between atoms: C8_13  and  N5_14 
REMARK    3  A    between atoms: N5_14  and  C9_15 
ROOT
HETATM    1  N1  UNL     1      28.649   6.203  48.035  1.00  0.00    -0.186 NA
HETATM    2  C1  UNL     1      27.837   5.622  48.588  1.00  0.00     0.162 C 
HETATM    3  C2  UNL     1      26.825   4.905  49.301  1.00  0.00     0.326 C 
HETATM    4  O1  UNL     1      26.873   3.629  49.200  1.00  0.00    -0.256 OA
HETATM    5  N2  UNL     1      25.765   5.353  50.119  1.00  0.00    -0.315 N 
HETATM    6  H1  UNL     1      25.752   6.407  50.180  1.00  0.00     0.170 HD
ENDROOT
BRANCH   5   7
HETATM    7  C3  UNL     1      25.072   4.199  50.585  1.00  0.00     0.036 A 
HETATM    8  C4  UNL     1      24.097   3.880  49.630  1.00  0.00     0.032 A 
HETATM    9  C5  UNL     1      23.268   2.794  49.819  1.00  0.00     0.035 A 
HETATM   10  C6  UNL     1      23.414   2.023  50.973  1.00  0.00     0.072 A 
HETATM   11  N3  UNL     1      22.629   0.966  51.203  1.00  0.00    -0.241 NA
HETATM   12  C15 UNL     1      24.385   2.400  51.849  1.00  0.00     0.041 A 
HETATM   13  C7  UNL     1      22.759   0.202  52.329  1.00  0.00     0.236 A 
HETATM   14  N4  UNL     1      23.730   0.574  53.209  1.00  0.00    -0.224 NA
HETATM   15  C8  UNL     1      24.509   1.630  52.974  1.00  0.00     0.142 A 
HETATM   16  C16 UNL     1      25.232   3.456  51.718  1.00  0.00     0.047 A 
BRANCH  15  17
HETATM   17  N5  UNL     1      25.425   1.845  54.019  1.00  0.00    -0.340 N 
HETATM   18  H5  UNL     1      25.032   2.444  54.773  1.00  0.00     0.167 HD
BRANCH  17  19
HETATM   19  C9  UNL     1      26.695   1.195  53.814  1.00  0.00     0.035 A 
HETATM   20  C10 UNL     1      27.719   2.138  53.874  1.00  0.00     0.029 A 
HETATM   21  C11 UNL     1      29.043   1.711  53.697  1.00  0.00     0.004 A 
HETATM   22  C12 UNL     1      29.288   0.366  53.463  1.00  0.00     0.019 A 
HETATM   23  C13 UNL     1      28.258  -0.540  53.407  1.00  0.00     0.013 A 
HETATM   24 BR1  UNL     1      28.516  -2.417  53.086  1.00  0.00    -0.051 Br
HETATM   25  C14 UNL     1      26.964  -0.135  53.582  1.00  0.00     0.048 A 
ENDBRANCH  17  19
ENDBRANCH  15  17
ENDBRANCH   5   7
TORSDOF 3
ENDMDL
MODEL 5
REMARK VINA RESULT:      -7.3      2.273      2.904
REMARK  3 active torsions:
REMARK  status: ('A' for Active; 'I' for Inactive)
REMARK       I    between atoms: C2_3  and  N2_5 
REMARK    1  A    between atoms: N2_5  and  C3_6 
REMARK    2  A    between atoms: C8_13  and  N5_14 
REMARK    3  A    between atoms: N5_14  and  C9_15 
ROOT
HETATM    1  N1  UNL     1      28.175  -0.120  54.892  1.00  0.00    -0.186 NA
HETATM    2  C1  UNL     1      27.130   0.057  54.468  1.00  0.00     0.162 C 
HETATM    3  C2  UNL     1      25.827   0.267  53.917  1.00  0.00     0.326 C 
HETATM    4  O1  UNL     1      25.440   1.486  53.854  1.00  0.00    -0.256 OA
HETATM    5  N2  UNL     1      24.870  -0.640  53.411  1.00  0.00    -0.315 N 
HETATM    6  H1  UNL     1      25.218  -1.634  53.478  1.00  0.00     0.170 HD
ENDROOT
BRANCH   5   7
HETATM    7  C3  UNL     1      23.749   0.124  52.978  1.00  0.00     0.036 A 
HETATM    8  C4  UNL     1      22.744  -0.019  53.943  1.00  0.00     0.032 A 
HETATM    9  C5  UNL     1      21.532   0.619  53.786  1.00  0.00     0.035 A 
HETATM   10  C6  UNL     1      21.323   1.405  52.651  1.00  0.00     0.072 A 
HETATM   11  N3  UNL     1      20.163   2.038  52.452  1.00  0.00    -0.241 NA
HETATM   12  C15 UNL     1      22.350   1.493  51.763  1.00  0.00     0.041 A 
HETATM   13  C7  UNL     1      19.942   2.809  51.346  1.00  0.00     0.236 A 
HETATM   14  N4  UNL     1      20.966   2.901  50.453  1.00  0.00    -0.224 NA
HETATM   15  C8  UNL     1      22.122   2.266  50.658  1.00  0.00     0.142 A 
HETATM   16  C16 UNL     1      23.564   0.890  51.863  1.00  0.00     0.047 A 
BRANCH  15  17
HETATM   17  N5  UNL     1      23.028   2.481  49.604  1.00  0.00    -0.340 N 
HETATM   18  H5  UNL     1      22.991   1.724  48.891  1.00  0.00     0.167 HD
BRANCH  17  19
HETATM   19  C9  UNL     1      23.800   3.690  49.745  1.00  0.00     0.035 A 
HETATM   20  C10 UNL     1      25.146   3.416  49.509  1.00  0.00     0.029 A 
HETATM   21  C11 UNL     1      26.074   4.462  49.599  1.00  0.00     0.004 A 
HETATM   22  C12 UNL     1      25.624   5.733  49.924  1.00  0.00     0.019 A 
HETATM   23  C13 UNL     1      24.291   5.972  50.154  1.00  0.00     0.013 A 
HETATM   24 BR1  UNL     1      23.590   7.702  50.611  1.00  0.00    -0.051 Br
HETATM   25  C14 UNL     1      23.377   4.960  50.066  1.00  0.00     0.048 A 
ENDBRANCH  17  19
ENDBRANCH  15  17
ENDBRANCH   5   7
TORSDOF 3
ENDMDL
MODEL 6
REMARK VINA RESULT:      -7.3      3.401      6.714
REMARK  3 active torsions:
REMARK  status: ('A' for Active; 'I' for Inactive)
REMARK       I    between atoms: C2_3  and  N2_5 
REMARK    1  A    between atoms: N2_5  and  C3_6 
REMARK    2  A    between atoms: C8_13  and  N5_14 
REMARK    3  A    between atoms: N5_14  and  C9_15 
ROOT
HETATM    1  N1  UNL     1      17.905  -2.526  53.830  1.00  0.00    -0.186 NA
HETATM    2  C1  UNL     1      18.518  -1.633  53.469  1.00  0.00     0.162 C 
HETATM    3  C2  UNL     1      19.295  -0.527  52.999  1.00  0.00     0.326 C 
HETATM    4  O1  UNL     1      20.108  -0.019  53.848  1.00  0.00    -0.256 OA
HETATM    5  N2  UNL     1      19.337   0.116  51.743  1.00  0.00    -0.315 N 
HETATM    6  H1  UNL     1      18.656  -0.325  51.068  1.00  0.00     0.170 HD
ENDROOT
BRANCH   5   7
HETATM    7  C3  UNL     1      20.307   1.155  51.832  1.00  0.00     0.036 A 
HETATM    8  C4  UNL     1      19.622   2.349  52.093  1.00  0.00     0.032 A 
HETATM    9  C5  UNL     1      20.315   3.533  52.232  1.00  0.00     0.035 A 
HETATM   10  C6  UNL     1      21.705   3.522  52.107  1.00  0.00     0.072 A 
HETATM   11  N3  UNL     1      22.420   4.646  52.227  1.00  0.00    -0.241 NA
HETATM   12  C15 UNL     1      22.294   2.322  51.854  1.00  0.00     0.041 A 
HETATM   13  C7  UNL     1      23.780   4.652  52.105  1.00  0.00     0.236 A 
HETATM   14  N4  UNL     1      24.375   3.453  51.852  1.00  0.00    -0.224 NA
HETATM   15  C8  UNL     1      23.656   2.336  51.733  1.00  0.00     0.142 A 
HETATM   16  C16 UNL     1      21.666   1.125  51.708  1.00  0.00     0.047 A 
BRANCH  15  17
HETATM   17  N5  UNL     1      24.468   1.222  51.452  1.00  0.00    -0.340 N 
HETATM   18  H5  UNL     1      24.325   0.862  50.487  1.00  0.00     0.167 HD
BRANCH  17  19
HETATM   19  C9  UNL     1      25.308   0.829  52.555  1.00  0.00     0.035 A 
HETATM   20  C10 UNL     1      24.597  -0.009  53.411  1.00  0.00     0.029 A 
HETATM   21  C11 UNL     1      25.236  -0.505  54.556  1.00  0.00     0.004 A 
HETATM   22  C12 UNL     1      26.552  -0.142  54.801  1.00  0.00     0.019 A 
HETATM   23  C13 UNL     1      27.226   0.688  53.941  1.00  0.00     0.013 A 
HETATM   24 BR1  UNL     1      29.047   1.238  54.211  1.00  0.00    -0.051 Br
HETATM   25  C14 UNL     1      26.615   1.175  52.819  1.00  0.00     0.048 A 
ENDBRANCH  17  19
ENDBRANCH  15  17
ENDBRANCH   5   7
TORSDOF 3
ENDMDL
MODEL 7
REMARK VINA RESULT:      -7.3      2.670      5.186
REMARK  3 active torsions:
REMARK  status: ('A' for Active; 'I' for Inactive)
REMARK       I    between atoms: C2_3  and  N2_5 
REMARK    1  A    between atoms: N2_5  and  C3_6 
REMARK    2  A    between atoms: C8_13  and  N5_14 
REMARK    3  A    between atoms: N5_14  and  C9_15 
ROOT
HETATM    1  N1  UNL     1      17.770  -0.333  52.209  1.00  0.00    -0.186 NA
HETATM    2  C1  UNL     1      18.883  -0.172  52.401  1.00  0.00     0.162 C 
HETATM    3  C2  UNL     1      20.274   0.050  52.655  1.00  0.00     0.326 C 
HETATM    4  O1  UNL     1      21.015   0.171  51.617  1.00  0.00    -0.256 OA
HETATM    5  N2  UNL     1      20.994   0.170  53.863  1.00  0.00    -0.315 N 
HETATM    6  H1  UNL     1      20.356   0.063  54.697  1.00  0.00     0.170 HD
ENDROOT
BRANCH   5   7
HETATM    7  C3  UNL     1      22.358   0.398  53.522  1.00  0.00     0.036 A 
HETATM    8  C4  UNL     1      23.043  -0.812  53.696  1.00  0.00     0.032 A 
HETATM    9  C5  UNL     1      24.395  -0.890  53.435  1.00  0.00     0.035 A 
HETATM   10  C6  UNL     1      25.067   0.254  53.000  1.00  0.00     0.072 A 
HETATM   11  N3  UNL     1      26.378   0.229  52.741  1.00  0.00    -0.241 NA
HETATM   12  C15 UNL     1      24.329   1.388  52.856  1.00  0.00     0.041 A 
HETATM   13  C7  UNL     1      27.051   1.340  52.316  1.00  0.00     0.236 A 
HETATM   14  N4  UNL     1      26.317   2.478  52.170  1.00  0.00    -0.224 NA
HETATM   15  C8  UNL     1      25.009   2.496  52.431  1.00  0.00     0.142 A 
HETATM   16  C16 UNL     1      22.998   1.525  53.096  1.00  0.00     0.047 A 
BRANCH  15  17
HETATM   17  N5  UNL     1      24.456   3.774  52.235  1.00  0.00    -0.340 N 
HETATM   18  H5  UNL     1      24.395   4.318  53.119  1.00  0.00     0.167 HD
BRANCH  17  19
HETATM   19  C9  UNL     1      24.099   4.043  50.864  1.00  0.00     0.035 A 
HETATM   20  C10 UNL     1      24.506   5.330  50.518  1.00  0.00     0.029 A 
HETATM   21  C11 UNL     1      24.250   5.793  49.220  1.00  0.00     0.004 A 
HETATM   22  C12 UNL     1      23.596   4.959  48.326  1.00  0.00     0.019 A 
HETATM   23  C13 UNL     1      23.204   3.696  48.697  1.00  0.00     0.013 A 
HETATM   24 BR1  UNL     1      22.292   2.483  47.519  1.00  0.00    -0.051 Br
HETATM   25  C14 UNL     1      23.451   3.233  49.959  1.00  0.00     0.048 A 
ENDBRANCH  17  19
ENDBRANCH  15  17
ENDBRANCH   5   7
TORSDOF 3
ENDMDL
MODEL 8
REMARK VINA RESULT:      -7.3      2.014      2.647
REMARK  3 active torsions:
REMARK  status: ('A' for Active; 'I' for Inactive)
REMARK       I    between atoms: C2_3  and  N2_5 
REMARK    1  A    between atoms: N2_5  and  C3_6 
REMARK    2  A    between atoms: C8_13  and  N5_14 
REMARK    3  A    between atoms: N5_14  and  C9_15 
ROOT
HETATM    1  N1  UNL     1      29.353   0.911  54.490  1.00  0.00    -0.186 NA
HETATM    2  C1  UNL     1      28.251   0.903  54.191  1.00  0.00     0.162 C 
HETATM    3  C2  UNL     1      26.877   0.893  53.794  1.00  0.00     0.326 C 
HETATM    4  O1  UNL     1      26.162   1.856  54.242  1.00  0.00    -0.256 OA
HETATM    5  N2  UNL     1      26.149   0.002  52.975  1.00  0.00    -0.315 N 
HETATM    6  H1  UNL     1      26.766  -0.780  52.625  1.00  0.00     0.170 HD
ENDROOT
BRANCH   5   7
HETATM    7  C3  UNL     1      24.811   0.484  52.910  1.00  0.00     0.036 A 
HETATM    8  C4  UNL     1      24.016  -0.378  53.676  1.00  0.00     0.032 A 
HETATM    9  C5  UNL     1      22.660  -0.153  53.797  1.00  0.00     0.035 A 
HETATM   10  C6  UNL     1      22.096   0.944  53.142  1.00  0.00     0.072 A 
HETATM   11  N3  UNL     1      20.787   1.200  53.223  1.00  0.00    -0.241 NA
HETATM   12  C15 UNL     1      22.938   1.732  52.419  1.00  0.00     0.041 A 
HETATM   13  C7  UNL     1      20.220   2.268  52.587  1.00  0.00     0.236 A 
HETATM   14  N4  UNL     1      21.057   3.061  51.862  1.00  0.00    -0.224 NA
HETATM   15  C8  UNL     1      22.362   2.799  51.785  1.00  0.00     0.142 A 
HETATM   16  C16 UNL     1      24.278   1.562  52.265  1.00  0.00     0.047 A 
BRANCH  15  17
HETATM   17  N5  UNL     1      23.033   3.729  50.970  1.00  0.00    -0.340 N 
HETATM   18  H5  UNL     1      23.722   4.297  51.503  1.00  0.00     0.167 HD
BRANCH  17  19
HETATM   19  C9  UNL     1      22.618   3.691  49.590  1.00  0.00     0.035 A 
HETATM   20  C10 UNL     1      22.810   2.409  49.079  1.00  0.00     0.029 A 
HETATM   21  C11 UNL     1      22.470   2.156  47.742  1.00  0.00     0.004 A 
HETATM   22  C12 UNL     1      21.958   3.190  46.973  1.00  0.00     0.019 A 
HETATM   23  C13 UNL     1      21.783   4.444  47.504  1.00  0.00     0.013 A 
HETATM   24 BR1  UNL     1      21.082   5.928  46.503  1.00  0.00    -0.051 Br
HETATM   25  C14 UNL     1      22.108   4.701  48.806  1.00  0.00     0.048 A 
ENDBRANCH  17  19
ENDBRANCH  15  17
ENDBRANCH   5   7
TORSDOF 3
ENDMDL
MODEL 9
REMARK VINA RESULT:      -7.2      4.128      5.625
REMARK  3 active torsions:
REMARK  status: ('A' for Active; 'I' for Inactive)
REMARK       I    between atoms: C2_3  and  N2_5 
REMARK    1  A    between atoms: N2_5  and  C3_6 
REMARK    2  A    between atoms: C8_13  and  N5_14 
REMARK    3  A    between atoms: N5_14  and  C9_15 
ROOT
HETATM    1  N1  UNL     1      26.639  -0.546  54.781  1.00  0.00    -0.186 NA
HETATM    2  C1  UNL     1      25.999   0.061  54.056  1.00  0.00     0.162 C 
HETATM    3  C2  UNL     1      25.182   0.805  53.148  1.00  0.00     0.326 C 
HETATM    4  O1  UNL     1      25.755   1.180  52.065  1.00  0.00    -0.256 OA
HETATM    5  N2  UNL     1      23.830   1.204  53.221  1.00  0.00    -0.315 N 
HETATM    6  H1  UNL     1      23.388   0.881  54.124  1.00  0.00     0.170 HD
ENDROOT
BRANCH   5   7
HETATM    7  C3  UNL     1      23.532   1.915  52.024  1.00  0.00     0.036 A 
HETATM    8  C4  UNL     1      22.639   1.133  51.281  1.00  0.00     0.032 A 
HETATM    9  C5  UNL     1      22.171   1.579  50.062  1.00  0.00     0.035 A 
HETATM   10  C6  UNL     1      22.604   2.817  49.583  1.00  0.00     0.072 A 
HETATM   11  N3  UNL     1      22.184   3.288  48.404  1.00  0.00    -0.241 NA
HETATM   12  C15 UNL     1      23.471   3.514  50.366  1.00  0.00     0.041 A 
HETATM   13  C7  UNL     1      22.600   4.496  47.921  1.00  0.00     0.236 A 
HETATM   14  N4  UNL     1      23.467   5.199  48.701  1.00  0.00    -0.224 NA
HETATM   15  C8  UNL     1      23.882   4.723  49.875  1.00  0.00     0.142 A 
HETATM   16  C16 UNL     1      23.964   3.129  51.573  1.00  0.00     0.047 A 
BRANCH  15  17
HETATM   17  N5  UNL     1      24.788   5.598  50.502  1.00  0.00    -0.340 N 
HETATM   18  H5  UNL     1      24.467   5.887  51.448  1.00  0.00     0.167 HD
BRANCH  17  19
HETATM   19  C9  UNL     1      25.947   5.899  49.700  1.00  0.00     0.035 A 
HETATM   20  C10 UNL     1      26.616   4.719  49.383  1.00  0.00     0.029 A 
HETATM   21  C11 UNL     1      27.781   4.790  48.606  1.00  0.00     0.004 A 
HETATM   22  C12 UNL     1      28.230   6.032  48.182  1.00  0.00     0.019 A 
HETATM   23  C13 UNL     1      27.550   7.178  48.512  1.00  0.00     0.013 A 
HETATM   24 BR1  UNL     1      28.108   8.934  47.965  1.00  0.00    -0.051 Br
HETATM   25  C14 UNL     1      26.412   7.120  49.266  1.00  0.00     0.048 A 
ENDBRANCH  17  19
ENDBRANCH  15  17
ENDBRANCH   5   7
TORSDOF 3
ENDMDL
