MODEL 1
REMARK VINA RESULT:      -8.3      0.000      0.000
REMARK  5 active torsions:
REMARK  status: ('A' for Active; 'I' for Inactive)
REMARK    1  A    between atoms: C2_2  and  N1_3 
REMARK    2  A    between atoms: C2_2  and  C15_20 
REMARK    3  A    between atoms: N1_3  and  P1_4 
REMARK    4  A    between atoms: N4_10  and  C6_11 
REMARK    5  A    between atoms: C6_11  and  C7_12 
ROOT
HETATM    1  P1  UNL     1      23.101   3.651  51.342  1.00  0.00    -0.017 P 
HETATM    2  C3  UNL     1      22.049   2.623  50.636  1.00  0.00     0.103 C 
HETATM    3  N2  UNL     1      21.527   1.822  51.478  1.00  0.00    -0.238 NA
HETATM    4  C4  UNL     1      22.357   1.471  52.528  1.00  0.00     0.229 C 
HETATM    5  N3  UNL     1      22.792   0.217  52.491  1.00  0.00    -0.253 NA
HETATM    6  C5  UNL     1      23.697  -0.106  53.658  1.00  0.00     0.422 C 
HETATM    7  N4  UNL     1      25.021   0.409  53.175  1.00  0.00     0.111 NA
HETATM    8  C13 UNL     1      24.719   1.517  52.437  1.00  0.00     0.281 C 
HETATM    9  C14 UNL     1      24.541   2.613  51.678  1.00  0.00     0.083 C 
HETATM   10  H6  UNL     1      22.621   4.201  52.515  1.00  0.00     0.080 HD
ENDROOT
BRANCH   1  11
HETATM   11  N1  UNL     1      23.474   4.913  50.218  1.00  0.00    -0.391 N 
HETATM   12  H5  UNL     1      22.649   5.342  49.784  1.00  0.00     0.158 HD
BRANCH  11  13
HETATM   13  C2  UNL     1      24.516   5.799  50.556  1.00  0.00     0.109 C 
HETATM   14  C1  UNL     1      24.077   7.239  50.717  1.00  0.00     0.037 C 
BRANCH  13  15
HETATM   15  C15 UNL     1      25.747   5.761  49.770  1.00  0.00    -0.036 A 
HETATM   16  C16 UNL     1      26.469   4.671  49.337  1.00  0.00     0.009 A 
HETATM   17  C17 UNL     1      27.619   4.724  48.609  1.00  0.00     0.001 A 
HETATM   18  C18 UNL     1      28.160   5.931  48.244  1.00  0.00     0.000 A 
HETATM   19  C19 UNL     1      27.519   7.088  48.625  1.00  0.00     0.001 A 
HETATM   20  C20 UNL     1      26.362   6.957  49.358  1.00  0.00     0.009 A 
ENDBRANCH  13  15
ENDBRANCH  11  13
ENDBRANCH   1  11
BRANCH   7  21
HETATM   21  C6  UNL     1      26.035   0.368  54.142  1.00  0.00     0.310 C 
BRANCH  21  22
HETATM   22  C7  UNL     1      27.152  -0.496  53.636  1.00  0.00    -0.037 C 
HETATM   23  C8  UNL     1      26.839  -1.611  52.996  1.00  0.00    -0.021 C 
HETATM   24  C9  UNL     1      27.804  -2.402  52.620  1.00  0.00     0.012 C 
HETATM   25  C10 UNL     1      29.170  -2.262  53.128  1.00  0.00    -0.003 C 
HETATM   26  C11 UNL     1      29.480  -1.127  53.730  1.00  0.00    -0.022 C 
HETATM   27  C12 UNL     1      28.528  -0.003  53.913  1.00  0.00     0.064 C 
ENDBRANCH  21  22
ENDBRANCH   7  21
TORSDOF 5
ENDMDL
MODEL 2
REMARK VINA RESULT:      -8.3      1.330      2.192
REMARK  5 active torsions:
REMARK  status: ('A' for Active; 'I' for Inactive)
REMARK    1  A    between atoms: C2_2  and  N1_3 
REMARK    2  A    between atoms: C2_2  and  C15_20 
REMARK    3  A    between atoms: N1_3  and  P1_4 
REMARK    4  A    between atoms: N4_10  and  C6_11 
REMARK    5  A    between atoms: C6_11  and  C7_12 
ROOT
HETATM    1  P1  UNL     1      24.193   4.003  51.295  1.00  0.00    -0.017 P 
HETATM    2  C3  UNL     1      23.195   3.597  50.069  1.00  0.00     0.103 C 
HETATM    3  N2  UNL     1      22.123   3.052  50.487  1.00  0.00    -0.238 NA
HETATM    4  C4  UNL     1      22.273   2.298  51.638  1.00  0.00     0.229 C 
HETATM    5  N3  UNL     1      22.172   0.987  51.455  1.00  0.00    -0.253 NA
HETATM    6  C5  UNL     1      22.349   0.216  52.743  1.00  0.00     0.422 C 
HETATM    7  N4  UNL     1      23.843   0.127  52.847  1.00  0.00     0.111 NA
HETATM    8  C13 UNL     1      24.303   1.302  52.328  1.00  0.00     0.281 C 
HETATM    9  C14 UNL     1      24.870   2.415  51.827  1.00  0.00     0.083 C 
HETATM   10  H6  UNL     1      23.543   4.624  52.344  1.00  0.00     0.080 HD
ENDROOT
BRANCH   1  11
HETATM   11  N1  UNL     1      25.428   5.046  50.676  1.00  0.00    -0.391 N 
HETATM   12  H5  UNL     1      26.107   5.353  51.381  1.00  0.00     0.158 HD
BRANCH  11  13
HETATM   13  C2  UNL     1      25.960   4.741  49.407  1.00  0.00     0.109 C 
HETATM   14  C1  UNL     1      26.783   3.471  49.369  1.00  0.00     0.037 C 
BRANCH  13  15
HETATM   15  C15 UNL     1      26.670   5.789  48.678  1.00  0.00    -0.036 A 
HETATM   16  C16 UNL     1      26.183   6.967  48.155  1.00  0.00     0.009 A 
HETATM   17  C17 UNL     1      26.917   7.893  47.477  1.00  0.00     0.001 A 
HETATM   18  C18 UNL     1      28.258   7.700  47.260  1.00  0.00     0.000 A 
HETATM   19  C19 UNL     1      28.850   6.554  47.741  1.00  0.00     0.001 A 
HETATM   20  C20 UNL     1      28.046   5.664  48.417  1.00  0.00     0.009 A 
ENDBRANCH  13  15
ENDBRANCH  11  13
ENDBRANCH   1  11
BRANCH   7  21
HETATM   21  C6  UNL     1      24.298  -0.426  54.052  1.00  0.00     0.310 C 
BRANCH  21  22
HETATM   22  C7  UNL     1      25.796  -0.496  54.018  1.00  0.00    -0.037 C 
HETATM   23  C8  UNL     1      26.475   0.245  54.879  1.00  0.00    -0.021 C 
HETATM   24  C9  UNL     1      27.776   0.246  54.805  1.00  0.00     0.012 C 
HETATM   25  C10 UNL     1      28.492  -0.289  53.646  1.00  0.00    -0.003 C 
HETATM   26  C11 UNL     1      27.811  -1.060  52.816  1.00  0.00    -0.022 C 
HETATM   27  C12 UNL     1      26.379  -1.406  52.998  1.00  0.00     0.064 C 
ENDBRANCH  21  22
ENDBRANCH   7  21
TORSDOF 5
ENDMDL
MODEL 3
REMARK VINA RESULT:      -8.2      2.267      5.202
REMARK  5 active torsions:
REMARK  status: ('A' for Active; 'I' for Inactive)
REMARK    1  A    between atoms: C2_2  and  N1_3 
REMARK    2  A    between atoms: C2_2  and  C15_20 
REMARK    3  A    between atoms: N1_3  and  P1_4 
REMARK    4  A    between atoms: N4_10  and  C6_11 
REMARK    5  A    between atoms: C6_11  and  C7_12 
ROOT
HETATM    1  P1  UNL     1      26.614   2.004  51.930  1.00  0.00    -0.017 P 
HETATM    2  C3  UNL     1      27.450   2.102  53.328  1.00  0.00     0.103 C 
HETATM    3  N2  UNL     1      27.631   0.957  53.857  1.00  0.00    -0.238 NA
HETATM    4  C4  UNL     1      26.605   0.054  53.636  1.00  0.00     0.229 C 
HETATM    5  N3  UNL     1      25.871  -0.219  54.708  1.00  0.00    -0.253 NA
HETATM    6  C5  UNL     1      24.766  -1.205  54.405  1.00  0.00     0.422 C 
HETATM    7  N4  UNL     1      23.697  -0.311  53.850  1.00  0.00     0.111 NA
HETATM    8  C13 UNL     1      24.369   0.660  53.165  1.00  0.00     0.281 C 
HETATM    9  C14 UNL     1      24.924   1.672  52.474  1.00  0.00     0.083 C 
HETATM   10  H6  UNL     1      27.058   0.994  51.099  1.00  0.00     0.080 HD
ENDROOT
BRANCH   1  11
HETATM   11  N1  UNL     1      26.732   3.525  51.112  1.00  0.00    -0.391 N 
HETATM   12  H5  UNL     1      27.548   4.084  51.386  1.00  0.00     0.158 HD
BRANCH  11  13
HETATM   13  C2  UNL     1      26.404   3.554  49.742  1.00  0.00     0.109 C 
HETATM   14  C1  UNL     1      27.360   4.366  48.894  1.00  0.00     0.037 C 
BRANCH  13  15
HETATM   15  C15 UNL     1      25.033   3.881  49.359  1.00  0.00    -0.036 A 
HETATM   16  C16 UNL     1      23.929   3.059  49.294  1.00  0.00     0.009 A 
HETATM   17  C17 UNL     1      22.679   3.445  48.917  1.00  0.00     0.001 A 
HETATM   18  C18 UNL     1      22.427   4.745  48.557  1.00  0.00     0.000 A 
HETATM   19  C19 UNL     1      23.461   5.654  48.585  1.00  0.00     0.001 A 
HETATM   20  C20 UNL     1      24.697   5.192  48.978  1.00  0.00     0.009 A 
ENDBRANCH  13  15
ENDBRANCH  11  13
ENDBRANCH   1  11
BRANCH   7  21
HETATM   21  C6  UNL     1      22.587  -0.999  53.340  1.00  0.00     0.310 C 
BRANCH  21  22
HETATM   22  C7  UNL     1      21.665  -0.014  52.685  1.00  0.00    -0.037 C 
HETATM   23  C8  UNL     1      21.605   0.002  51.363  1.00  0.00    -0.021 C 
HETATM   24  C9  UNL     1      20.863   0.905  50.786  1.00  0.00     0.012 C 
HETATM   25  C10 UNL     1      20.343   2.066  51.510  1.00  0.00    -0.003 C 
HETATM   26  C11 UNL     1      20.372   2.019  52.831  1.00  0.00    -0.022 C 
HETATM   27  C12 UNL     1      20.897   0.866  53.605  1.00  0.00     0.064 C 
ENDBRANCH  21  22
ENDBRANCH   7  21
TORSDOF 5
ENDMDL
MODEL 4
REMARK VINA RESULT:      -8.2      1.672      2.218
REMARK  5 active torsions:
REMARK  status: ('A' for Active; 'I' for Inactive)
REMARK    1  A    between atoms: C2_2  and  N1_3 
REMARK    2  A    between atoms: C2_2  and  C15_20 
REMARK    3  A    between atoms: N1_3  and  P1_4 
REMARK    4  A    between atoms: N4_10  and  C6_11 
REMARK    5  A    between atoms: C6_11  and  C7_12 
ROOT
HETATM    1  P1  UNL     1      25.633   3.864  50.110  1.00  0.00    -0.017 P 
HETATM    2  C3  UNL     1      24.267   3.396  49.350  1.00  0.00     0.103 C 
HETATM    3  N2  UNL     1      23.307   3.209  50.166  1.00  0.00    -0.238 NA
HETATM    4  C4  UNL     1      23.694   2.739  51.410  1.00  0.00     0.229 C 
HETATM    5  N3  UNL     1      23.366   1.475  51.648  1.00  0.00    -0.253 NA
HETATM    6  C5  UNL     1      23.819   1.017  53.016  1.00  0.00     0.422 C 
HETATM    7  N4  UNL     1      25.248   0.641  52.759  1.00  0.00     0.111 NA
HETATM    8  C13 UNL     1      25.684   1.532  51.822  1.00  0.00     0.281 C 
HETATM    9  C14 UNL     1      26.219   2.345  50.892  1.00  0.00     0.083 C 
HETATM   10  H6  UNL     1      25.419   4.843  51.061  1.00  0.00     0.080 HD
ENDROOT
BRANCH   1  11
HETATM   11  N1  UNL     1      26.752   4.440  48.923  1.00  0.00    -0.391 N 
HETATM   12  H5  UNL     1      26.686   3.960  48.018  1.00  0.00     0.158 HD
BRANCH  11  13
HETATM   13  C2  UNL     1      26.975   5.830  48.860  1.00  0.00     0.109 C 
HETATM   14  C1  UNL     1      25.776   6.629  48.394  1.00  0.00     0.037 C 
BRANCH  13  15
HETATM   15  C15 UNL     1      28.168   6.316  48.170  1.00  0.00    -0.036 A 
HETATM   16  C16 UNL     1      29.446   5.800  48.175  1.00  0.00     0.009 A 
HETATM   17  C17 UNL     1      30.510   6.322  47.505  1.00  0.00     0.001 A 
HETATM   18  C18 UNL     1      30.370   7.455  46.743  1.00  0.00     0.000 A 
HETATM   19  C19 UNL     1      29.133   8.054  46.667  1.00  0.00     0.001 A 
HETATM   20  C20 UNL     1      28.104   7.471  47.370  1.00  0.00     0.009 A 
ENDBRANCH  13  15
ENDBRANCH  11  13
ENDBRANCH   1  11
BRANCH   7  21
HETATM   21  C6  UNL     1      25.966   0.311  53.917  1.00  0.00     0.310 C 
BRANCH  21  22
HETATM   22  C7  UNL     1      27.171  -0.494  53.528  1.00  0.00    -0.037 C 
HETATM   23  C8  UNL     1      26.976  -1.685  52.984  1.00  0.00    -0.021 C 
HETATM   24  C9  UNL     1      28.018  -2.420  52.712  1.00  0.00     0.012 C 
HETATM   25  C10 UNL     1      29.347  -2.117  53.247  1.00  0.00    -0.003 C 
HETATM   26  C11 UNL     1      29.538  -0.910  53.751  1.00  0.00    -0.022 C 
HETATM   27  C12 UNL     1      28.488   0.138  53.800  1.00  0.00     0.064 C 
ENDBRANCH  21  22
ENDBRANCH   7  21
TORSDOF 5
ENDMDL
MODEL 5
REMARK VINA RESULT:      -8.2      1.707      2.257
REMARK  5 active torsions:
REMARK  status: ('A' for Active; 'I' for Inactive)
REMARK    1  A    between atoms: C2_2  and  N1_3 
REMARK    2  A    between atoms: C2_2  and  C15_20 
REMARK    3  A    between atoms: N1_3  and  P1_4 
REMARK    4  A    between atoms: N4_10  and  C6_11 
REMARK    5  A    between atoms: C6_11  and  C7_12 
ROOT
HETATM    1  P1  UNL     1      21.842   2.605  52.064  1.00  0.00    -0.017 P 
HETATM    2  C3  UNL     1      20.580   1.741  51.495  1.00  0.00     0.103 C 
HETATM    3  N2  UNL     1      19.989   1.094  52.419  1.00  0.00    -0.238 NA
HETATM    4  C4  UNL     1      20.820   0.662  53.439  1.00  0.00     0.229 C 
HETATM    5  N3  UNL     1      21.027  -0.650  53.462  1.00  0.00    -0.253 NA
HETATM    6  C5  UNL     1      21.944  -1.061  54.592  1.00  0.00     0.422 C 
HETATM    7  N4  UNL     1      23.299  -0.816  53.996  1.00  0.00     0.111 NA
HETATM    8  C13 UNL     1      23.141   0.284  53.203  1.00  0.00     0.281 C 
HETATM    9  C14 UNL     1      23.101   1.350  52.382  1.00  0.00     0.083 C 
HETATM   10  H6  UNL     1      21.549   3.297  53.224  1.00  0.00     0.080 HD
ENDROOT
BRANCH   1  11
HETATM   11  N1  UNL     1      22.346   3.715  50.836  1.00  0.00    -0.391 N 
HETATM   12  H5  UNL     1      21.572   4.131  50.305  1.00  0.00     0.158 HD
BRANCH  11  13
HETATM   13  C2  UNL     1      23.412   4.584  51.142  1.00  0.00     0.109 C 
HETATM   14  C1  UNL     1      23.031   6.049  51.156  1.00  0.00     0.037 C 
BRANCH  13  15
HETATM   15  C15 UNL     1      24.671   4.427  50.418  1.00  0.00    -0.036 A 
HETATM   16  C16 UNL     1      25.476   3.314  50.305  1.00  0.00     0.009 A 
HETATM   17  C17 UNL     1      26.646   3.254  49.611  1.00  0.00     0.001 A 
HETATM   18  C18 UNL     1      27.124   4.356  48.948  1.00  0.00     0.000 A 
HETATM   19  C19 UNL     1      26.398   5.525  48.995  1.00  0.00     0.001 A 
HETATM   20  C20 UNL     1      25.224   5.511  49.714  1.00  0.00     0.009 A 
ENDBRANCH  13  15
ENDBRANCH  11  13
ENDBRANCH   1  11
BRANCH   7  21
HETATM   21  C6  UNL     1      24.357  -0.981  54.901  1.00  0.00     0.310 C 
BRANCH  21  22
HETATM   22  C7  UNL     1      25.628  -0.525  54.248  1.00  0.00    -0.037 C 
HETATM   23  C8  UNL     1      26.384   0.348  54.893  1.00  0.00    -0.021 C 
HETATM   24  C9  UNL     1      27.451   0.804  54.299  1.00  0.00     0.012 C 
HETATM   25  C10 UNL     1      27.682   0.624  52.865  1.00  0.00    -0.003 C 
HETATM   26  C11 UNL     1      26.947  -0.280  52.241  1.00  0.00    -0.022 C 
HETATM   27  C12 UNL     1      25.916  -1.111  52.911  1.00  0.00     0.064 C 
ENDBRANCH  21  22
ENDBRANCH   7  21
TORSDOF 5
ENDMDL
MODEL 6
REMARK VINA RESULT:      -7.8      2.200      7.837
REMARK  5 active torsions:
REMARK  status: ('A' for Active; 'I' for Inactive)
REMARK    1  A    between atoms: C2_2  and  N1_3 
REMARK    2  A    between atoms: C2_2  and  C15_20 
REMARK    3  A    between atoms: N1_3  and  P1_4 
REMARK    4  A    between atoms: N4_10  and  C6_11 
REMARK    5  A    between atoms: C6_11  and  C7_12 
ROOT
HETATM    1  P1  UNL     1      23.722   3.116  51.141  1.00  0.00    -0.017 P 
HETATM    2  C3  UNL     1      23.633   3.879  52.581  1.00  0.00     0.103 C 
HETATM    3  N2  UNL     1      23.210   5.075  52.461  1.00  0.00    -0.238 NA
HETATM    4  C4  UNL     1      23.577   5.699  51.281  1.00  0.00     0.229 C 
HETATM    5  N3  UNL     1      24.483   6.659  51.424  1.00  0.00    -0.253 NA
HETATM    6  C5  UNL     1      24.847   7.298  50.103  1.00  0.00     0.422 C 
HETATM    7  N4  UNL     1      25.879   6.348  49.573  1.00  0.00     0.111 NA
HETATM    8  C13 UNL     1      25.471   5.115  49.994  1.00  0.00     0.281 C 
HETATM    9  C14 UNL     1      25.175   3.855  50.363  1.00  0.00     0.083 C 
HETATM   10  H6  UNL     1      22.604   3.308  50.352  1.00  0.00     0.080 HD
ENDROOT
BRANCH   1  11
HETATM   11  N1  UNL     1      23.947   1.424  51.430  1.00  0.00    -0.391 N 
HETATM   12  H5  UNL     1      24.593   0.971  50.774  1.00  0.00     0.158 HD
BRANCH  11  13
HETATM   13  C2  UNL     1      24.041   1.000  52.771  1.00  0.00     0.109 C 
HETATM   14  C1  UNL     1      25.382   0.399  53.137  1.00  0.00     0.037 C 
BRANCH  13  15
HETATM   15  C15 UNL     1      22.978   0.158  53.313  1.00  0.00    -0.036 A 
HETATM   16  C16 UNL     1      23.062  -0.863  54.234  1.00  0.00     0.009 A 
HETATM   17  C17 UNL     1      22.016  -1.609  54.684  1.00  0.00     0.001 A 
HETATM   18  C18 UNL     1      20.744  -1.379  54.224  1.00  0.00     0.000 A 
HETATM   19  C19 UNL     1      20.544  -0.378  53.298  1.00  0.00     0.001 A 
HETATM   20  C20 UNL     1      21.649   0.334  52.891  1.00  0.00     0.009 A 
ENDBRANCH  13  15
ENDBRANCH  11  13
ENDBRANCH   1  11
BRANCH   7  21
HETATM   21  C6  UNL     1      26.292   6.629  48.263  1.00  0.00     0.310 C 
BRANCH  21  22
HETATM   22  C7  UNL     1      27.790   6.713  48.235  1.00  0.00    -0.037 C 
HETATM   23  C8  UNL     1      28.479   5.583  48.243  1.00  0.00    -0.021 C 
HETATM   24  C9  UNL     1      29.779   5.651  48.293  1.00  0.00     0.012 C 
HETATM   25  C10 UNL     1      30.484   6.887  48.639  1.00  0.00    -0.003 C 
HETATM   26  C11 UNL     1      29.793   8.013  48.588  1.00  0.00    -0.022 C 
HETATM   27  C12 UNL     1      28.361   8.086  48.204  1.00  0.00     0.064 C 
ENDBRANCH  21  22
ENDBRANCH   7  21
TORSDOF 5
ENDMDL
MODEL 7
REMARK VINA RESULT:      -7.6      2.275      7.089
REMARK  5 active torsions:
REMARK  status: ('A' for Active; 'I' for Inactive)
REMARK    1  A    between atoms: C2_2  and  N1_3 
REMARK    2  A    between atoms: C2_2  and  C15_20 
REMARK    3  A    between atoms: N1_3  and  P1_4 
REMARK    4  A    between atoms: N4_10  and  C6_11 
REMARK    5  A    between atoms: C6_11  and  C7_12 
ROOT
HETATM    1  P1  UNL     1      25.251   2.818  51.244  1.00  0.00    -0.017 P 
HETATM    2  C3  UNL     1      25.351   3.353  49.705  1.00  0.00     0.103 C 
HETATM    3  N2  UNL     1      24.709   4.440  49.535  1.00  0.00    -0.238 NA
HETATM    4  C4  UNL     1      23.576   4.566  50.320  1.00  0.00     0.229 C 
HETATM    5  N3  UNL     1      22.431   4.472  49.655  1.00  0.00    -0.253 NA
HETATM    6  C5  UNL     1      21.231   4.611  50.563  1.00  0.00     0.422 C 
HETATM    7  N4  UNL     1      21.082   3.217  51.097  1.00  0.00     0.111 NA
HETATM    8  C13 UNL     1      22.358   2.747  51.211  1.00  0.00     0.281 C 
HETATM    9  C14 UNL     1      23.567   2.173  51.354  1.00  0.00     0.083 C 
HETATM   10  H6  UNL     1      25.446   3.814  52.181  1.00  0.00     0.080 HD
ENDROOT
BRANCH   1  11
HETATM   11  N1  UNL     1      26.427   1.569  51.468  1.00  0.00    -0.391 N 
HETATM   12  H5  UNL     1      27.318   1.743  50.990  1.00  0.00     0.158 HD
BRANCH  11  13
HETATM   13  C2  UNL     1      26.526   0.991  52.750  1.00  0.00     0.109 C 
HETATM   14  C1  UNL     1      26.627   1.998  53.876  1.00  0.00     0.037 C 
BRANCH  13  15
HETATM   15  C15 UNL     1      27.512  -0.065  52.967  1.00  0.00    -0.036 A 
HETATM   16  C16 UNL     1      28.798   0.033  53.450  1.00  0.00     0.009 A 
HETATM   17  C17 UNL     1      29.661  -1.007  53.615  1.00  0.00     0.001 A 
HETATM   18  C18 UNL     1      29.283  -2.286  53.292  1.00  0.00     0.000 A 
HETATM   19  C19 UNL     1      28.015  -2.500  52.800  1.00  0.00     0.001 A 
HETATM   20  C20 UNL     1      27.199  -1.401  52.661  1.00  0.00     0.009 A 
ENDBRANCH  13  15
ENDBRANCH  11  13
ENDBRANCH   1  11
BRANCH   7  21
HETATM   21  C6  UNL     1      20.110   3.092  52.099  1.00  0.00     0.310 C 
BRANCH  21  22
HETATM   22  C7  UNL     1      19.676   1.658  52.177  1.00  0.00    -0.037 C 
HETATM   23  C8  UNL     1      18.707   1.255  51.370  1.00  0.00    -0.021 C 
HETATM   24  C9  UNL     1      18.274   0.031  51.484  1.00  0.00     0.012 C 
HETATM   25  C10 UNL     1      18.597  -0.805  52.641  1.00  0.00    -0.003 C 
HETATM   26  C11 UNL     1      19.593  -0.411  53.416  1.00  0.00    -0.022 C 
HETATM   27  C12 UNL     1      20.389   0.818  53.174  1.00  0.00     0.064 C 
ENDBRANCH  21  22
ENDBRANCH   7  21
TORSDOF 5
ENDMDL
MODEL 8
REMARK VINA RESULT:      -7.6      5.589      9.276
REMARK  5 active torsions:
REMARK  status: ('A' for Active; 'I' for Inactive)
REMARK    1  A    between atoms: C2_2  and  N1_3 
REMARK    2  A    between atoms: C2_2  and  C15_20 
REMARK    3  A    between atoms: N1_3  and  P1_4 
REMARK    4  A    between atoms: N4_10  and  C6_11 
REMARK    5  A    between atoms: C6_11  and  C7_12 
ROOT
HETATM    1  P1  UNL     1      29.080   8.263  48.341  1.00  0.00    -0.017 P 
HETATM    2  C3  UNL     1      29.694   9.422  49.311  1.00  0.00     0.103 C 
HETATM    3  N2  UNL     1      30.438  10.235  48.672  1.00  0.00    -0.238 NA
HETATM    4  C4  UNL     1      31.131   9.670  47.615  1.00  0.00     0.229 C 
HETATM    5  N3  UNL     1      32.438   9.550  47.815  1.00  0.00    -0.253 NA
HETATM    6  C5  UNL     1      33.140   8.924  46.632  1.00  0.00     0.422 C 
HETATM    7  N4  UNL     1      32.927   7.461  46.885  1.00  0.00     0.111 NA
HETATM    8  C13 UNL     1      31.690   7.379  47.456  1.00  0.00     0.281 C 
HETATM    9  C14 UNL     1      30.492   7.178  48.037  1.00  0.00     0.083 C 
HETATM   10  H6  UNL     1      28.588   8.756  47.148  1.00  0.00     0.080 HD
ENDROOT
BRANCH   1  11
HETATM   11  N1  UNL     1      27.819   7.442  49.196  1.00  0.00    -0.391 N 
HETATM   12  H5  UNL     1      27.499   7.931  50.039  1.00  0.00     0.158 HD
BRANCH  11  13
HETATM   13  C2  UNL     1      26.812   6.821  48.430  1.00  0.00     0.109 C 
HETATM   14  C1  UNL     1      25.646   7.725  48.092  1.00  0.00     0.037 C 
BRANCH  13  15
HETATM   15  C15 UNL     1      26.298   5.526  48.871  1.00  0.00    -0.036 A 
HETATM   16  C16 UNL     1      26.990   4.377  49.185  1.00  0.00     0.009 A 
HETATM   17  C17 UNL     1      26.429   3.202  49.584  1.00  0.00     0.001 A 
HETATM   18  C18 UNL     1      25.067   3.082  49.703  1.00  0.00     0.000 A 
HETATM   19  C19 UNL     1      24.277   4.172  49.413  1.00  0.00     0.001 A 
HETATM   20  C20 UNL     1      24.914   5.326  49.017  1.00  0.00     0.009 A 
ENDBRANCH  13  15
ENDBRANCH  11  13
ENDBRANCH   1  11
BRANCH   7  21
HETATM   21  C6  UNL     1      33.360   6.633  45.840  1.00  0.00     0.310 C 
BRANCH  21  22
HETATM   22  C7  UNL     1      33.844   5.336  46.417  1.00  0.00    -0.037 C 
HETATM   23  C8  UNL     1      33.366   4.210  45.912  1.00  0.00    -0.021 C 
HETATM   24  C9  UNL     1      33.725   3.083  46.459  1.00  0.00     0.012 C 
HETATM   25  C10 UNL     1      34.382   3.025  47.766  1.00  0.00    -0.003 C 
HETATM   26  C11 UNL     1      34.890   4.149  48.240  1.00  0.00    -0.022 C 
HETATM   27  C12 UNL     1      34.831   5.448  47.524  1.00  0.00     0.064 C 
ENDBRANCH  21  22
ENDBRANCH   7  21
TORSDOF 5
ENDMDL
MODEL 9
REMARK VINA RESULT:      -7.4      1.982      3.230
REMARK  5 active torsions:
REMARK  status: ('A' for Active; 'I' for Inactive)
REMARK    1  A    between atoms: C2_2  and  N1_3 
REMARK    2  A    between atoms: C2_2  and  C15_20 
REMARK    3  A    between atoms: N1_3  and  P1_4 
REMARK    4  A    between atoms: N4_10  and  C6_11 
REMARK    5  A    between atoms: C6_11  and  C7_12 
ROOT
HETATM    1  P1  UNL     1      22.581   4.981  48.336  1.00  0.00    -0.017 P 
HETATM    2  C3  UNL     1      22.219   4.048  47.046  1.00  0.00     0.103 C 
HETATM    3  N2  UNL     1      21.287   3.218  47.304  1.00  0.00    -0.238 NA
HETATM    4  C4  UNL     1      21.269   2.764  48.612  1.00  0.00     0.229 C 
HETATM    5  N3  UNL     1      21.636   1.497  48.760  1.00  0.00    -0.253 NA
HETATM    6  C5  UNL     1      21.601   1.059  50.206  1.00  0.00     0.422 C 
HETATM    7  N4  UNL     1      22.928   1.545  50.709  1.00  0.00     0.111 NA
HETATM    8  C13 UNL     1      23.155   2.710  50.035  1.00  0.00     0.281 C 
HETATM    9  C14 UNL     1      23.491   3.860  49.422  1.00  0.00     0.083 C 
HETATM   10  H6  UNL     1      21.464   5.475  48.981  1.00  0.00     0.080 HD
ENDROOT
BRANCH   1  11
HETATM   11  N1  UNL     1      23.573   6.294  47.802  1.00  0.00    -0.391 N 
HETATM   12  H5  UNL     1      23.077   6.986  47.229  1.00  0.00     0.158 HD
BRANCH  11  13
HETATM   13  C2  UNL     1      24.508   6.817  48.717  1.00  0.00     0.109 C 
HETATM   14  C1  UNL     1      24.228   8.244  49.140  1.00  0.00     0.037 C 
BRANCH  13  15
HETATM   15  C15 UNL     1      25.931   6.681  48.418  1.00  0.00    -0.036 A 
HETATM   16  C16 UNL     1      26.770   7.556  47.763  1.00  0.00     0.009 A 
HETATM   17  C17 UNL     1      28.093   7.347  47.518  1.00  0.00     0.001 A 
HETATM   18  C18 UNL     1      28.706   6.190  47.926  1.00  0.00     0.000 A 
HETATM   19  C19 UNL     1      27.960   5.243  48.592  1.00  0.00     0.001 A 
HETATM   20  C20 UNL     1      26.629   5.523  48.806  1.00  0.00     0.009 A 
ENDBRANCH  13  15
ENDBRANCH  11  13
ENDBRANCH   1  11
BRANCH   7  21
HETATM   21  C6  UNL     1      23.102   1.397  52.092  1.00  0.00     0.310 C 
BRANCH  21  22
HETATM   22  C7  UNL     1      24.481   0.866  52.353  1.00  0.00    -0.037 C 
HETATM   23  C8  UNL     1      25.507   1.494  51.801  1.00  0.00    -0.021 C 
HETATM   24  C9  UNL     1      26.699   0.994  51.962  1.00  0.00     0.012 C 
HETATM   25  C10 UNL     1      26.915  -0.365  52.462  1.00  0.00    -0.003 C 
HETATM   26  C11 UNL     1      25.893  -0.965  53.048  1.00  0.00    -0.022 C 
HETATM   27  C12 UNL     1      24.558  -0.339  53.221  1.00  0.00     0.064 C 
ENDBRANCH  21  22
ENDBRANCH   7  21
TORSDOF 5
ENDMDL
