MODEL 1
REMARK VINA RESULT:      -7.7      0.000      0.000
REMARK  3 active torsions:
REMARK  status: ('A' for Active; 'I' for Inactive)
REMARK    1  A    between atoms: S1_2  and  C2_3 
REMARK    2  A    between atoms: C2_3  and  C3_4 
REMARK    3  A    between atoms: C9_10  and  C10_11 
ROOT
HETATM    1  C3  UNL     1      20.693   1.020  52.747  1.00  0.00    -0.055 C 
HETATM    2  C4  UNL     1      20.570   0.756  54.046  1.00  0.00    -0.015 C 
HETATM    3  C5  UNL     1      21.542  -0.263  54.587  1.00  0.00     0.029 C 
HETATM    4  C6  UNL     1      21.105  -1.651  54.274  1.00  0.00     0.016 C 
HETATM    5  C7  UNL     1      22.885   0.117  54.067  1.00  0.00     0.117 C 
HETATM    6  C8  UNL     1      23.957  -0.937  54.243  1.00  0.00     0.089 C 
HETATM    7  C9  UNL     1      25.013  -0.265  53.400  1.00  0.00     0.066 C 
HETATM    8  N1  UNL     1      24.373   0.441  52.511  1.00  0.00    -0.180 NA
HETATM    9  N2  UNL     1      22.985   0.321  52.658  1.00  0.00    -0.295 N 
HETATM   10  C16 UNL     1      21.731   0.334  51.912  1.00  0.00     0.179 C 
ENDROOT
BRANCH   7  11
HETATM   11  C10 UNL     1      26.457  -0.395  53.569  1.00  0.00    -0.010 A 
HETATM   12  C11 UNL     1      27.131   0.483  54.397  1.00  0.00     0.016 A 
HETATM   13  C12 UNL     1      28.495   0.328  54.532  1.00  0.00     0.043 A 
HETATM   14  C13 UNL     1      29.136  -0.688  53.841  1.00  0.00     0.116 A 
HETATM   15  F1  UNL     1      30.492  -0.854  53.964  1.00  0.00    -0.206 F 
HETATM   16  C14 UNL     1      28.462  -1.572  53.008  1.00  0.00     0.043 A 
HETATM   17  C15 UNL     1      27.098  -1.403  52.885  1.00  0.00     0.016 A 
ENDBRANCH   7  11
BRANCH   1  18
HETATM   18  C2  UNL     1      19.810   2.007  52.043  1.00  0.00     0.109 C 
BRANCH  18  19
HETATM   19  S1  UNL     1      20.852   3.147  51.092  1.00  0.00    -0.169 SA
HETATM   20  C1  UNL     1      21.962   4.073  52.168  1.00  0.00     0.090 C 
ENDBRANCH  18  19
ENDBRANCH   1  18
TORSDOF 3
ENDMDL
MODEL 2
REMARK VINA RESULT:      -7.7      1.779      2.933
REMARK  3 active torsions:
REMARK  status: ('A' for Active; 'I' for Inactive)
REMARK    1  A    between atoms: S1_2  and  C2_3 
REMARK    2  A    between atoms: C2_3  and  C3_4 
REMARK    3  A    between atoms: C9_10  and  C10_11 
ROOT
HETATM    1  C3  UNL     1      20.572  -0.042  53.122  1.00  0.00    -0.055 C 
HETATM    2  C4  UNL     1      20.818   0.486  51.924  1.00  0.00    -0.015 C 
HETATM    3  C5  UNL     1      22.119   1.242  51.814  1.00  0.00     0.029 C 
HETATM    4  C6  UNL     1      22.003   2.611  52.385  1.00  0.00     0.016 C 
HETATM    5  C7  UNL     1      23.163   0.379  52.434  1.00  0.00     0.117 C 
HETATM    6  C8  UNL     1      24.485   1.067  52.697  1.00  0.00     0.089 C 
HETATM    7  C9  UNL     1      25.109  -0.043  53.509  1.00  0.00     0.066 C 
HETATM    8  N1  UNL     1      24.123  -0.673  54.082  1.00  0.00    -0.180 NA
HETATM    9  N2  UNL     1      22.886  -0.108  53.748  1.00  0.00    -0.295 N 
HETATM   10  C16 UNL     1      21.537   0.123  54.255  1.00  0.00     0.179 C 
ENDROOT
BRANCH   7  11
HETATM   11  C10 UNL     1      26.536  -0.332  53.612  1.00  0.00    -0.010 A 
HETATM   12  C11 UNL     1      27.085  -1.349  52.854  1.00  0.00     0.016 A 
HETATM   13  C12 UNL     1      28.437  -1.592  52.978  1.00  0.00     0.043 A 
HETATM   14  C13 UNL     1      29.190  -0.819  53.847  1.00  0.00     0.116 A 
HETATM   15  F1  UNL     1      30.535  -1.048  53.982  1.00  0.00    -0.206 F 
HETATM   16  C14 UNL     1      28.643   0.204  54.610  1.00  0.00     0.043 A 
HETATM   17  C15 UNL     1      27.288   0.434  54.473  1.00  0.00     0.016 A 
ENDBRANCH   7  11
BRANCH   1  18
HETATM   18  C2  UNL     1      19.325  -0.825  53.410  1.00  0.00     0.109 C 
BRANCH  18  19
HETATM   19  S1  UNL     1      18.089  -0.442  52.139  1.00  0.00    -0.169 SA
HETATM   20  C1  UNL     1      16.494  -1.184  52.531  1.00  0.00     0.090 C 
ENDBRANCH  18  19
ENDBRANCH   1  18
TORSDOF 3
ENDMDL
MODEL 3
REMARK VINA RESULT:      -7.4      4.138      7.401
REMARK  3 active torsions:
REMARK  status: ('A' for Active; 'I' for Inactive)
REMARK    1  A    between atoms: S1_2  and  C2_3 
REMARK    2  A    between atoms: C2_3  and  C3_4 
REMARK    3  A    between atoms: C9_10  and  C10_11 
ROOT
HETATM    1  C3  UNL     1      26.345   0.735  53.942  1.00  0.00    -0.055 C 
HETATM    2  C4  UNL     1      26.081   2.030  53.782  1.00  0.00    -0.015 C 
HETATM    3  C5  UNL     1      24.997   2.343  52.780  1.00  0.00     0.029 C 
HETATM    4  C6  UNL     1      25.513   2.284  51.385  1.00  0.00     0.016 C 
HETATM    5  C7  UNL     1      23.866   1.422  53.081  1.00  0.00     0.117 C 
HETATM    6  C8  UNL     1      22.793   1.361  52.015  1.00  0.00     0.089 C 
HETATM    7  C9  UNL     1      22.030   0.193  52.591  1.00  0.00     0.066 C 
HETATM    8  N1  UNL     1      22.901  -0.523  53.245  1.00  0.00    -0.180 NA
HETATM    9  N2  UNL     1      24.184   0.034  53.175  1.00  0.00    -0.295 N 
HETATM   10  C16 UNL     1      25.602  -0.310  53.167  1.00  0.00     0.179 C 
ENDROOT
BRANCH   7  11
HETATM   11  C10 UNL     1      20.601  -0.060  52.434  1.00  0.00    -0.010 A 
HETATM   12  C11 UNL     1      19.916  -0.752  53.415  1.00  0.00     0.016 A 
HETATM   13  C12 UNL     1      18.567  -0.972  53.231  1.00  0.00     0.043 A 
HETATM   14  C13 UNL     1      17.951  -0.496  52.084  1.00  0.00     0.116 A 
HETATM   15  F1  UNL     1      16.610  -0.706  51.886  1.00  0.00    -0.206 F 
HETATM   16  C14 UNL     1      18.635   0.200  51.096  1.00  0.00     0.043 A 
HETATM   17  C15 UNL     1      19.985   0.410  51.297  1.00  0.00     0.016 A 
ENDBRANCH   7  11
BRANCH   1  18
HETATM   18  C2  UNL     1      27.392   0.244  54.897  1.00  0.00     0.109 C 
BRANCH  18  19
HETATM   19  S1  UNL     1      29.029   0.565  54.184  1.00  0.00    -0.169 SA
HETATM   20  C1  UNL     1      29.783  -0.949  53.564  1.00  0.00     0.090 C 
ENDBRANCH  18  19
ENDBRANCH   1  18
TORSDOF 3
ENDMDL
MODEL 4
REMARK VINA RESULT:      -7.4      1.316      1.516
REMARK  3 active torsions:
REMARK  status: ('A' for Active; 'I' for Inactive)
REMARK    1  A    between atoms: S1_2  and  C2_3 
REMARK    2  A    between atoms: C2_3  and  C3_4 
REMARK    3  A    between atoms: C9_10  and  C10_11 
ROOT
HETATM    1  C3  UNL     1      21.733   2.398  51.523  1.00  0.00    -0.055 C 
HETATM    2  C4  UNL     1      21.343   2.045  52.747  1.00  0.00    -0.015 C 
HETATM    3  C5  UNL     1      22.032   0.827  53.310  1.00  0.00     0.029 C 
HETATM    4  C6  UNL     1      21.443  -0.429  52.771  1.00  0.00     0.016 C 
HETATM    5  C7  UNL     1      23.488   1.010  53.056  1.00  0.00     0.117 C 
HETATM    6  C8  UNL     1      24.333  -0.227  53.274  1.00  0.00     0.089 C 
HETATM    7  C9  UNL     1      25.613   0.322  52.692  1.00  0.00     0.066 C 
HETATM    8  N1  UNL     1      25.258   1.206  51.803  1.00  0.00    -0.180 NA
HETATM    9  N2  UNL     1      23.865   1.318  51.714  1.00  0.00    -0.295 N 
HETATM   10  C16 UNL     1      22.779   1.618  50.787  1.00  0.00     0.179 C 
ENDROOT
BRANCH   7  11
HETATM   11  C10 UNL     1      26.966  -0.074  53.070  1.00  0.00    -0.010 A 
HETATM   12  C11 UNL     1      27.785   0.826  53.725  1.00  0.00     0.016 A 
HETATM   13  C12 UNL     1      29.058   0.415  54.066  1.00  0.00     0.043 A 
HETATM   14  C13 UNL     1      29.466  -0.869  53.745  1.00  0.00     0.116 A 
HETATM   15  F1  UNL     1      30.728  -1.292  54.076  1.00  0.00    -0.206 F 
HETATM   16  C14 UNL     1      28.646  -1.777  53.087  1.00  0.00     0.043 A 
HETATM   17  C15 UNL     1      27.377  -1.349  52.753  1.00  0.00     0.016 A 
ENDBRANCH   7  11
BRANCH   1  18
HETATM   18  C2  UNL     1      21.153   3.584  50.809  1.00  0.00     0.109 C 
BRANCH  18  19
HETATM   19  S1  UNL     1      22.433   4.862  50.670  1.00  0.00    -0.169 SA
HETATM   20  C1  UNL     1      23.413   4.976  52.177  1.00  0.00     0.090 C 
ENDBRANCH  18  19
ENDBRANCH   1  18
TORSDOF 3
ENDMDL
MODEL 5
REMARK VINA RESULT:      -7.3      3.955      5.705
REMARK  3 active torsions:
REMARK  status: ('A' for Active; 'I' for Inactive)
REMARK    1  A    between atoms: S1_2  and  C2_3 
REMARK    2  A    between atoms: C2_3  and  C3_4 
REMARK    3  A    between atoms: C9_10  and  C10_11 
ROOT
HETATM    1  C3  UNL     1      24.308  -0.795  54.414  1.00  0.00    -0.055 C 
HETATM    2  C4  UNL     1      25.566  -0.641  54.825  1.00  0.00    -0.015 C 
HETATM    3  C5  UNL     1      26.534  -0.181  53.764  1.00  0.00     0.029 C 
HETATM    4  C6  UNL     1      26.965  -1.310  52.895  1.00  0.00     0.016 C 
HETATM    5  C7  UNL     1      25.877   0.954  53.056  1.00  0.00     0.117 C 
HETATM    6  C8  UNL     1      26.546   1.372  51.764  1.00  0.00     0.089 C 
HETATM    7  C9  UNL     1      25.466   2.318  51.298  1.00  0.00     0.066 C 
HETATM    8  N1  UNL     1      24.351   1.874  51.806  1.00  0.00    -0.180 NA
HETATM    9  N2  UNL     1      24.555   0.719  52.571  1.00  0.00    -0.295 N 
HETATM   10  C16 UNL     1      23.918  -0.524  52.993  1.00  0.00     0.179 C 
ENDROOT
BRANCH   7  11
HETATM   11  C10 UNL     1      25.660   3.489  50.450  1.00  0.00    -0.010 A 
HETATM   12  C11 UNL     1      24.697   4.481  50.421  1.00  0.00     0.016 A 
HETATM   13  C12 UNL     1      24.916   5.573  49.607  1.00  0.00     0.043 A 
HETATM   14  C13 UNL     1      26.078   5.639  48.856  1.00  0.00     0.116 A 
HETATM   15  F1  UNL     1      26.310   6.718  48.041  1.00  0.00    -0.206 F 
HETATM   16  C14 UNL     1      27.048   4.645  48.881  1.00  0.00     0.043 A 
HETATM   17  C15 UNL     1      26.812   3.559  49.701  1.00  0.00     0.016 A 
ENDBRANCH   7  11
BRANCH   1  18
HETATM   18  C2  UNL     1      23.214  -1.246  55.336  1.00  0.00     0.109 C 
BRANCH  18  19
HETATM   19  S1  UNL     1      21.651  -1.276  54.415  1.00  0.00    -0.169 SA
HETATM   20  C1  UNL     1      20.768   0.287  54.572  1.00  0.00     0.090 C 
ENDBRANCH  18  19
ENDBRANCH   1  18
TORSDOF 3
ENDMDL
MODEL 6
REMARK VINA RESULT:      -7.0      2.339      3.892
REMARK  3 active torsions:
REMARK  status: ('A' for Active; 'I' for Inactive)
REMARK    1  A    between atoms: S1_2  and  C2_3 
REMARK    2  A    between atoms: C2_3  and  C3_4 
REMARK    3  A    between atoms: C9_10  and  C10_11 
ROOT
HETATM    1  C3  UNL     1      22.320   4.006  51.166  1.00  0.00    -0.055 C 
HETATM    2  C4  UNL     1      22.671   3.691  49.920  1.00  0.00    -0.015 C 
HETATM    3  C5  UNL     1      24.152   3.511  49.699  1.00  0.00     0.029 C 
HETATM    4  C6  UNL     1      24.843   4.821  49.553  1.00  0.00     0.016 C 
HETATM    5  C7  UNL     1      24.644   2.650  50.811  1.00  0.00     0.117 C 
HETATM    6  C8  UNL     1      26.150   2.588  50.950  1.00  0.00     0.089 C 
HETATM    7  C9  UNL     1      26.180   1.857  52.270  1.00  0.00     0.066 C 
HETATM    8  N1  UNL     1      25.082   2.184  52.892  1.00  0.00    -0.180 NA
HETATM    9  N2  UNL     1      24.302   3.065  52.133  1.00  0.00    -0.295 N 
HETATM   10  C16 UNL     1      23.348   4.163  52.244  1.00  0.00     0.179 C 
ENDROOT
BRANCH   7  11
HETATM   11  C10 UNL     1      27.240   0.966  52.733  1.00  0.00    -0.010 A 
HETATM   12  C11 UNL     1      27.107  -0.400  52.564  1.00  0.00     0.016 A 
HETATM   13  C12 UNL     1      28.129  -1.210  53.014  1.00  0.00     0.043 A 
HETATM   14  C13 UNL     1      29.240  -0.636  53.612  1.00  0.00     0.116 A 
HETATM   15  F1  UNL     1      30.264  -1.427  54.064  1.00  0.00    -0.206 F 
HETATM   16  C14 UNL     1      29.377   0.736  53.783  1.00  0.00     0.043 A 
HETATM   17  C15 UNL     1      28.344   1.531  53.327  1.00  0.00     0.016 A 
ENDBRANCH   7  11
BRANCH   1  18
HETATM   18  C2  UNL     1      20.890   4.222  51.565  1.00  0.00     0.109 C 
BRANCH  18  19
HETATM   19  S1  UNL     1      20.282   2.724  52.387  1.00  0.00    -0.169 SA
HETATM   20  C1  UNL     1      20.141   1.351  51.229  1.00  0.00     0.090 C 
ENDBRANCH  18  19
ENDBRANCH   1  18
TORSDOF 3
ENDMDL
MODEL 7
REMARK VINA RESULT:      -7.0      2.699      3.709
REMARK  3 active torsions:
REMARK  status: ('A' for Active; 'I' for Inactive)
REMARK    1  A    between atoms: S1_2  and  C2_3 
REMARK    2  A    between atoms: C2_3  and  C3_4 
REMARK    3  A    between atoms: C9_10  and  C10_11 
ROOT
HETATM    1  C3  UNL     1      23.545   4.556  50.354  1.00  0.00    -0.055 C 
HETATM    2  C4  UNL     1      23.064   4.640  51.594  1.00  0.00    -0.015 C 
HETATM    3  C5  UNL     1      23.241   3.399  52.433  1.00  0.00     0.029 C 
HETATM    4  C6  UNL     1      22.211   2.374  52.113  1.00  0.00     0.016 C 
HETATM    5  C7  UNL     1      24.654   2.964  52.251  1.00  0.00     0.117 C 
HETATM    6  C8  UNL     1      24.964   1.575  52.767  1.00  0.00     0.089 C 
HETATM    7  C9  UNL     1      26.351   1.468  52.180  1.00  0.00     0.066 C 
HETATM    8  N1  UNL     1      26.350   2.213  51.111  1.00  0.00    -0.180 NA
HETATM    9  N2  UNL     1      25.105   2.820  50.904  1.00  0.00    -0.295 N 
HETATM   10  C16 UNL     1      24.206   3.305  49.862  1.00  0.00     0.179 C 
ENDROOT
BRANCH   7  11
HETATM   11  C10 UNL     1      27.453   0.680  52.722  1.00  0.00    -0.010 A 
HETATM   12  C11 UNL     1      28.548   1.322  53.270  1.00  0.00     0.016 A 
HETATM   13  C12 UNL     1      29.570   0.545  53.773  1.00  0.00     0.043 A 
HETATM   14  C13 UNL     1      29.468  -0.836  53.712  1.00  0.00     0.116 A 
HETATM   15  F1  UNL     1      30.476  -1.623  54.207  1.00  0.00    -0.206 F 
HETATM   16  C14 UNL     1      28.370  -1.485  53.162  1.00  0.00     0.043 A 
HETATM   17  C15 UNL     1      27.356  -0.691  52.663  1.00  0.00     0.016 A 
ENDBRANCH   7  11
BRANCH   1  18
HETATM   18  C2  UNL     1      23.455   5.695  49.382  1.00  0.00     0.109 C 
BRANCH  18  19
HETATM   19  S1  UNL     1      25.135   6.217  48.939  1.00  0.00    -0.169 SA
HETATM   20  C1  UNL     1      25.805   7.369  50.153  1.00  0.00     0.090 C 
ENDBRANCH  18  19
ENDBRANCH   1  18
TORSDOF 3
ENDMDL
MODEL 8
REMARK VINA RESULT:      -6.9      2.933      3.685
REMARK  3 active torsions:
REMARK  status: ('A' for Active; 'I' for Inactive)
REMARK    1  A    between atoms: S1_2  and  C2_3 
REMARK    2  A    between atoms: C2_3  and  C3_4 
REMARK    3  A    between atoms: C9_10  and  C10_11 
ROOT
HETATM    1  C3  UNL     1      22.306   3.823  51.283  1.00  0.00    -0.055 C 
HETATM    2  C4  UNL     1      22.585   3.395  50.052  1.00  0.00    -0.015 C 
HETATM    3  C5  UNL     1      24.053   3.212  49.757  1.00  0.00     0.029 C 
HETATM    4  C6  UNL     1      24.712   4.509  49.446  1.00  0.00     0.016 C 
HETATM    5  C7  UNL     1      24.626   2.466  50.913  1.00  0.00     0.117 C 
HETATM    6  C8  UNL     1      26.139   2.434  50.963  1.00  0.00     0.089 C 
HETATM    7  C9  UNL     1      26.262   1.832  52.342  1.00  0.00     0.066 C 
HETATM    8  N1  UNL     1      25.199   2.204  52.997  1.00  0.00    -0.180 NA
HETATM    9  N2  UNL     1      24.359   3.001  52.209  1.00  0.00    -0.295 N 
HETATM   10  C16 UNL     1      23.395   4.094  52.275  1.00  0.00     0.179 C 
ENDROOT
BRANCH   7  11
HETATM   11  C10 UNL     1      27.363   1.001  52.819  1.00  0.00    -0.010 A 
HETATM   12  C11 UNL     1      28.483   1.598  53.367  1.00  0.00     0.016 A 
HETATM   13  C12 UNL     1      29.503   0.779  53.807  1.00  0.00     0.043 A 
HETATM   14  C13 UNL     1      29.372  -0.595  53.687  1.00  0.00     0.116 A 
HETATM   15  F1  UNL     1      30.377  -1.422  54.119  1.00  0.00    -0.206 F 
HETATM   16  C14 UNL     1      28.248  -1.198  53.137  1.00  0.00     0.043 A 
HETATM   17  C15 UNL     1      27.238  -0.364  52.702  1.00  0.00     0.016 A 
ENDBRANCH   7  11
BRANCH   1  18
HETATM   18  C2  UNL     1      20.900   4.060  51.748  1.00  0.00     0.109 C 
BRANCH  18  19
HETATM   19  S1  UNL     1      19.880   4.509  50.316  1.00  0.00    -0.169 SA
HETATM   20  C1  UNL     1      20.152   6.223  49.829  1.00  0.00     0.090 C 
ENDBRANCH  18  19
ENDBRANCH   1  18
TORSDOF 3
ENDMDL
MODEL 9
REMARK VINA RESULT:      -6.8      9.136     11.872
REMARK  3 active torsions:
REMARK  status: ('A' for Active; 'I' for Inactive)
REMARK    1  A    between atoms: S1_2  and  C2_3 
REMARK    2  A    between atoms: C2_3  and  C3_4 
REMARK    3  A    between atoms: C9_10  and  C10_11 
ROOT
HETATM    1  C3  UNL     1      33.469   6.171  47.997  1.00  0.00    -0.055 C 
HETATM    2  C4  UNL     1      33.290   7.353  48.585  1.00  0.00    -0.015 C 
HETATM    3  C5  UNL     1      31.944   7.989  48.342  1.00  0.00     0.029 C 
HETATM    4  C6  UNL     1      31.887   8.652  47.011  1.00  0.00     0.016 C 
HETATM    5  C7  UNL     1      30.926   6.925  48.569  1.00  0.00     0.117 C 
HETATM    6  C8  UNL     1      29.531   7.267  48.093  1.00  0.00     0.089 C 
HETATM    7  C9  UNL     1      28.932   5.893  48.283  1.00  0.00     0.066 C 
HETATM    8  N1  UNL     1      29.913   5.047  48.137  1.00  0.00    -0.180 NA
HETATM    9  N2  UNL     1      31.122   5.699  47.865  1.00  0.00    -0.295 N 
HETATM   10  C16 UNL     1      32.392   5.548  47.163  1.00  0.00     0.179 C 
ENDROOT
BRANCH   7  11
HETATM   11  C10 UNL     1      27.533   5.601  48.574  1.00  0.00    -0.010 A 
HETATM   12  C11 UNL     1      27.180   4.355  49.059  1.00  0.00     0.016 A 
HETATM   13  C12 UNL     1      25.847   4.115  49.322  1.00  0.00     0.043 A 
HETATM   14  C13 UNL     1      24.919   5.118  49.095  1.00  0.00     0.116 A 
HETATM   15  F1  UNL     1      23.590   4.896  49.351  1.00  0.00    -0.206 F 
HETATM   16  C14 UNL     1      25.268   6.371  48.608  1.00  0.00     0.043 A 
HETATM   17  C15 UNL     1      26.606   6.593  48.350  1.00  0.00     0.016 A 
ENDBRANCH   7  11
BRANCH   1  18
HETATM   18  C2  UNL     1      34.747   5.396  48.131  1.00  0.00     0.109 C 
BRANCH  18  19
HETATM   19  S1  UNL     1      34.495   3.734  47.449  1.00  0.00    -0.169 SA
HETATM   20  C1  UNL     1      35.136   3.611  45.769  1.00  0.00     0.090 C 
ENDBRANCH  18  19
ENDBRANCH   1  18
TORSDOF 3
ENDMDL
