MODEL 1
REMARK VINA RESULT:      -7.6      0.000      0.000
REMARK  9 active torsions:
REMARK  status: ('A' for Active; 'I' for Inactive)
REMARK    1  A    between atoms: C5_7  and  O1_8 
REMARK    2  A    between atoms: O1_8  and  C6_9 
REMARK    3  A    between atoms: C6_9  and  C7_10 
REMARK    4  A    between atoms: C8_11  and  C9_12 
REMARK    5  A    between atoms: C10_13  and  C11_14 
REMARK    6  A    between atoms: C12_16  and  C13_17 
REMARK    7  A    between atoms: C14_18  and  C15_19 
REMARK    8  A    between atoms: C18_22  and  C19_23 
REMARK    9  A    between atoms: C19_23  and  N3_24 
ROOT
HETATM    1  C1  UNL     1      26.674  -2.348  52.448  1.00  0.00     0.072 C 
HETATM    2  C2  UNL     1      27.403  -1.183  53.036  1.00  0.00     0.053 C 
HETATM    3  N1  UNL     1      28.684  -1.323  53.270  1.00  0.00    -0.246 NA
HETATM    4  C3  UNL     1      29.587  -0.352  53.827  1.00  0.00     0.227 C 
HETATM    5  N2  UNL     1      29.468   0.926  53.890  1.00  0.00    -0.276 NA
HETATM    6  C4  UNL     1      28.454   1.828  53.454  1.00  0.00     0.216 C 
HETATM    7  C5  UNL     1      27.108   1.255  53.473  1.00  0.00     0.087 C 
HETATM    8  C12 UNL     1      26.630   0.034  53.308  1.00  0.00     0.073 C 
ENDROOT
BRANCH   8   9
HETATM    9  C13 UNL     1      25.213  -0.200  53.389  1.00  0.00    -0.055 C 
HETATM   10  C14 UNL     1      24.027  -0.405  53.476  1.00  0.00    -0.036 C 
BRANCH  10  11
HETATM   11  C15 UNL     1      22.620  -0.661  53.600  1.00  0.00     0.129 A 
HETATM   12  C16 UNL     1      21.961  -1.544  54.439  1.00  0.00     0.049 A 
HETATM   13  C17 UNL     1      20.633  -1.354  54.113  1.00  0.00     0.038 A 
HETATM   14  C18 UNL     1      20.519  -0.401  53.125  1.00  0.00     0.083 A 
HETATM   15  O2  UNL     1      21.744  -0.018  52.853  1.00  0.00    -0.304 OA
BRANCH  14  16
HETATM   16  C19 UNL     1      19.296   0.142  52.447  1.00  0.00     0.337 C 
BRANCH  16  17
HETATM   17  N3  UNL     1      19.731   1.188  51.518  1.00  0.00     0.094 N 
HETATM   18  C20 UNL     1      19.341   0.887  50.175  1.00  0.00     0.273 C 
HETATM   19  C21 UNL     1      19.115   2.219  49.527  1.00  0.00     0.032 C 
HETATM   20  C22 UNL     1      19.342   3.269  50.620  1.00  0.00     0.032 C 
HETATM   21  C23 UNL     1      19.163   2.468  51.875  1.00  0.00     0.273 C 
ENDBRANCH  16  17
ENDBRANCH  14  16
ENDBRANCH  10  11
ENDBRANCH   8   9
BRANCH   7  22
HETATM   22  O1  UNL     1      26.111   2.203  53.719  1.00  0.00    -0.348 OA
BRANCH  22  23
HETATM   23  C6  UNL     1      25.430   2.879  52.704  1.00  0.00     0.203 C 
BRANCH  23  24
HETATM   24  C7  UNL     1      24.033   3.241  53.054  1.00  0.00    -0.000 C 
HETATM   25  C8  UNL     1      23.047   3.378  52.193  1.00  0.00    -0.002 C 
BRANCH  25  26
HETATM   26  C9  UNL     1      22.955   3.243  50.751  1.00  0.00    -0.002 C 
HETATM   27  C10 UNL     1      22.851   2.147  50.018  1.00  0.00     0.004 C 
BRANCH  27  28
HETATM   28  C11 UNL     1      22.773   2.283  48.545  1.00  0.00     0.249 C 
HETATM   29  F1  UNL     1      22.152   1.214  47.966  1.00  0.00    -0.251 F 
ENDBRANCH  27  28
ENDBRANCH  25  26
ENDBRANCH  23  24
ENDBRANCH  22  23
ENDBRANCH   7  22
TORSDOF 9
ENDMDL
MODEL 2
REMARK VINA RESULT:      -7.4      4.185      7.774
REMARK  9 active torsions:
REMARK  status: ('A' for Active; 'I' for Inactive)
REMARK    1  A    between atoms: C5_7  and  O1_8 
REMARK    2  A    between atoms: O1_8  and  C6_9 
REMARK    3  A    between atoms: C6_9  and  C7_10 
REMARK    4  A    between atoms: C8_11  and  C9_12 
REMARK    5  A    between atoms: C10_13  and  C11_14 
REMARK    6  A    between atoms: C12_16  and  C13_17 
REMARK    7  A    between atoms: C14_18  and  C15_19 
REMARK    8  A    between atoms: C18_22  and  C19_23 
REMARK    9  A    between atoms: C19_23  and  N3_24 
ROOT
HETATM    1  C1  UNL     1      21.282   1.000  49.608  1.00  0.00     0.072 C 
HETATM    2  C2  UNL     1      21.224   0.631  51.055  1.00  0.00     0.053 C 
HETATM    3  N1  UNL     1      20.086   0.182  51.523  1.00  0.00    -0.246 NA
HETATM    4  C3  UNL     1      19.791  -0.232  52.868  1.00  0.00     0.227 C 
HETATM    5  N2  UNL     1      20.596  -0.594  53.802  1.00  0.00    -0.276 NA
HETATM    6  C4  UNL     1      22.014  -0.721  53.865  1.00  0.00     0.216 C 
HETATM    7  C5  UNL     1      22.728   0.220  53.002  1.00  0.00     0.087 C 
HETATM    8  C12 UNL     1      22.447   0.799  51.848  1.00  0.00     0.073 C 
ENDROOT
BRANCH   8   9
HETATM    9  C13 UNL     1      23.394   1.700  51.246  1.00  0.00    -0.055 C 
HETATM   10  C14 UNL     1      24.185   2.468  50.757  1.00  0.00    -0.036 C 
BRANCH  10  11
HETATM   11  C15 UNL     1      25.120   3.401  50.192  1.00  0.00     0.129 A 
HETATM   12  C16 UNL     1      26.358   3.163  49.620  1.00  0.00     0.049 A 
HETATM   13  C17 UNL     1      26.785   4.426  49.262  1.00  0.00     0.038 A 
HETATM   14  C18 UNL     1      25.839   5.364  49.610  1.00  0.00     0.083 A 
HETATM   15  O2  UNL     1      24.858   4.693  50.166  1.00  0.00    -0.304 OA
BRANCH  14  16
HETATM   16  C19 UNL     1      25.845   6.853  49.429  1.00  0.00     0.337 C 
BRANCH  16  17
HETATM   17  N3  UNL     1      27.088   7.211  48.739  1.00  0.00     0.094 N 
HETATM   18  C20 UNL     1      26.846   7.543  47.370  1.00  0.00     0.273 C 
HETATM   19  C21 UNL     1      27.889   8.562  47.026  1.00  0.00     0.032 C 
HETATM   20  C22 UNL     1      28.677   8.817  48.315  1.00  0.00     0.032 C 
HETATM   21  C23 UNL     1      27.724   8.344  49.371  1.00  0.00     0.273 C 
ENDBRANCH  16  17
ENDBRANCH  14  16
ENDBRANCH  10  11
ENDBRANCH   8   9
BRANCH   7  22
HETATM   22  O1  UNL     1      23.979   0.586  53.506  1.00  0.00    -0.348 OA
BRANCH  22  23
HETATM   23  C6  UNL     1      24.941  -0.340  53.918  1.00  0.00     0.203 C 
BRANCH  23  24
HETATM   24  C7  UNL     1      25.757  -0.895  52.810  1.00  0.00    -0.000 C 
HETATM   25  C8  UNL     1      26.950  -0.465  52.458  1.00  0.00    -0.002 C 
BRANCH  25  26
HETATM   26  C9  UNL     1      27.819   0.585  52.954  1.00  0.00    -0.002 C 
HETATM   27  C10 UNL     1      28.555   0.611  54.054  1.00  0.00     0.004 C 
BRANCH  27  28
HETATM   28  C11 UNL     1      29.364   1.820  54.336  1.00  0.00     0.249 C 
HETATM   29  F1  UNL     1      28.849   2.931  53.732  1.00  0.00    -0.251 F 
ENDBRANCH  27  28
ENDBRANCH  25  26
ENDBRANCH  23  24
ENDBRANCH  22  23
ENDBRANCH   7  22
TORSDOF 9
ENDMDL
MODEL 3
REMARK VINA RESULT:      -7.3      3.853      7.316
REMARK  9 active torsions:
REMARK  status: ('A' for Active; 'I' for Inactive)
REMARK    1  A    between atoms: C5_7  and  O1_8 
REMARK    2  A    between atoms: O1_8  and  C6_9 
REMARK    3  A    between atoms: C6_9  and  C7_10 
REMARK    4  A    between atoms: C8_11  and  C9_12 
REMARK    5  A    between atoms: C10_13  and  C11_14 
REMARK    6  A    between atoms: C12_16  and  C13_17 
REMARK    7  A    between atoms: C14_18  and  C15_19 
REMARK    8  A    between atoms: C18_22  and  C19_23 
REMARK    9  A    between atoms: C19_23  and  N3_24 
ROOT
HETATM    1  C1  UNL     1      27.611   4.745  48.836  1.00  0.00     0.072 C 
HETATM    2  C2  UNL     1      26.601   5.808  48.545  1.00  0.00     0.053 C 
HETATM    3  N1  UNL     1      27.030   6.924  48.010  1.00  0.00    -0.246 NA
HETATM    4  C3  UNL     1      26.255   8.078  47.644  1.00  0.00     0.227 C 
HETATM    5  N2  UNL     1      24.993   8.172  47.419  1.00  0.00    -0.276 NA
HETATM    6  C4  UNL     1      23.932   7.221  47.440  1.00  0.00     0.216 C 
HETATM    7  C5  UNL     1      24.133   6.135  48.399  1.00  0.00     0.087 C 
HETATM    8  C12 UNL     1      25.201   5.524  48.881  1.00  0.00     0.073 C 
ENDROOT
BRANCH   8   9
HETATM    9  C13 UNL     1      25.052   4.460  49.837  1.00  0.00    -0.055 C 
HETATM   10  C14 UNL     1      24.915   3.557  50.625  1.00  0.00    -0.036 C 
BRANCH  10  11
HETATM   11  C15 UNL     1      24.737   2.470  51.547  1.00  0.00     0.129 A 
HETATM   12  C16 UNL     1      23.720   2.256  52.462  1.00  0.00     0.049 A 
HETATM   13  C17 UNL     1      24.082   1.064  53.058  1.00  0.00     0.038 A 
HETATM   14  C18 UNL     1      25.261   0.601  52.516  1.00  0.00     0.083 A 
HETATM   15  O2  UNL     1      25.611   1.486  51.613  1.00  0.00    -0.304 OA
BRANCH  14  16
HETATM   16  C19 UNL     1      26.046  -0.637  52.832  1.00  0.00     0.337 C 
BRANCH  16  17
HETATM   17  N3  UNL     1      27.444  -0.242  53.020  1.00  0.00     0.094 N 
HETATM   18  C20 UNL     1      27.620   0.489  54.236  1.00  0.00     0.273 C 
HETATM   19  C21 UNL     1      29.010   0.159  54.690  1.00  0.00     0.032 C 
HETATM   20  C22 UNL     1      29.561  -0.851  53.679  1.00  0.00     0.032 C 
HETATM   21  C23 UNL     1      28.309  -1.398  53.060  1.00  0.00     0.273 C 
ENDBRANCH  16  17
ENDBRANCH  14  16
ENDBRANCH  10  11
ENDBRANCH   8   9
BRANCH   7  22
HETATM   22  O1  UNL     1      22.936   5.631  48.918  1.00  0.00    -0.348 OA
BRANCH  22  23
HETATM   23  C6  UNL     1      21.919   5.099  48.121  1.00  0.00     0.203 C 
BRANCH  23  24
HETATM   24  C7  UNL     1      22.298   3.851  47.414  1.00  0.00    -0.000 C 
HETATM   25  C8  UNL     1      22.193   2.637  47.910  1.00  0.00    -0.002 C 
BRANCH  25  26
HETATM   26  C9  UNL     1      21.725   2.114  49.181  1.00  0.00    -0.002 C 
HETATM   27  C10 UNL     1      21.361   0.882  49.495  1.00  0.00     0.004 C 
BRANCH  27  28
HETATM   28  C11 UNL     1      20.916   0.607  50.881  1.00  0.00     0.249 C 
HETATM   29  F1  UNL     1      21.650  -0.387  51.465  1.00  0.00    -0.251 F 
ENDBRANCH  27  28
ENDBRANCH  25  26
ENDBRANCH  23  24
ENDBRANCH  22  23
ENDBRANCH   7  22
TORSDOF 9
ENDMDL
MODEL 4
REMARK VINA RESULT:      -7.1      3.414      6.803
REMARK  9 active torsions:
REMARK  status: ('A' for Active; 'I' for Inactive)
REMARK    1  A    between atoms: C5_7  and  O1_8 
REMARK    2  A    between atoms: O1_8  and  C6_9 
REMARK    3  A    between atoms: C6_9  and  C7_10 
REMARK    4  A    between atoms: C8_11  and  C9_12 
REMARK    5  A    between atoms: C10_13  and  C11_14 
REMARK    6  A    between atoms: C12_16  and  C13_17 
REMARK    7  A    between atoms: C14_18  and  C15_19 
REMARK    8  A    between atoms: C18_22  and  C19_23 
REMARK    9  A    between atoms: C19_23  and  N3_24 
ROOT
HETATM    1  C1  UNL     1      26.603   4.474  49.149  1.00  0.00     0.072 C 
HETATM    2  C2  UNL     1      25.918   5.711  49.631  1.00  0.00     0.053 C 
HETATM    3  N1  UNL     1      26.450   6.864  49.313  1.00  0.00    -0.246 NA
HETATM    4  C3  UNL     1      25.976   8.177  49.659  1.00  0.00     0.227 C 
HETATM    5  N2  UNL     1      24.800   8.546  50.024  1.00  0.00    -0.276 NA
HETATM    6  C4  UNL     1      23.577   7.839  50.213  1.00  0.00     0.216 C 
HETATM    7  C5  UNL     1      23.759   6.451  50.638  1.00  0.00     0.087 C 
HETATM    8  C12 UNL     1      24.696   5.544  50.427  1.00  0.00     0.073 C 
ENDROOT
BRANCH   8   9
HETATM    9  C13 UNL     1      24.570   4.232  51.004  1.00  0.00    -0.055 C 
HETATM   10  C14 UNL     1      24.476   3.139  51.505  1.00  0.00    -0.036 C 
BRANCH  10  11
HETATM   11  C15 UNL     1      24.380   1.844  52.120  1.00  0.00     0.129 A 
HETATM   12  C16 UNL     1      23.274   1.211  52.660  1.00  0.00     0.049 A 
HETATM   13  C17 UNL     1      23.786   0.006  53.098  1.00  0.00     0.038 A 
HETATM   14  C18 UNL     1      25.135  -0.063  52.826  1.00  0.00     0.083 A 
HETATM   15  O2  UNL     1      25.440   1.069  52.238  1.00  0.00    -0.304 OA
BRANCH  14  16
HETATM   16  C19 UNL     1      26.119  -1.160  53.108  1.00  0.00     0.337 C 
BRANCH  16  17
HETATM   17  N3  UNL     1      27.449  -0.551  53.195  1.00  0.00     0.094 N 
HETATM   18  C20 UNL     1      27.614   0.169  54.419  1.00  0.00     0.273 C 
HETATM   19  C21 UNL     1      29.071   0.054  54.746  1.00  0.00     0.032 C 
HETATM   20  C22 UNL     1      29.684  -0.831  53.655  1.00  0.00     0.032 C 
HETATM   21  C23 UNL     1      28.485  -1.555  53.120  1.00  0.00     0.273 C 
ENDBRANCH  16  17
ENDBRANCH  14  16
ENDBRANCH  10  11
ENDBRANCH   8   9
BRANCH   7  22
HETATM   22  O1  UNL     1      22.716   5.982  51.443  1.00  0.00    -0.348 OA
BRANCH  22  23
HETATM   23  C6  UNL     1      21.407   5.821  50.983  1.00  0.00     0.203 C 
BRANCH  23  24
HETATM   24  C7  UNL     1      20.791   4.524  51.360  1.00  0.00    -0.000 C 
HETATM   25  C8  UNL     1      20.831   3.427  50.635  1.00  0.00    -0.002 C 
BRANCH  25  26
HETATM   26  C9  UNL     1      21.419   3.101  49.349  1.00  0.00    -0.002 C 
HETATM   27  C10 UNL     1      22.037   1.994  48.968  1.00  0.00     0.004 C 
BRANCH  27  28
HETATM   28  C11 UNL     1      22.553   1.913  47.582  1.00  0.00     0.249 C 
HETATM   29  F1  UNL     1      22.239   3.026  46.855  1.00  0.00    -0.251 F 
ENDBRANCH  27  28
ENDBRANCH  25  26
ENDBRANCH  23  24
ENDBRANCH  22  23
ENDBRANCH   7  22
TORSDOF 9
ENDMDL
MODEL 5
REMARK VINA RESULT:      -7.1      2.272      7.852
REMARK  9 active torsions:
REMARK  status: ('A' for Active; 'I' for Inactive)
REMARK    1  A    between atoms: C5_7  and  O1_8 
REMARK    2  A    between atoms: O1_8  and  C6_9 
REMARK    3  A    between atoms: C6_9  and  C7_10 
REMARK    4  A    between atoms: C8_11  and  C9_12 
REMARK    5  A    between atoms: C10_13  and  C11_14 
REMARK    6  A    between atoms: C12_16  and  C13_17 
REMARK    7  A    between atoms: C14_18  and  C15_19 
REMARK    8  A    between atoms: C18_22  and  C19_23 
REMARK    9  A    between atoms: C19_23  and  N3_24 
ROOT
HETATM    1  C1  UNL     1      18.050  -2.126  53.840  1.00  0.00     0.072 C 
HETATM    2  C2  UNL     1      17.577  -1.299  52.689  1.00  0.00     0.053 C 
HETATM    3  N1  UNL     1      16.447  -1.637  52.121  1.00  0.00    -0.246 NA
HETATM    4  C3  UNL     1      15.797  -0.999  51.008  1.00  0.00     0.227 C 
HETATM    5  N2  UNL     1      15.949   0.193  50.552  1.00  0.00    -0.276 NA
HETATM    6  C4  UNL     1      16.772   1.285  50.952  1.00  0.00     0.216 C 
HETATM    7  C5  UNL     1      18.038   0.877  51.561  1.00  0.00     0.087 C 
HETATM    8  C12 UNL     1      18.415  -0.167  52.278  1.00  0.00     0.073 C 
ENDROOT
BRANCH   8   9
HETATM    9  C13 UNL     1      19.774  -0.269  52.739  1.00  0.00    -0.055 C 
HETATM   10  C14 UNL     1      20.918  -0.365  53.108  1.00  0.00    -0.036 C 
BRANCH  10  11
HETATM   11  C15 UNL     1      22.286  -0.494  53.527  1.00  0.00     0.129 A 
HETATM   12  C16 UNL     1      22.795  -0.991  54.715  1.00  0.00     0.049 A 
HETATM   13  C17 UNL     1      24.160  -0.864  54.548  1.00  0.00     0.038 A 
HETATM   14  C18 UNL     1      24.438  -0.315  53.316  1.00  0.00     0.083 A 
HETATM   15  O2  UNL     1      23.275  -0.112  52.743  1.00  0.00    -0.304 OA
BRANCH  14  16
HETATM   16  C19 UNL     1      25.758   0.013  52.683  1.00  0.00     0.337 C 
BRANCH  16  17
HETATM   17  N3  UNL     1      26.809  -0.343  53.639  1.00  0.00     0.094 N 
HETATM   18  C20 UNL     1      27.737  -1.271  53.072  1.00  0.00     0.273 C 
HETATM   19  C21 UNL     1      29.048  -0.963  53.729  1.00  0.00     0.032 C 
HETATM   20  C22 UNL     1      28.794   0.238  54.646  1.00  0.00     0.032 C 
HETATM   21  C23 UNL     1      27.545   0.827  54.061  1.00  0.00     0.273 C 
ENDBRANCH  16  17
ENDBRANCH  14  16
ENDBRANCH  10  11
ENDBRANCH   8   9
BRANCH   7  22
HETATM   22  O1  UNL     1      19.074   1.789  51.337  1.00  0.00    -0.348 OA
BRANCH  22  23
HETATM   23  C6  UNL     1      19.427   2.251  50.066  1.00  0.00     0.203 C 
BRANCH  23  24
HETATM   24  C7  UNL     1      20.686   1.667  49.541  1.00  0.00    -0.000 C 
HETATM   25  C8  UNL     1      21.880   1.843  50.065  1.00  0.00    -0.002 C 
BRANCH  25  26
HETATM   26  C9  UNL     1      22.367   2.582  51.214  1.00  0.00    -0.002 C 
HETATM   27  C10 UNL     1      23.606   2.928  51.523  1.00  0.00     0.004 C 
BRANCH  27  28
HETATM   28  C11 UNL     1      23.838   3.691  52.772  1.00  0.00     0.249 C 
HETATM   29  F1  UNL     1      24.573   2.978  53.676  1.00  0.00    -0.251 F 
ENDBRANCH  27  28
ENDBRANCH  25  26
ENDBRANCH  23  24
ENDBRANCH  22  23
ENDBRANCH   7  22
TORSDOF 9
ENDMDL
MODEL 6
REMARK VINA RESULT:      -7.1      2.657      4.247
REMARK  9 active torsions:
REMARK  status: ('A' for Active; 'I' for Inactive)
REMARK    1  A    between atoms: C5_7  and  O1_8 
REMARK    2  A    between atoms: O1_8  and  C6_9 
REMARK    3  A    between atoms: C6_9  and  C7_10 
REMARK    4  A    between atoms: C8_11  and  C9_12 
REMARK    5  A    between atoms: C10_13  and  C11_14 
REMARK    6  A    between atoms: C12_16  and  C13_17 
REMARK    7  A    between atoms: C14_18  and  C15_19 
REMARK    8  A    between atoms: C18_22  and  C19_23 
REMARK    9  A    between atoms: C19_23  and  N3_24 
ROOT
HETATM    1  C1  UNL     1      20.963  -1.694  54.359  1.00  0.00     0.072 C 
HETATM    2  C2  UNL     1      22.375  -1.234  54.531  1.00  0.00     0.053 C 
HETATM    3  N1  UNL     1      23.004  -1.597  55.620  1.00  0.00    -0.246 NA
HETATM    4  C3  UNL     1      24.353  -1.279  56.004  1.00  0.00     0.227 C 
HETATM    5  N2  UNL     1      25.338  -0.900  55.271  1.00  0.00    -0.276 NA
HETATM    6  C4  UNL     1      25.470  -0.663  53.872  1.00  0.00     0.216 C 
HETATM    7  C5  UNL     1      24.238  -0.201  53.233  1.00  0.00     0.087 C 
HETATM    8  C12 UNL     1      22.953  -0.407  53.466  1.00  0.00     0.073 C 
ENDROOT
BRANCH   8   9
HETATM    9  C13 UNL     1      21.963   0.212  52.626  1.00  0.00    -0.055 C 
HETATM   10  C14 UNL     1      21.130   0.746  51.936  1.00  0.00    -0.036 C 
BRANCH  10  11
HETATM   11  C15 UNL     1      20.135   1.400  51.133  1.00  0.00     0.129 A 
HETATM   12  C16 UNL     1      19.849   1.236  49.788  1.00  0.00     0.049 A 
HETATM   13  C17 UNL     1      18.808   2.119  49.580  1.00  0.00     0.038 A 
HETATM   14  C18 UNL     1      18.499   2.773  50.752  1.00  0.00     0.083 A 
HETATM   15  O2  UNL     1      19.327   2.302  51.654  1.00  0.00    -0.304 OA
BRANCH  14  16
HETATM   16  C19 UNL     1      17.454   3.813  51.028  1.00  0.00     0.337 C 
BRANCH  16  17
HETATM   17  N3  UNL     1      16.512   3.250  51.999  1.00  0.00     0.094 N 
HETATM   18  C20 UNL     1      15.800   4.279  52.691  1.00  0.00     0.273 C 
HETATM   19  C21 UNL     1      14.460   3.685  53.000  1.00  0.00     0.032 C 
HETATM   20  C22 UNL     1      14.459   2.286  52.375  1.00  0.00     0.032 C 
HETATM   21  C23 UNL     1      15.547   2.394  51.349  1.00  0.00     0.273 C 
ENDBRANCH  16  17
ENDBRANCH  14  16
ENDBRANCH  10  11
ENDBRANCH   8   9
BRANCH   7  22
HETATM   22  O1  UNL     1      24.467   0.639  52.140  1.00  0.00    -0.348 OA
BRANCH  22  23
HETATM   23  C6  UNL     1      25.227   1.809  52.219  1.00  0.00     0.203 C 
BRANCH  23  24
HETATM   24  C7  UNL     1      24.684   2.818  53.162  1.00  0.00    -0.000 C 
HETATM   25  C8  UNL     1      23.759   3.708  52.871  1.00  0.00    -0.002 C 
BRANCH  25  26
HETATM   26  C9  UNL     1      23.006   4.008  51.667  1.00  0.00    -0.002 C 
HETATM   27  C10 UNL     1      21.919   4.748  51.523  1.00  0.00     0.004 C 
BRANCH  27  28
HETATM   28  C11 UNL     1      21.338   4.897  50.168  1.00  0.00     0.249 C 
HETATM   29  F1  UNL     1      21.759   3.911  49.322  1.00  0.00    -0.251 F 
ENDBRANCH  27  28
ENDBRANCH  25  26
ENDBRANCH  23  24
ENDBRANCH  22  23
ENDBRANCH   7  22
TORSDOF 9
ENDMDL
MODEL 7
REMARK VINA RESULT:      -7.0      2.507      3.731
REMARK  9 active torsions:
REMARK  status: ('A' for Active; 'I' for Inactive)
REMARK    1  A    between atoms: C5_7  and  O1_8 
REMARK    2  A    between atoms: O1_8  and  C6_9 
REMARK    3  A    between atoms: C6_9  and  C7_10 
REMARK    4  A    between atoms: C8_11  and  C9_12 
REMARK    5  A    between atoms: C10_13  and  C11_14 
REMARK    6  A    between atoms: C12_16  and  C13_17 
REMARK    7  A    between atoms: C14_18  and  C15_19 
REMARK    8  A    between atoms: C18_22  and  C19_23 
REMARK    9  A    between atoms: C19_23  and  N3_24 
ROOT
HETATM    1  C1  UNL     1      23.602  -0.692  53.937  1.00  0.00     0.072 C 
HETATM    2  C2  UNL     1      24.916   0.020  53.936  1.00  0.00     0.053 C 
HETATM    3  N1  UNL     1      25.873  -0.467  54.686  1.00  0.00    -0.246 NA
HETATM    4  C3  UNL     1      27.208   0.040  54.847  1.00  0.00     0.227 C 
HETATM    5  N2  UNL     1      27.880   0.821  54.078  1.00  0.00    -0.276 NA
HETATM    6  C4  UNL     1      27.579   1.451  52.835  1.00  0.00     0.216 C 
HETATM    7  C5  UNL     1      26.161   1.767  52.663  1.00  0.00     0.087 C 
HETATM    8  C12 UNL     1      25.040   1.214  53.092  1.00  0.00     0.073 C 
ENDROOT
BRANCH   8   9
HETATM    9  C13 UNL     1      23.771   1.788  52.732  1.00  0.00    -0.055 C 
HETATM   10  C14 UNL     1      22.718   2.287  52.421  1.00  0.00    -0.036 C 
BRANCH  10  11
HETATM   11  C15 UNL     1      21.475   2.901  52.046  1.00  0.00     0.129 A 
HETATM   12  C16 UNL     1      20.190   2.609  52.470  1.00  0.00     0.049 A 
HETATM   13  C17 UNL     1      19.416   3.517  51.774  1.00  0.00     0.038 A 
HETATM   14  C18 UNL     1      20.215   4.306  50.975  1.00  0.00     0.083 A 
HETATM   15  O2  UNL     1      21.443   3.893  51.177  1.00  0.00    -0.304 OA
BRANCH  14  16
HETATM   16  C19 UNL     1      19.842   5.422  50.044  1.00  0.00     0.337 C 
BRANCH  16  17
HETATM   17  N3  UNL     1      20.783   5.395  48.921  1.00  0.00     0.094 N 
HETATM   18  C20 UNL     1      20.097   5.404  47.666  1.00  0.00     0.273 C 
HETATM   19  C21 UNL     1      21.013   6.127  46.727  1.00  0.00     0.032 C 
HETATM   20  C22 UNL     1      22.217   6.574  47.563  1.00  0.00     0.032 C 
HETATM   21  C23 UNL     1      21.667   6.537  48.958  1.00  0.00     0.273 C 
ENDBRANCH  16  17
ENDBRANCH  14  16
ENDBRANCH  10  11
ENDBRANCH   8   9
BRANCH   7  22
HETATM   22  O1  UNL     1      25.944   2.901  51.874  1.00  0.00    -0.348 OA
BRANCH  22  23
HETATM   23  C6  UNL     1      26.432   3.034  50.572  1.00  0.00     0.203 C 
BRANCH  23  24
HETATM   24  C7  UNL     1      25.750   4.084  49.776  1.00  0.00    -0.000 C 
HETATM   25  C8  UNL     1      24.598   3.938  49.157  1.00  0.00    -0.002 C 
BRANCH  25  26
HETATM   26  C9  UNL     1      23.667   2.833  49.029  1.00  0.00    -0.002 C 
HETATM   27  C10 UNL     1      22.668   2.675  48.176  1.00  0.00     0.004 C 
BRANCH  27  28
HETATM   28  C11 UNL     1      21.856   1.438  48.256  1.00  0.00     0.249 C 
HETATM   29  F1  UNL     1      21.888   0.887  49.506  1.00  0.00    -0.251 F 
ENDBRANCH  27  28
ENDBRANCH  25  26
ENDBRANCH  23  24
ENDBRANCH  22  23
ENDBRANCH   7  22
TORSDOF 9
ENDMDL
MODEL 8
REMARK VINA RESULT:      -6.9      4.654      8.993
REMARK  9 active torsions:
REMARK  status: ('A' for Active; 'I' for Inactive)
REMARK    1  A    between atoms: C5_7  and  O1_8 
REMARK    2  A    between atoms: O1_8  and  C6_9 
REMARK    3  A    between atoms: C6_9  and  C7_10 
REMARK    4  A    between atoms: C8_11  and  C9_12 
REMARK    5  A    between atoms: C10_13  and  C11_14 
REMARK    6  A    between atoms: C12_16  and  C13_17 
REMARK    7  A    between atoms: C14_18  and  C15_19 
REMARK    8  A    between atoms: C18_22  and  C19_23 
REMARK    9  A    between atoms: C19_23  and  N3_24 
ROOT
HETATM    1  C1  UNL     1      22.600   2.208  47.927  1.00  0.00     0.072 C 
HETATM    2  C2  UNL     1      22.275   1.891  49.351  1.00  0.00     0.053 C 
HETATM    3  N1  UNL     1      21.078   1.430  49.614  1.00  0.00    -0.246 NA
HETATM    4  C3  UNL     1      20.540   1.059  50.895  1.00  0.00     0.227 C 
HETATM    5  N2  UNL     1      21.160   0.751  51.978  1.00  0.00    -0.276 NA
HETATM    6  C4  UNL     1      22.542   0.662  52.312  1.00  0.00     0.216 C 
HETATM    7  C5  UNL     1      23.390   1.588  51.562  1.00  0.00     0.087 C 
HETATM    8  C12 UNL     1      23.323   2.118  50.353  1.00  0.00     0.073 C 
ENDROOT
BRANCH   8   9
HETATM    9  C13 UNL     1      24.351   3.019  49.905  1.00  0.00    -0.055 C 
HETATM   10  C14 UNL     1      25.204   3.790  49.540  1.00  0.00    -0.036 C 
BRANCH  10  11
HETATM   11  C15 UNL     1      26.207   4.727  49.116  1.00  0.00     0.129 A 
HETATM   12  C16 UNL     1      26.097   6.091  48.904  1.00  0.00     0.049 A 
HETATM   13  C17 UNL     1      27.371   6.450  48.511  1.00  0.00     0.038 A 
HETATM   14  C18 UNL     1      28.191   5.344  48.493  1.00  0.00     0.083 A 
HETATM   15  O2  UNL     1      27.440   4.335  48.865  1.00  0.00    -0.304 OA
BRANCH  14  16
HETATM   16  C19 UNL     1      29.644   5.227  48.138  1.00  0.00     0.337 C 
BRANCH  16  17
HETATM   17  N3  UNL     1      30.280   6.512  48.440  1.00  0.00     0.094 N 
HETATM   18  C20 UNL     1      31.433   6.341  49.268  1.00  0.00     0.273 C 
HETATM   19  C21 UNL     1      32.362   7.449  48.877  1.00  0.00     0.032 C 
HETATM   20  C22 UNL     1      31.671   8.201  47.734  1.00  0.00     0.032 C 
HETATM   21  C23 UNL     1      30.692   7.184  47.229  1.00  0.00     0.273 C 
ENDBRANCH  16  17
ENDBRANCH  14  16
ENDBRANCH  10  11
ENDBRANCH   8   9
BRANCH   7  22
HETATM   22  O1  UNL     1      24.517   2.004  52.278  1.00  0.00    -0.348 OA
BRANCH  22  23
HETATM   23  C6  UNL     1      25.347   1.125  52.978  1.00  0.00     0.203 C 
BRANCH  23  24
HETATM   24  C7  UNL     1      26.506   1.782  53.631  1.00  0.00    -0.000 C 
HETATM   25  C8  UNL     1      27.673   1.215  53.854  1.00  0.00    -0.002 C 
BRANCH  25  26
HETATM   26  C9  UNL     1      28.210  -0.105  53.580  1.00  0.00    -0.002 C 
HETATM   27  C10 UNL     1      29.439  -0.561  53.756  1.00  0.00     0.004 C 
BRANCH  27  28
HETATM   28  C11 UNL     1      29.732  -1.967  53.392  1.00  0.00     0.249 C 
HETATM   29  F1  UNL     1      28.602  -2.648  53.037  1.00  0.00    -0.251 F 
ENDBRANCH  27  28
ENDBRANCH  25  26
ENDBRANCH  23  24
ENDBRANCH  22  23
ENDBRANCH   7  22
TORSDOF 9
ENDMDL
MODEL 9
REMARK VINA RESULT:      -6.9      4.124      6.980
REMARK  9 active torsions:
REMARK  status: ('A' for Active; 'I' for Inactive)
REMARK    1  A    between atoms: C5_7  and  O1_8 
REMARK    2  A    between atoms: O1_8  and  C6_9 
REMARK    3  A    between atoms: C6_9  and  C7_10 
REMARK    4  A    between atoms: C8_11  and  C9_12 
REMARK    5  A    between atoms: C10_13  and  C11_14 
REMARK    6  A    between atoms: C12_16  and  C13_17 
REMARK    7  A    between atoms: C14_18  and  C15_19 
REMARK    8  A    between atoms: C18_22  and  C19_23 
REMARK    9  A    between atoms: C19_23  and  N3_24 
ROOT
HETATM    1  C1  UNL     1      25.295   0.479  53.713  1.00  0.00     0.072 C 
HETATM    2  C2  UNL     1      23.857   0.180  53.436  1.00  0.00     0.053 C 
HETATM    3  N1  UNL     1      23.349  -0.905  53.966  1.00  0.00    -0.246 NA
HETATM    4  C3  UNL     1      22.003  -1.396  53.842  1.00  0.00     0.227 C 
HETATM    5  N2  UNL     1      20.933  -0.763  53.516  1.00  0.00    -0.276 NA
HETATM    6  C4  UNL     1      20.679   0.597  53.172  1.00  0.00     0.216 C 
HETATM    7  C5  UNL     1      21.805   1.260  52.516  1.00  0.00     0.087 C 
HETATM    8  C12 UNL     1      23.118   1.125  52.591  1.00  0.00     0.073 C 
ENDROOT
BRANCH   8   9
HETATM    9  C13 UNL     1      23.974   1.958  51.789  1.00  0.00    -0.055 C 
HETATM   10  C14 UNL     1      24.678   2.674  51.121  1.00  0.00    -0.036 C 
BRANCH  10  11
HETATM   11  C15 UNL     1      25.499   3.543  50.326  1.00  0.00     0.129 A 
HETATM   12  C16 UNL     1      26.563   3.229  49.498  1.00  0.00     0.049 A 
HETATM   13  C17 UNL     1      26.953   4.459  49.007  1.00  0.00     0.038 A 
HETATM   14  C18 UNL     1      26.152   5.452  49.527  1.00  0.00     0.083 A 
HETATM   15  O2  UNL     1      25.295   4.846  50.314  1.00  0.00    -0.304 OA
BRANCH  14  16
HETATM   16  C19 UNL     1      26.183   6.934  49.296  1.00  0.00     0.337 C 
BRANCH  16  17
HETATM   17  N3  UNL     1      26.433   7.156  47.869  1.00  0.00     0.094 N 
HETATM   18  C20 UNL     1      25.335   7.828  47.247  1.00  0.00     0.273 C 
HETATM   19  C21 UNL     1      25.949   8.646  46.152  1.00  0.00     0.032 C 
HETATM   20  C22 UNL     1      27.462   8.430  46.256  1.00  0.00     0.032 C 
HETATM   21  C23 UNL     1      27.620   7.954  47.669  1.00  0.00     0.273 C 
ENDBRANCH  16  17
ENDBRANCH  14  16
ENDBRANCH  10  11
ENDBRANCH   8   9
BRANCH   7  22
HETATM   22  O1  UNL     1      21.410   2.251  51.614  1.00  0.00    -0.348 OA
BRANCH  22  23
HETATM   23  C6  UNL     1      20.536   2.015  50.549  1.00  0.00     0.203 C 
BRANCH  23  24
HETATM   24  C7  UNL     1      21.073   1.087  49.523  1.00  0.00    -0.000 C 
HETATM   25  C8  UNL     1      21.789   1.444  48.478  1.00  0.00    -0.002 C 
BRANCH  25  26
HETATM   26  C9  UNL     1      22.271   2.722  47.988  1.00  0.00    -0.002 C 
HETATM   27  C10 UNL     1      21.597   3.705  47.413  1.00  0.00     0.004 C 
BRANCH  27  28
HETATM   28  C11 UNL     1      22.335   4.921  46.999  1.00  0.00     0.249 C 
HETATM   29  F1  UNL     1      23.400   5.175  47.815  1.00  0.00    -0.251 F 
ENDBRANCH  27  28
ENDBRANCH  25  26
ENDBRANCH  23  24
ENDBRANCH  22  23
ENDBRANCH   7  22
TORSDOF 9
ENDMDL
