MODEL 1
REMARK VINA RESULT:      -9.4      0.000      0.000
REMARK  3 active torsions:
REMARK  status: ('A' for Active; 'I' for Inactive)
REMARK    1  A    between atoms: C6_6  and  N1_7 
REMARK    2  A    between atoms: C9_13  and  C10_14 
REMARK    3  A    between atoms: C10_14  and  C11_15 
ROOT
HETATM    1  C1  UNL     1      21.156   0.567  50.302  1.00  0.00     0.015 C 
HETATM    2  C2  UNL     1      22.285   1.363  50.851  1.00  0.00    -0.028 C 
HETATM    3  C3  UNL     1      22.420   2.074  49.679  1.00  0.00     0.062 C 
HETATM    4  C4  UNL     1      23.301   3.174  49.179  1.00  0.00    -0.018 C 
HETATM    5  C5  UNL     1      24.266   4.129  49.165  1.00  0.00     0.063 C 
HETATM    6  C6  UNL     1      25.160   4.473  50.337  1.00  0.00     0.432 A 
HETATM    7  N2  UNL     1      24.242   4.744  51.481  1.00  0.00     0.203 N 
HETATM    8  C7  UNL     1      24.168   3.479  52.194  1.00  0.00     0.468 A 
HETATM    9  N3  UNL     1      24.876   4.151  51.225  1.00  0.00     0.248 N 
HETATM   10  C8  UNL     1      25.765   3.236  50.911  1.00  0.00     0.332 A 
HETATM   11  N4  UNL     1      26.437   2.005  50.951  1.00  0.00    -0.225 NA
HETATM   12  C9  UNL     1      25.715   1.250  51.959  1.00  0.00     0.052 A 
HETATM   13  C17 UNL     1      24.782   2.271  52.260  1.00  0.00     0.042 A 
HETATM   14  C18 UNL     1      23.842   1.324  52.948  1.00  0.00     0.010 C 
HETATM   15  C19 UNL     1      22.757   0.981  52.217  1.00  0.00    -0.021 C 
HETATM   16  H9  UNL     1      23.580   5.398  52.079  1.00  0.00     0.326 HD
ENDROOT
BRANCH  12  17
HETATM   17  C10 UNL     1      25.964  -0.083  52.447  1.00  0.00     0.098 C 
BRANCH  17  18
HETATM   18  C11 UNL     1      27.335  -0.370  52.919  1.00  0.00    -0.052 A 
HETATM   19  C12 UNL     1      28.302   0.436  53.465  1.00  0.00     0.007 A 
HETATM   20  C13 UNL     1      29.556   0.037  53.856  1.00  0.00     0.001 A 
HETATM   21  C14 UNL     1      29.861  -1.292  53.678  1.00  0.00     0.000 A 
HETATM   22  C15 UNL     1      28.981  -2.225  53.137  1.00  0.00     0.001 A 
HETATM   23  C16 UNL     1      27.753  -1.703  52.784  1.00  0.00     0.007 A 
ENDBRANCH  17  18
ENDBRANCH  12  17
BRANCH   6  24
HETATM   24  N1  UNL     1      26.078   5.483  50.041  1.00  0.00    -0.269 NA
HETATM   25  H7  UNL     1      25.641   6.379  49.725  1.00  0.00     0.123 HD
HETATM   26  H8  UNL     1      26.692   5.633  50.891  1.00  0.00     0.123 HD
ENDBRANCH   6  24
TORSDOF 3
ENDMDL
MODEL 2
REMARK VINA RESULT:      -8.7      1.467      1.965
REMARK  3 active torsions:
REMARK  status: ('A' for Active; 'I' for Inactive)
REMARK    1  A    between atoms: C6_6  and  N1_7 
REMARK    2  A    between atoms: C9_13  and  C10_14 
REMARK    3  A    between atoms: C10_14  and  C11_15 
ROOT
HETATM    1  C1  UNL     1      21.652   1.031  48.571  1.00  0.00     0.015 C 
HETATM    2  C2  UNL     1      21.968   1.797  49.806  1.00  0.00    -0.028 C 
HETATM    3  C3  UNL     1      22.549   2.816  49.086  1.00  0.00     0.062 C 
HETATM    4  C4  UNL     1      23.199   4.125  49.400  1.00  0.00    -0.018 C 
HETATM    5  C5  UNL     1      23.671   5.175  50.120  1.00  0.00     0.063 C 
HETATM    6  C6  UNL     1      23.575   5.304  51.625  1.00  0.00     0.432 A 
HETATM    7  N2  UNL     1      22.133   5.113  51.956  1.00  0.00     0.203 N 
HETATM    8  C7  UNL     1      22.022   3.703  52.293  1.00  0.00     0.468 A 
HETATM    9  N3  UNL     1      22.934   4.712  52.085  1.00  0.00     0.248 N 
HETATM   10  C8  UNL     1      24.055   4.056  52.287  1.00  0.00     0.332 A 
HETATM   11  N4  UNL     1      24.893   2.972  52.584  1.00  0.00    -0.225 NA
HETATM   12  C9  UNL     1      23.971   1.872  52.803  1.00  0.00     0.052 A 
HETATM   13  C17 UNL     1      22.795   2.625  52.576  1.00  0.00     0.042 A 
HETATM   14  C18 UNL     1      21.948   1.401  52.388  1.00  0.00     0.010 C 
HETATM   15  C19 UNL     1      21.642   1.123  51.100  1.00  0.00    -0.021 C 
HETATM   16  H9  UNL     1      21.094   5.475  52.080  1.00  0.00     0.326 HD
ENDROOT
BRANCH  12  17
HETATM   17  C10 UNL     1      24.257   0.506  53.162  1.00  0.00     0.098 C 
BRANCH  17  18
HETATM   18  C11 UNL     1      25.657   0.193  53.516  1.00  0.00    -0.052 A 
HETATM   19  C12 UNL     1      26.443   0.579  54.573  1.00  0.00     0.007 A 
HETATM   20  C13 UNL     1      27.752   0.219  54.777  1.00  0.00     0.001 A 
HETATM   21  C14 UNL     1      28.317  -0.603  53.831  1.00  0.00     0.000 A 
HETATM   22  C15 UNL     1      27.642  -1.074  52.708  1.00  0.00     0.001 A 
HETATM   23  C16 UNL     1      26.335  -0.643  52.615  1.00  0.00     0.007 A 
ENDBRANCH  17  18
ENDBRANCH  12  17
BRANCH   6  24
HETATM   24  N1  UNL     1      24.160   6.478  52.108  1.00  0.00    -0.269 NA
HETATM   25  H7  UNL     1      24.898   6.321  52.832  1.00  0.00     0.123 HD
HETATM   26  H8  UNL     1      24.541   7.022  51.282  1.00  0.00     0.123 HD
ENDBRANCH   6  24
TORSDOF 3
ENDMDL
MODEL 3
REMARK VINA RESULT:      -8.4      2.489      5.859
REMARK  3 active torsions:
REMARK  status: ('A' for Active; 'I' for Inactive)
REMARK    1  A    between atoms: C6_6  and  N1_7 
REMARK    2  A    between atoms: C9_13  and  C10_14 
REMARK    3  A    between atoms: C10_14  and  C11_15 
ROOT
HETATM    1  C1  UNL     1      25.393   4.336  49.121  1.00  0.00     0.015 C 
HETATM    2  C2  UNL     1      25.087   3.704  50.432  1.00  0.00    -0.028 C 
HETATM    3  C3  UNL     1      26.369   3.214  50.552  1.00  0.00     0.062 C 
HETATM    4  C4  UNL     1      27.128   2.414  51.560  1.00  0.00    -0.018 C 
HETATM    5  C5  UNL     1      27.401   1.718  52.694  1.00  0.00     0.063 C 
HETATM    6  C6  UNL     1      26.418   1.479  53.819  1.00  0.00     0.432 A 
HETATM    7  N2  UNL     1      25.905   2.826  54.202  1.00  0.00     0.203 N 
HETATM    8  C7  UNL     1      24.669   2.971  53.450  1.00  0.00     0.468 A 
HETATM    9  N3  UNL     1      25.614   2.050  53.840  1.00  0.00     0.248 N 
HETATM   10  C8  UNL     1      25.125   0.965  53.281  1.00  0.00     0.332 A 
HETATM   11  N4  UNL     1      24.240   0.169  52.540  1.00  0.00    -0.225 NA
HETATM   12  C9  UNL     1      23.223   1.104  52.094  1.00  0.00     0.052 A 
HETATM   13  C17 UNL     1      23.792   2.240  52.718  1.00  0.00     0.042 A 
HETATM   14  C18 UNL     1      22.982   3.199  51.894  1.00  0.00     0.010 C 
HETATM   15  C19 UNL     1      23.668   3.795  50.892  1.00  0.00    -0.021 C 
HETATM   16  H9  UNL     1      25.965   3.784  54.755  1.00  0.00     0.326 HD
ENDROOT
BRANCH  12  17
HETATM   17  C10 UNL     1      22.041   0.853  51.308  1.00  0.00     0.098 C 
BRANCH  17  18
HETATM   18  C11 UNL     1      20.900   0.229  52.009  1.00  0.00    -0.052 A 
HETATM   19  C12 UNL     1      20.817  -0.453  53.197  1.00  0.00     0.007 A 
HETATM   20  C13 UNL     1      19.677  -0.998  53.734  1.00  0.00     0.001 A 
HETATM   21  C14 UNL     1      18.520  -0.843  53.009  1.00  0.00     0.000 A 
HETATM   22  C15 UNL     1      18.453  -0.174  51.789  1.00  0.00     0.001 A 
HETATM   23  C16 UNL     1      19.662   0.329  51.355  1.00  0.00     0.007 A 
ENDBRANCH  17  18
ENDBRANCH  12  17
BRANCH   6  24
HETATM   24  N1  UNL     1      26.957   0.716  54.858  1.00  0.00    -0.269 NA
HETATM   25  H7  UNL     1      26.890  -0.317  54.709  1.00  0.00     0.123 HD
HETATM   26  H8  UNL     1      27.962   1.019  55.005  1.00  0.00     0.123 HD
ENDBRANCH   6  24
TORSDOF 3
ENDMDL
MODEL 4
REMARK VINA RESULT:      -8.2      2.445      6.052
REMARK  3 active torsions:
REMARK  status: ('A' for Active; 'I' for Inactive)
REMARK    1  A    between atoms: C6_6  and  N1_7 
REMARK    2  A    between atoms: C9_13  and  C10_14 
REMARK    3  A    between atoms: C10_14  and  C11_15 
ROOT
HETATM    1  C1  UNL     1      25.570   4.117  49.409  1.00  0.00     0.015 C 
HETATM    2  C2  UNL     1      25.301   3.499  50.734  1.00  0.00    -0.028 C 
HETATM    3  C3  UNL     1      26.249   2.522  50.528  1.00  0.00     0.062 C 
HETATM    4  C4  UNL     1      26.788   1.360  51.298  1.00  0.00    -0.018 C 
HETATM    5  C5  UNL     1      26.966   0.473  52.311  1.00  0.00     0.063 C 
HETATM    6  C6  UNL     1      26.227   0.507  53.631  1.00  0.00     0.432 A 
HETATM    7  N2  UNL     1      26.422   1.885  54.168  1.00  0.00     0.203 N 
HETATM    8  C7  UNL     1      25.238   2.612  53.740  1.00  0.00     0.468 A 
HETATM    9  N3  UNL     1      25.763   1.347  53.862  1.00  0.00     0.248 N 
HETATM   10  C8  UNL     1      24.758   0.634  53.403  1.00  0.00     0.332 A 
HETATM   11  N4  UNL     1      23.489   0.366  52.870  1.00  0.00    -0.225 NA
HETATM   12  C9  UNL     1      22.895   1.681  52.712  1.00  0.00     0.052 A 
HETATM   13  C17 UNL     1      24.005   2.400  53.216  1.00  0.00     0.042 A 
HETATM   14  C18 UNL     1      23.528   3.702  52.642  1.00  0.00     0.010 C 
HETATM   15  C19 UNL     1      24.180   4.094  51.524  1.00  0.00    -0.021 C 
HETATM   16  H9  UNL     1      26.993   2.656  54.721  1.00  0.00     0.326 HD
ENDROOT
BRANCH  12  17
HETATM   17  C10 UNL     1      21.585   2.033  52.224  1.00  0.00     0.098 C 
BRANCH  17  18
HETATM   18  C11 UNL     1      21.397   2.016  50.759  1.00  0.00    -0.052 A 
HETATM   19  C12 UNL     1      22.166   1.504  49.743  1.00  0.00     0.007 A 
HETATM   20  C13 UNL     1      21.874   1.567  48.403  1.00  0.00     0.001 A 
HETATM   21  C14 UNL     1      20.706   2.203  48.057  1.00  0.00     0.000 A 
HETATM   22  C15 UNL     1      19.828   2.769  48.978  1.00  0.00     0.001 A 
HETATM   23  C16 UNL     1      20.230   2.641  50.292  1.00  0.00     0.007 A 
ENDBRANCH  17  18
ENDBRANCH  12  17
BRANCH   6  24
HETATM   24  N1  UNL     1      26.592  -0.536  54.485  1.00  0.00    -0.269 NA
HETATM   25  H7  UNL     1      26.795  -1.438  53.996  1.00  0.00     0.123 HD
HETATM   26  H8  UNL     1      27.421  -0.217  55.063  1.00  0.00     0.123 HD
ENDBRANCH   6  24
TORSDOF 3
ENDMDL
MODEL 5
REMARK VINA RESULT:      -8.1      1.381      2.377
REMARK  3 active torsions:
REMARK  status: ('A' for Active; 'I' for Inactive)
REMARK    1  A    between atoms: C6_6  and  N1_7 
REMARK    2  A    between atoms: C9_13  and  C10_14 
REMARK    3  A    between atoms: C10_14  and  C11_15 
ROOT
HETATM    1  C1  UNL     1      22.598  -0.296  53.396  1.00  0.00     0.015 C 
HETATM    2  C2  UNL     1      23.013   0.961  52.718  1.00  0.00    -0.028 C 
HETATM    3  C3  UNL     1      22.361   0.610  51.557  1.00  0.00     0.062 C 
HETATM    4  C4  UNL     1      22.148   1.224  50.211  1.00  0.00    -0.018 C 
HETATM    5  C5  UNL     1      22.205   2.123  49.195  1.00  0.00     0.063 C 
HETATM    6  C6  UNL     1      22.900   3.466  49.268  1.00  0.00     0.432 A 
HETATM    7  N2  UNL     1      22.340   4.147  50.471  1.00  0.00     0.203 N 
HETATM    8  C7  UNL     1      23.290   3.848  51.531  1.00  0.00     0.468 A 
HETATM    9  N3  UNL     1      23.121   3.807  50.166  1.00  0.00     0.248 N 
HETATM   10  C8  UNL     1      24.283   3.310  49.804  1.00  0.00     0.332 A 
HETATM   11  N4  UNL     1      25.581   2.799  49.947  1.00  0.00    -0.225 NA
HETATM   12  C9  UNL     1      25.803   2.812  51.381  1.00  0.00     0.052 A 
HETATM   13  C17 UNL     1      24.538   3.351  51.716  1.00  0.00     0.042 A 
HETATM   14  C18 UNL     1      24.654   2.945  53.156  1.00  0.00     0.010 C 
HETATM   15  C19 UNL     1      23.929   1.854  53.492  1.00  0.00    -0.021 C 
HETATM   16  H9  UNL     1      21.580   4.760  50.993  1.00  0.00     0.326 HD
ENDROOT
BRANCH  12  17
HETATM   17  C10 UNL     1      26.975   2.418  52.122  1.00  0.00     0.098 C 
BRANCH  17  18
HETATM   18  C11 UNL     1      27.149   0.971  52.364  1.00  0.00    -0.052 A 
HETATM   19  C12 UNL     1      26.429  -0.120  51.947  1.00  0.00     0.007 A 
HETATM   20  C13 UNL     1      26.699  -1.430  52.259  1.00  0.00     0.001 A 
HETATM   21  C14 UNL     1      27.789  -1.658  53.063  1.00  0.00     0.000 A 
HETATM   22  C15 UNL     1      28.611  -0.650  53.561  1.00  0.00     0.001 A 
HETATM   23  C16 UNL     1      28.238   0.622  53.178  1.00  0.00     0.007 A 
ENDBRANCH  17  18
ENDBRANCH  12  17
BRANCH   6  24
HETATM   24  N1  UNL     1      22.820   4.183  48.071  1.00  0.00    -0.269 NA
HETATM   25  H7  UNL     1      23.642   4.805  47.890  1.00  0.00     0.123 HD
HETATM   26  H8  UNL     1      22.677   3.493  47.280  1.00  0.00     0.123 HD
ENDBRANCH   6  24
TORSDOF 3
ENDMDL
MODEL 6
REMARK VINA RESULT:      -8.1      2.915      5.478
REMARK  3 active torsions:
REMARK  status: ('A' for Active; 'I' for Inactive)
REMARK    1  A    between atoms: C6_6  and  N1_7 
REMARK    2  A    between atoms: C9_13  and  C10_14 
REMARK    3  A    between atoms: C10_14  and  C11_15 
ROOT
HETATM    1  C1  UNL     1      24.450  -0.516  53.741  1.00  0.00     0.015 C 
HETATM    2  C2  UNL     1      23.818   0.651  53.070  1.00  0.00    -0.028 C 
HETATM    3  C3  UNL     1      22.701  -0.082  52.738  1.00  0.00     0.062 C 
HETATM    4  C4  UNL     1      21.411   0.179  52.029  1.00  0.00    -0.018 C 
HETATM    5  C5  UNL     1      20.431   0.846  51.366  1.00  0.00     0.063 C 
HETATM    6  C6  UNL     1      20.478   2.315  51.003  1.00  0.00     0.432 A 
HETATM    7  N2  UNL     1      20.764   3.037  52.277  1.00  0.00     0.203 N 
HETATM    8  C7  UNL     1      22.207   3.219  52.275  1.00  0.00     0.468 A 
HETATM    9  N3  UNL     1      21.144   2.871  51.473  1.00  0.00     0.248 N 
HETATM   10  C8  UNL     1      21.773   2.647  50.341  1.00  0.00     0.332 A 
HETATM   11  N4  UNL     1      22.850   2.546  49.447  1.00  0.00    -0.225 NA
HETATM   12  C9  UNL     1      24.004   2.896  50.255  1.00  0.00     0.052 A 
HETATM   13  C17 UNL     1      23.278   3.125  51.448  1.00  0.00     0.042 A 
HETATM   14  C18 UNL     1      24.506   3.052  52.307  1.00  0.00     0.010 C 
HETATM   15  C19 UNL     1      24.648   1.891  52.987  1.00  0.00    -0.021 C 
HETATM   16  H9  UNL     1      20.462   3.510  53.232  1.00  0.00     0.326 HD
ENDROOT
BRANCH  12  17
HETATM   17  C10 UNL     1      25.389   2.986  49.868  1.00  0.00     0.098 C 
BRANCH  17  18
HETATM   18  C11 UNL     1      25.843   4.285  49.329  1.00  0.00    -0.052 A 
HETATM   19  C12 UNL     1      25.166   5.443  49.039  1.00  0.00     0.007 A 
HETATM   20  C13 UNL     1      25.717   6.590  48.524  1.00  0.00     0.001 A 
HETATM   21  C14 UNL     1      27.069   6.566  48.279  1.00  0.00     0.000 A 
HETATM   22  C15 UNL     1      27.883   5.463  48.525  1.00  0.00     0.001 A 
HETATM   23  C16 UNL     1      27.214   4.373  49.042  1.00  0.00     0.007 A 
ENDBRANCH  17  18
ENDBRANCH  12  17
BRANCH   6  24
HETATM   24  N1  UNL     1      19.345   2.738  50.305  1.00  0.00    -0.269 NA
HETATM   25  H7  UNL     1      18.491   2.843  50.900  1.00  0.00     0.123 HD
HETATM   26  H8  UNL     1      19.581   3.643  49.808  1.00  0.00     0.123 HD
ENDBRANCH   6  24
TORSDOF 3
ENDMDL
MODEL 7
REMARK VINA RESULT:      -8.1      3.091      4.900
REMARK  3 active torsions:
REMARK  status: ('A' for Active; 'I' for Inactive)
REMARK    1  A    between atoms: C6_6  and  N1_7 
REMARK    2  A    between atoms: C9_13  and  C10_14 
REMARK    3  A    between atoms: C10_14  and  C11_15 
ROOT
HETATM    1  C1  UNL     1      27.463   4.769  48.796  1.00  0.00     0.015 C 
HETATM    2  C2  UNL     1      26.051   4.739  49.261  1.00  0.00    -0.028 C 
HETATM    3  C3  UNL     1      26.048   6.095  49.503  1.00  0.00     0.062 C 
HETATM    4  C4  UNL     1      25.061   7.101  49.999  1.00  0.00    -0.018 C 
HETATM    5  C5  UNL     1      23.895   7.627  50.455  1.00  0.00     0.063 C 
HETATM    6  C6  UNL     1      22.621   6.841  50.681  1.00  0.00     0.432 A 
HETATM    7  N2  UNL     1      22.350   6.132  49.398  1.00  0.00     0.203 N 
HETATM    8  C7  UNL     1      22.934   4.813  49.582  1.00  0.00     0.468 A 
HETATM    9  N3  UNL     1      22.563   5.952  50.258  1.00  0.00     0.248 N 
HETATM   10  C8  UNL     1      22.901   5.614  51.483  1.00  0.00     0.332 A 
HETATM   11  N4  UNL     1      23.401   4.816  52.521  1.00  0.00    -0.225 NA
HETATM   12  C9  UNL     1      23.818   3.597  51.852  1.00  0.00     0.052 A 
HETATM   13  C17 UNL     1      23.434   4.010  50.553  1.00  0.00     0.042 A 
HETATM   14  C18 UNL     1      24.255   2.947  49.884  1.00  0.00     0.010 C 
HETATM   15  C19 UNL     1      25.413   3.390  49.342  1.00  0.00    -0.021 C 
HETATM   16  H9  UNL     1      21.941   6.074  48.370  1.00  0.00     0.326 HD
ENDROOT
BRANCH  12  17
HETATM   17  C10 UNL     1      24.391   2.402  52.416  1.00  0.00     0.098 C 
BRANCH  17  18
HETATM   18  C11 UNL     1      23.443   1.393  52.934  1.00  0.00    -0.052 A 
HETATM   19  C12 UNL     1      22.072   1.363  52.977  1.00  0.00     0.007 A 
HETATM   20  C13 UNL     1      21.305   0.353  53.503  1.00  0.00     0.001 A 
HETATM   21  C14 UNL     1      21.981  -0.720  54.034  1.00  0.00     0.000 A 
HETATM   22  C15 UNL     1      23.369  -0.827  54.059  1.00  0.00     0.001 A 
HETATM   23  C16 UNL     1      24.028   0.250  53.501  1.00  0.00     0.007 A 
ENDBRANCH  17  18
ENDBRANCH  12  17
BRANCH   6  24
HETATM   24  N1  UNL     1      21.577   7.629  51.173  1.00  0.00    -0.269 NA
HETATM   25  H7  UNL     1      21.683   8.650  50.976  1.00  0.00     0.123 HD
HETATM   26  H8  UNL     1      20.667   7.253  50.784  1.00  0.00     0.123 HD
ENDBRANCH   6  24
TORSDOF 3
ENDMDL
MODEL 8
REMARK VINA RESULT:      -8.0      3.381      4.570
REMARK  3 active torsions:
REMARK  status: ('A' for Active; 'I' for Inactive)
REMARK    1  A    between atoms: C6_6  and  N1_7 
REMARK    2  A    between atoms: C9_13  and  C10_14 
REMARK    3  A    between atoms: C10_14  and  C11_15 
ROOT
HETATM    1  C1  UNL     1      21.471   3.885  46.722  1.00  0.00     0.015 C 
HETATM    2  C2  UNL     1      21.663   4.133  48.175  1.00  0.00    -0.028 C 
HETATM    3  C3  UNL     1      22.710   4.997  47.941  1.00  0.00     0.062 C 
HETATM    4  C4  UNL     1      23.628   5.832  48.775  1.00  0.00    -0.018 C 
HETATM    5  C5  UNL     1      24.192   6.402  49.871  1.00  0.00     0.063 C 
HETATM    6  C6  UNL     1      23.735   6.175  51.296  1.00  0.00     0.432 A 
HETATM    7  N2  UNL     1      22.274   6.476  51.305  1.00  0.00     0.203 N 
HETATM    8  C7  UNL     1      21.636   5.181  51.129  1.00  0.00     0.468 A 
HETATM    9  N3  UNL     1      22.840   5.780  51.421  1.00  0.00     0.248 N 
HETATM   10  C8  UNL     1      23.596   4.716  51.573  1.00  0.00     0.332 A 
HETATM   11  N4  UNL     1      23.935   3.356  51.623  1.00  0.00    -0.225 NA
HETATM   12  C9  UNL     1      22.690   2.677  51.310  1.00  0.00     0.052 A 
HETATM   13  C17 UNL     1      21.921   3.856  51.159  1.00  0.00     0.042 A 
HETATM   14  C18 UNL     1      20.816   3.140  50.437  1.00  0.00     0.010 C 
HETATM   15  C19 UNL     1      20.801   3.334  49.099  1.00  0.00    -0.021 C 
HETATM   16  H9  UNL     1      21.410   7.165  51.371  1.00  0.00     0.326 HD
ENDROOT
BRANCH  12  17
HETATM   17  C10 UNL     1      22.421   1.264  51.235  1.00  0.00     0.098 C 
BRANCH  17  18
HETATM   18  C11 UNL     1      22.355   0.533  52.518  1.00  0.00    -0.052 A 
HETATM   19  C12 UNL     1      23.254  -0.286  53.152  1.00  0.00     0.007 A 
HETATM   20  C13 UNL     1      23.058  -0.918  54.355  1.00  0.00     0.001 A 
HETATM   21  C14 UNL     1      21.848  -0.706  54.971  1.00  0.00     0.000 A 
HETATM   22  C15 UNL     1      20.840   0.100  54.446  1.00  0.00     0.001 A 
HETATM   23  C16 UNL     1      21.157   0.680  53.235  1.00  0.00     0.007 A 
ENDBRANCH  17  18
ENDBRANCH  12  17
BRANCH   6  24
HETATM   24  N1  UNL     1      24.505   6.872  52.230  1.00  0.00    -0.269 NA
HETATM   25  H7  UNL     1      23.972   7.586  52.776  1.00  0.00     0.123 HD
HETATM   26  H8  UNL     1      24.969   6.166  52.869  1.00  0.00     0.123 HD
ENDBRANCH   6  24
TORSDOF 3
ENDMDL
MODEL 9
REMARK VINA RESULT:      -8.0      2.362      3.793
REMARK  3 active torsions:
REMARK  status: ('A' for Active; 'I' for Inactive)
REMARK    1  A    between atoms: C6_6  and  N1_7 
REMARK    2  A    between atoms: C9_13  and  C10_14 
REMARK    3  A    between atoms: C10_14  and  C11_15 
ROOT
HETATM    1  C1  UNL     1      23.471   6.262  51.165  1.00  0.00     0.015 C 
HETATM    2  C2  UNL     1      23.416   4.777  51.160  1.00  0.00    -0.028 C 
HETATM    3  C3  UNL     1      22.181   4.770  51.770  1.00  0.00     0.062 C 
HETATM    4  C4  UNL     1      21.204   3.731  52.218  1.00  0.00    -0.018 C 
HETATM    5  C5  UNL     1      20.650   2.511  52.438  1.00  0.00     0.063 C 
HETATM    6  C6  UNL     1      21.276   1.192  52.039  1.00  0.00     0.432 A 
HETATM    7  N2  UNL     1      21.587   1.315  50.585  1.00  0.00     0.203 N 
HETATM    8  C7  UNL     1      22.979   1.734  50.546  1.00  0.00     0.468 A 
HETATM    9  N3  UNL     1      22.010   1.227  51.380  1.00  0.00     0.248 N 
HETATM   10  C8  UNL     1      22.694   1.128  52.498  1.00  0.00     0.332 A 
HETATM   11  N4  UNL     1      23.795   1.218  53.362  1.00  0.00    -0.225 NA
HETATM   12  C9  UNL     1      24.849   1.763  52.525  1.00  0.00     0.052 A 
HETATM   13  C17 UNL     1      24.066   1.846  51.348  1.00  0.00     0.042 A 
HETATM   14  C18 UNL     1      25.030   2.781  50.676  1.00  0.00     0.010 C 
HETATM   15  C19 UNL     1      24.635   4.074  50.655  1.00  0.00    -0.021 C 
HETATM   16  H9  UNL     1      21.320   1.261  49.512  1.00  0.00     0.326 HD
ENDROOT
BRANCH  12  17
HETATM   17  C10 UNL     1      26.219   2.055  52.865  1.00  0.00     0.098 C 
BRANCH  17  18
HETATM   18  C11 UNL     1      27.130   0.898  52.994  1.00  0.00    -0.052 A 
HETATM   19  C12 UNL     1      26.951  -0.440  52.748  1.00  0.00     0.007 A 
HETATM   20  C13 UNL     1      27.892  -1.424  52.923  1.00  0.00     0.001 A 
HETATM   21  C14 UNL     1      29.122  -1.022  53.387  1.00  0.00     0.000 A 
HETATM   22  C15 UNL     1      29.448   0.301  53.679  1.00  0.00     0.001 A 
HETATM   23  C16 UNL     1      28.419   1.195  53.462  1.00  0.00     0.007 A 
ENDBRANCH  17  18
ENDBRANCH  12  17
BRANCH   6  24
HETATM   24  N1  UNL     1      20.499   0.090  52.403  1.00  0.00    -0.269 NA
HETATM   25  H7  UNL     1      20.119   0.137  53.377  1.00  0.00     0.123 HD
HETATM   26  H8  UNL     1      19.722  -0.018  51.691  1.00  0.00     0.123 HD
ENDBRANCH   6  24
TORSDOF 3
ENDMDL
