MODEL 1
REMARK VINA RESULT:      -7.9      0.000      0.000
REMARK  6 active torsions:
REMARK  status: ('A' for Active; 'I' for Inactive)
REMARK    1  A    between atoms: O1_2  and  C2_3 
REMARK    2  A    between atoms: C3_5  and  N2_6 
REMARK    3  A    between atoms: N2_6  and  C4_7 
REMARK    4  A    between atoms: C4_7  and  C5_8 
REMARK    5  A    between atoms: C9_15  and  N5_16 
REMARK    6  A    between atoms: N5_16  and  C10_17 
ROOT
HETATM    1  C2  UNL     1      27.826   0.104  54.207  1.00  0.00     0.302 A 
HETATM    2  N1  UNL     1      27.789   1.196  53.414  1.00  0.00    -0.018 NA
HETATM    3  C3  UNL     1      26.620   1.656  52.931  1.00  0.00     0.742 A 
HETATM    4  N4  UNL     1      25.476   0.994  53.262  1.00  0.00     0.130 NA
HETATM    5  C9  UNL     1      25.507  -0.105  54.061  1.00  0.00     0.746 A 
HETATM    6  N6  UNL     1      26.690  -0.574  54.550  1.00  0.00    -0.017 NA
ENDROOT
BRANCH   3   7
HETATM    7  N2  UNL     1      26.546   2.804  52.108  1.00  0.00    -0.220 N 
HETATM    8  H4  UNL     1      26.483   3.759  52.571  1.00  0.00     0.177 HD
BRANCH   7   9
HETATM    9  C4  UNL     1      26.557   2.677  50.658  1.00  0.00     0.175 C 
BRANCH   9  10
HETATM   10  C5  UNL     1      25.418   3.556  50.116  1.00  0.00     0.262 C 
HETATM   11  C6  UNL     1      24.086   3.091  50.601  1.00  0.00     0.204 C 
HETATM   12  O2  UNL     1      23.662   3.724  51.751  1.00  0.00    -0.387 OA
HETATM   13  C7  UNL     1      23.581   5.102  51.658  1.00  0.00     0.197 C 
HETATM   14  C8  UNL     1      24.567   5.732  50.729  1.00  0.00     0.296 C 
HETATM   15  N3  UNL     1      25.710   4.930  50.439  1.00  0.00     0.093 N 
HETATM   16  H14 UNL     1      26.438   4.989  51.190  1.00  0.00     0.316 HD
ENDBRANCH   9  10
ENDBRANCH   7   9
ENDBRANCH   3   7
BRANCH   1  17
HETATM   17  O1  UNL     1      29.116  -0.207  54.594  1.00  0.00    -0.323 OA
HETATM   18  C1  UNL     1      29.968  -0.862  53.674  1.00  0.00     0.213 C 
ENDBRANCH   1  17
BRANCH   5  19
HETATM   19  N5  UNL     1      24.269  -0.728  54.351  1.00  0.00    -0.188 N 
HETATM   20  H15 UNL     1      24.564  -1.408  55.092  1.00  0.00     0.184 HD
BRANCH  19  21
HETATM   21  C10 UNL     1      22.930  -0.623  53.904  1.00  0.00     0.049 A 
HETATM   22  C11 UNL     1      21.980  -1.327  54.588  1.00  0.00     0.032 A 
HETATM   23  C12 UNL     1      20.670  -1.307  54.221  1.00  0.00     0.026 A 
HETATM   24  C13 UNL     1      20.345  -0.528  53.103  1.00  0.00     0.034 A 
HETATM   25 CL1  UNL     1      18.672  -0.483  52.604  1.00  0.00    -0.084 Cl
HETATM   26  C14 UNL     1      21.298   0.195  52.394  1.00  0.00     0.026 A 
HETATM   27  C15 UNL     1      22.601   0.141  52.808  1.00  0.00     0.032 A 
ENDBRANCH  19  21
ENDBRANCH   5  19
TORSDOF 6
ENDMDL
MODEL 2
REMARK VINA RESULT:      -7.7      4.408      8.414
REMARK  6 active torsions:
REMARK  status: ('A' for Active; 'I' for Inactive)
REMARK    1  A    between atoms: O1_2  and  C2_3 
REMARK    2  A    between atoms: C3_5  and  N2_6 
REMARK    3  A    between atoms: N2_6  and  C4_7 
REMARK    4  A    between atoms: C4_7  and  C5_8 
REMARK    5  A    between atoms: C9_15  and  N5_16 
REMARK    6  A    between atoms: N5_16  and  C10_17 
ROOT
HETATM    1  C2  UNL     1      24.336   3.387  51.039  1.00  0.00     0.302 A 
HETATM    2  N1  UNL     1      24.957   2.692  52.017  1.00  0.00    -0.018 NA
HETATM    3  C3  UNL     1      26.285   2.479  51.973  1.00  0.00     0.742 A 
HETATM    4  N4  UNL     1      26.988   2.981  50.919  1.00  0.00     0.130 NA
HETATM    5  C9  UNL     1      26.370   3.682  49.933  1.00  0.00     0.746 A 
HETATM    6  N6  UNL     1      25.024   3.898  49.973  1.00  0.00    -0.017 NA
ENDROOT
BRANCH   3   7
HETATM    7  N2  UNL     1      26.967   1.767  52.987  1.00  0.00    -0.220 N 
HETATM    8  H4  UNL     1      26.571   0.832  53.306  1.00  0.00     0.177 HD
BRANCH   7   9
HETATM    9  C4  UNL     1      28.183   2.304  53.579  1.00  0.00     0.175 C 
BRANCH   9  10
HETATM   10  C5  UNL     1      28.893   1.142  54.293  1.00  0.00     0.262 C 
HETATM   11  C6  UNL     1      27.932   0.075  54.696  1.00  0.00     0.204 C 
HETATM   12  O2  UNL     1      27.801  -0.934  53.766  1.00  0.00    -0.387 OA
HETATM   13  C7  UNL     1      28.981  -1.579  53.440  1.00  0.00     0.197 C 
HETATM   14  C8  UNL     1      30.207  -0.728  53.514  1.00  0.00     0.296 C 
HETATM   15  N3  UNL     1      29.964   0.676  53.449  1.00  0.00     0.093 N 
HETATM   16  H14 UNL     1      29.835   1.012  52.466  1.00  0.00     0.316 HD
ENDBRANCH   9  10
ENDBRANCH   7   9
ENDBRANCH   3   7
BRANCH   1  17
HETATM   17  O1  UNL     1      22.977   3.492  51.266  1.00  0.00    -0.323 OA
HETATM   18  C1  UNL     1      22.510   4.454  52.191  1.00  0.00     0.213 C 
ENDBRANCH   1  17
BRANCH   5  19
HETATM   19  N5  UNL     1      27.179   4.164  48.877  1.00  0.00    -0.188 N 
HETATM   20  H15 UNL     1      27.327   3.284  48.327  1.00  0.00     0.184 HD
BRANCH  19  21
HETATM   21  C10 UNL     1      27.736   5.407  48.487  1.00  0.00     0.049 A 
HETATM   22  C11 UNL     1      29.076   5.441  48.221  1.00  0.00     0.032 A 
HETATM   23  C12 UNL     1      29.706   6.592  47.861  1.00  0.00     0.026 A 
HETATM   24  C13 UNL     1      28.909   7.742  47.779  1.00  0.00     0.034 A 
HETATM   25 CL1  UNL     1      29.687   9.237  47.321  1.00  0.00    -0.084 Cl
HETATM   26  C14 UNL     1      27.544   7.726  48.045  1.00  0.00     0.026 A 
HETATM   27  C15 UNL     1      26.962   6.540  48.402  1.00  0.00     0.032 A 
ENDBRANCH  19  21
ENDBRANCH   5  19
TORSDOF 6
ENDMDL
MODEL 3
REMARK VINA RESULT:      -7.5      3.296      7.209
REMARK  6 active torsions:
REMARK  status: ('A' for Active; 'I' for Inactive)
REMARK    1  A    between atoms: O1_2  and  C2_3 
REMARK    2  A    between atoms: C3_5  and  N2_6 
REMARK    3  A    between atoms: N2_6  and  C4_7 
REMARK    4  A    between atoms: C4_7  and  C5_8 
REMARK    5  A    between atoms: C9_15  and  N5_16 
REMARK    6  A    between atoms: N5_16  and  C10_17 
ROOT
HETATM    1  C2  UNL     1      22.906   1.331  52.454  1.00  0.00     0.302 A 
HETATM    2  N1  UNL     1      23.925   1.201  53.331  1.00  0.00    -0.018 NA
HETATM    3  C3  UNL     1      25.144   1.699  53.048  1.00  0.00     0.742 A 
HETATM    4  N4  UNL     1      25.323   2.338  51.859  1.00  0.00     0.130 NA
HETATM    5  C9  UNL     1      24.301   2.474  50.974  1.00  0.00     0.746 A 
HETATM    6  N6  UNL     1      23.067   1.969  51.256  1.00  0.00    -0.017 NA
ENDROOT
BRANCH   3   7
HETATM    7  N2  UNL     1      26.228   1.589  53.950  1.00  0.00    -0.220 N 
HETATM    8  H4  UNL     1      26.079   1.065  54.863  1.00  0.00     0.177 HD
BRANCH   7   9
HETATM    9  C4  UNL     1      27.518   2.183  53.631  1.00  0.00     0.175 C 
BRANCH   9  10
HETATM   10  C5  UNL     1      28.597   1.303  54.285  1.00  0.00     0.262 C 
HETATM   11  C6  UNL     1      28.008   0.086  54.913  1.00  0.00     0.204 C 
HETATM   12  O2  UNL     1      27.997  -1.016  54.085  1.00  0.00    -0.387 OA
HETATM   13  C7  UNL     1      29.238  -1.392  53.603  1.00  0.00     0.197 C 
HETATM   14  C8  UNL     1      30.207  -0.271  53.411  1.00  0.00     0.296 C 
HETATM   15  N3  UNL     1      29.611   1.020  53.300  1.00  0.00     0.093 N 
HETATM   16  H14 UNL     1      29.256   1.212  52.334  1.00  0.00     0.316 HD
ENDBRANCH   9  10
ENDBRANCH   7   9
ENDBRANCH   3   7
BRANCH   1  17
HETATM   17  O1  UNL     1      21.744   0.752  52.927  1.00  0.00    -0.323 OA
HETATM   18  C1  UNL     1      21.818  -0.126  54.034  1.00  0.00     0.213 C 
ENDBRANCH   1  17
BRANCH   5  19
HETATM   19  N5  UNL     1      24.581   3.152  49.763  1.00  0.00    -0.188 N 
HETATM   20  H15 UNL     1      23.880   2.705  49.124  1.00  0.00     0.184 HD
BRANCH  19  21
HETATM   21  C10 UNL     1      25.478   4.155  49.325  1.00  0.00     0.049 A 
HETATM   22  C11 UNL     1      24.953   5.378  49.014  1.00  0.00     0.032 A 
HETATM   23  C12 UNL     1      25.732   6.399  48.563  1.00  0.00     0.026 A 
HETATM   24  C13 UNL     1      27.101   6.131  48.433  1.00  0.00     0.034 A 
HETATM   25 CL1  UNL     1      28.129   7.419  47.854  1.00  0.00    -0.084 Cl
HETATM   26  C14 UNL     1      27.653   4.893  48.744  1.00  0.00     0.026 A 
HETATM   27  C15 UNL     1      26.824   3.903  49.195  1.00  0.00     0.032 A 
ENDBRANCH  19  21
ENDBRANCH   5  19
TORSDOF 6
ENDMDL
MODEL 4
REMARK VINA RESULT:      -7.4      3.488      6.302
REMARK  6 active torsions:
REMARK  status: ('A' for Active; 'I' for Inactive)
REMARK    1  A    between atoms: O1_2  and  C2_3 
REMARK    2  A    between atoms: C3_5  and  N2_6 
REMARK    3  A    between atoms: N2_6  and  C4_7 
REMARK    4  A    between atoms: C4_7  and  C5_8 
REMARK    5  A    between atoms: C9_15  and  N5_16 
REMARK    6  A    between atoms: N5_16  and  C10_17 
ROOT
HETATM    1  C2  UNL     1      27.303   1.968  53.209  1.00  0.00     0.302 A 
HETATM    2  N1  UNL     1      26.053   1.667  53.622  1.00  0.00    -0.018 NA
HETATM    3  C3  UNL     1      24.996   1.853  52.810  1.00  0.00     0.742 A 
HETATM    4  N4  UNL     1      25.217   2.352  51.561  1.00  0.00     0.130 NA
HETATM    5  C9  UNL     1      26.473   2.655  51.139  1.00  0.00     0.746 A 
HETATM    6  N6  UNL     1      27.545   2.469  51.960  1.00  0.00    -0.017 NA
ENDROOT
BRANCH   3   7
HETATM    7  N2  UNL     1      23.676   1.536  53.208  1.00  0.00    -0.220 N 
HETATM    8  H4  UNL     1      23.238   2.091  54.003  1.00  0.00     0.177 HD
BRANCH   7   9
HETATM    9  C4  UNL     1      22.938   0.473  52.543  1.00  0.00     0.175 C 
BRANCH   9  10
HETATM   10  C5  UNL     1      21.869   1.144  51.664  1.00  0.00     0.262 C 
HETATM   11  C6  UNL     1      21.300   2.357  52.318  1.00  0.00     0.204 C 
HETATM   12  O2  UNL     1      21.937   3.528  51.965  1.00  0.00    -0.387 OA
HETATM   13  C7  UNL     1      21.953   3.793  50.607  1.00  0.00     0.197 C 
HETATM   14  C8  UNL     1      21.980   2.585  49.728  1.00  0.00     0.296 C 
HETATM   15  N3  UNL     1      22.441   1.395  50.365  1.00  0.00     0.093 N 
HETATM   16  H14 UNL     1      23.486   1.343  50.402  1.00  0.00     0.316 HD
ENDBRANCH   9  10
ENDBRANCH   7   9
ENDBRANCH   3   7
BRANCH   1  17
HETATM   17  O1  UNL     1      28.244   1.709  54.187  1.00  0.00    -0.323 OA
HETATM   18  C1  UNL     1      28.440   0.375  54.613  1.00  0.00     0.213 C 
ENDBRANCH   1  17
BRANCH   5  19
HETATM   19  N5  UNL     1      26.607   3.168  49.827  1.00  0.00    -0.188 N 
HETATM   20  H15 UNL     1      26.656   2.278  49.275  1.00  0.00     0.184 HD
BRANCH  19  21
HETATM   21  C10 UNL     1      26.676   4.445  49.219  1.00  0.00     0.049 A 
HETATM   22  C11 UNL     1      27.884   4.841  48.719  1.00  0.00     0.032 A 
HETATM   23  C12 UNL     1      28.055   6.059  48.137  1.00  0.00     0.026 A 
HETATM   24  C13 UNL     1      26.927   6.887  48.077  1.00  0.00     0.034 A 
HETATM   25 CL1  UNL     1      27.113   8.459  47.338  1.00  0.00    -0.084 Cl
HETATM   26  C14 UNL     1      25.689   6.502  48.581  1.00  0.00     0.026 A 
HETATM   27  C15 UNL     1      25.574   5.265  49.154  1.00  0.00     0.032 A 
ENDBRANCH  19  21
ENDBRANCH   5  19
TORSDOF 6
ENDMDL
MODEL 5
REMARK VINA RESULT:      -7.4      3.627      7.628
REMARK  6 active torsions:
REMARK  status: ('A' for Active; 'I' for Inactive)
REMARK    1  A    between atoms: O1_2  and  C2_3 
REMARK    2  A    between atoms: C3_5  and  N2_6 
REMARK    3  A    between atoms: N2_6  and  C4_7 
REMARK    4  A    between atoms: C4_7  and  C5_8 
REMARK    5  A    between atoms: C9_15  and  N5_16 
REMARK    6  A    between atoms: N5_16  and  C10_17 
ROOT
HETATM    1  C2  UNL     1      22.569   1.602  50.494  1.00  0.00     0.302 A 
HETATM    2  N1  UNL     1      23.134   1.056  51.593  1.00  0.00    -0.018 NA
HETATM    3  C3  UNL     1      24.136   1.684  52.236  1.00  0.00     0.742 A 
HETATM    4  N4  UNL     1      24.566   2.883  51.751  1.00  0.00     0.130 NA
HETATM    5  C9  UNL     1      24.001   3.438  50.648  1.00  0.00     0.746 A 
HETATM    6  N6  UNL     1      22.986   2.803  49.994  1.00  0.00    -0.017 NA
ENDROOT
BRANCH   3   7
HETATM    7  N2  UNL     1      24.740   1.145  53.396  1.00  0.00    -0.220 N 
HETATM    8  H4  UNL     1      25.171   1.813  54.102  1.00  0.00     0.177 HD
BRANCH   7   9
HETATM    9  C4  UNL     1      24.769  -0.294  53.614  1.00  0.00     0.175 C 
BRANCH   9  10
HETATM   10  C5  UNL     1      26.246  -0.715  53.669  1.00  0.00     0.262 C 
HETATM   11  C6  UNL     1      26.986  -0.292  52.445  1.00  0.00     0.204 C 
HETATM   12  O2  UNL     1      27.611   0.931  52.570  1.00  0.00    -0.387 OA
HETATM   13  C7  UNL     1      28.513   1.017  53.616  1.00  0.00     0.197 C 
HETATM   14  C8  UNL     1      28.184   0.175  54.806  1.00  0.00     0.296 C 
HETATM   15  N3  UNL     1      26.816  -0.218  54.897  1.00  0.00     0.093 N 
HETATM   16  H14 UNL     1      26.213   0.532  55.309  1.00  0.00     0.316 HD
ENDBRANCH   9  10
ENDBRANCH   7   9
ENDBRANCH   3   7
BRANCH   1  17
HETATM   17  O1  UNL     1      21.564   0.803  49.982  1.00  0.00    -0.323 OA
HETATM   18  C1  UNL     1      20.323   1.393  49.649  1.00  0.00     0.213 C 
ENDBRANCH   1  17
BRANCH   5  19
HETATM   19  N5  UNL     1      24.512   4.685  50.217  1.00  0.00    -0.188 N 
HETATM   20  H15 UNL     1      23.730   5.324  50.499  1.00  0.00     0.184 HD
BRANCH  19  21
HETATM   21  C10 UNL     1      25.687   5.157  49.583  1.00  0.00     0.049 A 
HETATM   22  C11 UNL     1      25.760   6.492  49.303  1.00  0.00     0.032 A 
HETATM   23  C12 UNL     1      26.838   7.035  48.676  1.00  0.00     0.026 A 
HETATM   24  C13 UNL     1      27.871   6.154  48.331  1.00  0.00     0.034 A 
HETATM   25 CL1  UNL     1      29.269   6.819  47.522  1.00  0.00    -0.084 Cl
HETATM   26  C14 UNL     1      27.815   4.792  48.608  1.00  0.00     0.026 A 
HETATM   27  C15 UNL     1      26.707   4.300  49.242  1.00  0.00     0.032 A 
ENDBRANCH  19  21
ENDBRANCH   5  19
TORSDOF 6
ENDMDL
MODEL 6
REMARK VINA RESULT:      -7.3      3.287      7.015
REMARK  6 active torsions:
REMARK  status: ('A' for Active; 'I' for Inactive)
REMARK    1  A    between atoms: O1_2  and  C2_3 
REMARK    2  A    between atoms: C3_5  and  N2_6 
REMARK    3  A    between atoms: N2_6  and  C4_7 
REMARK    4  A    between atoms: C4_7  and  C5_8 
REMARK    5  A    between atoms: C9_15  and  N5_16 
REMARK    6  A    between atoms: N5_16  and  C10_17 
ROOT
HETATM    1  C2  UNL     1      21.673   1.193  52.510  1.00  0.00     0.302 A 
HETATM    2  N1  UNL     1      22.671   0.728  53.292  1.00  0.00    -0.018 NA
HETATM    3  C3  UNL     1      23.957   0.998  53.000  1.00  0.00     0.742 A 
HETATM    4  N4  UNL     1      24.227   1.751  51.898  1.00  0.00     0.130 NA
HETATM    5  C9  UNL     1      23.228   2.223  51.108  1.00  0.00     0.746 A 
HETATM    6  N6  UNL     1      21.924   1.950  51.400  1.00  0.00    -0.017 NA
ENDROOT
BRANCH   3   7
HETATM    7  N2  UNL     1      25.024   0.536  53.806  1.00  0.00    -0.220 N 
HETATM    8  H4  UNL     1      25.422   1.188  54.546  1.00  0.00     0.177 HD
BRANCH   7   9
HETATM    9  C4  UNL     1      25.562  -0.804  53.624  1.00  0.00     0.175 C 
BRANCH   9  10
HETATM   10  C5  UNL     1      27.085  -0.664  53.462  1.00  0.00     0.262 C 
HETATM   11  C6  UNL     1      27.437   0.246  52.335  1.00  0.00     0.204 C 
HETATM   12  O2  UNL     1      27.630   1.556  52.720  1.00  0.00    -0.387 OA
HETATM   13  C7  UNL     1      28.605   1.740  53.684  1.00  0.00     0.197 C 
HETATM   14  C8  UNL     1      28.768   0.604  54.642  1.00  0.00     0.296 C 
HETATM   15  N3  UNL     1      27.643  -0.267  54.731  1.00  0.00     0.093 N 
HETATM   16  H14 UNL     1      26.898   0.109  55.363  1.00  0.00     0.316 HD
ENDBRANCH   9  10
ENDBRANCH   7   9
ENDBRANCH   3   7
BRANCH   1  17
HETATM   17  O1  UNL     1      20.431   0.805  52.976  1.00  0.00    -0.323 OA
HETATM   18  C1  UNL     1      19.503   0.245  52.069  1.00  0.00     0.213 C 
ENDBRANCH   1  17
BRANCH   5  19
HETATM   19  N5  UNL     1      23.603   2.996  49.983  1.00  0.00    -0.188 N 
HETATM   20  H15 UNL     1      22.770   2.854  49.363  1.00  0.00     0.184 HD
BRANCH  19  21
HETATM   21  C10 UNL     1      24.708   3.795  49.601  1.00  0.00     0.049 A 
HETATM   22  C11 UNL     1      24.451   5.075  49.198  1.00  0.00     0.032 A 
HETATM   23  C12 UNL     1      25.444   5.911  48.791  1.00  0.00     0.026 A 
HETATM   24  C13 UNL     1      26.745   5.392  48.806  1.00  0.00     0.034 A 
HETATM   25 CL1  UNL     1      28.043   6.439  48.287  1.00  0.00    -0.084 Cl
HETATM   26  C14 UNL     1      27.026   4.092  49.214  1.00  0.00     0.026 A 
HETATM   27  C15 UNL     1      25.989   3.295  49.615  1.00  0.00     0.032 A 
ENDBRANCH  19  21
ENDBRANCH   5  19
TORSDOF 6
ENDMDL
MODEL 7
REMARK VINA RESULT:      -7.2      3.746      5.967
REMARK  6 active torsions:
REMARK  status: ('A' for Active; 'I' for Inactive)
REMARK    1  A    between atoms: O1_2  and  C2_3 
REMARK    2  A    between atoms: C3_5  and  N2_6 
REMARK    3  A    between atoms: N2_6  and  C4_7 
REMARK    4  A    between atoms: C4_7  and  C5_8 
REMARK    5  A    between atoms: C9_15  and  N5_16 
REMARK    6  A    between atoms: N5_16  and  C10_17 
ROOT
HETATM    1  C2  UNL     1      20.991   0.445  52.685  1.00  0.00     0.302 A 
HETATM    2  N1  UNL     1      21.274   1.623  52.089  1.00  0.00    -0.018 NA
HETATM    3  C3  UNL     1      22.521   2.130  52.123  1.00  0.00     0.742 A 
HETATM    4  N4  UNL     1      23.489   1.425  52.772  1.00  0.00     0.130 NA
HETATM    5  C9  UNL     1      23.211   0.238  53.372  1.00  0.00     0.746 A 
HETATM    6  N6  UNL     1      21.949  -0.277  53.340  1.00  0.00    -0.017 NA
ENDROOT
BRANCH   3   7
HETATM    7  N2  UNL     1      22.852   3.355  51.499  1.00  0.00    -0.220 N 
HETATM    8  H4  UNL     1      23.876   3.566  51.304  1.00  0.00     0.177 HD
BRANCH   7   9
HETATM    9  C4  UNL     1      21.811   4.304  51.132  1.00  0.00     0.175 C 
BRANCH   9  10
HETATM   10  C5  UNL     1      21.590   4.173  49.617  1.00  0.00     0.262 C 
HETATM   11  C6  UNL     1      22.870   3.922  48.894  1.00  0.00     0.204 C 
HETATM   12  O2  UNL     1      23.143   2.585  48.695  1.00  0.00    -0.387 OA
HETATM   13  C7  UNL     1      22.167   1.890  48.004  1.00  0.00     0.197 C 
HETATM   14  C8  UNL     1      20.773   2.389  48.207  1.00  0.00     0.296 C 
HETATM   15  N3  UNL     1      20.584   3.166  49.388  1.00  0.00     0.093 N 
HETATM   16  H14 UNL     1      20.454   2.570  50.240  1.00  0.00     0.316 HD
ENDBRANCH   9  10
ENDBRANCH   7   9
ENDBRANCH   3   7
BRANCH   1  17
HETATM   17  O1  UNL     1      19.660   0.103  52.540  1.00  0.00    -0.323 OA
HETATM   18  C1  UNL     1      19.113  -0.893  53.382  1.00  0.00     0.213 C 
ENDBRANCH   1  17
BRANCH   5  19
HETATM   19  N5  UNL     1      24.280  -0.424  54.022  1.00  0.00    -0.188 N 
HETATM   20  H15 UNL     1      23.758  -0.962  54.755  1.00  0.00     0.184 HD
BRANCH  19  21
HETATM   21  C10 UNL     1      25.688  -0.488  53.891  1.00  0.00     0.049 A 
HETATM   22  C11 UNL     1      26.438   0.187  54.812  1.00  0.00     0.032 A 
HETATM   23  C12 UNL     1      27.798   0.204  54.756  1.00  0.00     0.026 A 
HETATM   24  C13 UNL     1      28.389  -0.508  53.704  1.00  0.00     0.034 A 
HETATM   25 CL1  UNL     1      30.133  -0.505  53.602  1.00  0.00    -0.084 Cl
HETATM   26  C14 UNL     1      27.642  -1.201  52.757  1.00  0.00     0.026 A 
HETATM   27  C15 UNL     1      26.279  -1.185  52.863  1.00  0.00     0.032 A 
ENDBRANCH  19  21
ENDBRANCH   5  19
TORSDOF 6
ENDMDL
MODEL 8
REMARK VINA RESULT:      -7.1      3.933      5.937
REMARK  6 active torsions:
REMARK  status: ('A' for Active; 'I' for Inactive)
REMARK    1  A    between atoms: O1_2  and  C2_3 
REMARK    2  A    between atoms: C3_5  and  N2_6 
REMARK    3  A    between atoms: N2_6  and  C4_7 
REMARK    4  A    between atoms: C4_7  and  C5_8 
REMARK    5  A    between atoms: C9_15  and  N5_16 
REMARK    6  A    between atoms: N5_16  and  C10_17 
ROOT
HETATM    1  C2  UNL     1      22.341   3.366  51.382  1.00  0.00     0.302 A 
HETATM    2  N1  UNL     1      23.193   4.294  50.896  1.00  0.00    -0.018 NA
HETATM    3  C3  UNL     1      24.519   4.187  51.105  1.00  0.00     0.742 A 
HETATM    4  N4  UNL     1      24.980   3.121  51.817  1.00  0.00     0.130 NA
HETATM    5  C9  UNL     1      24.128   2.183  52.307  1.00  0.00     0.746 A 
HETATM    6  N6  UNL     1      22.784   2.289  52.099  1.00  0.00    -0.017 NA
ENDROOT
BRANCH   3   7
HETATM    7  N2  UNL     1      25.439   5.136  50.599  1.00  0.00    -0.220 N 
HETATM    8  H4  UNL     1      25.485   6.094  51.058  1.00  0.00     0.177 HD
BRANCH   7   9
HETATM    9  C4  UNL     1      26.301   4.803  49.475  1.00  0.00     0.175 C 
BRANCH   9  10
HETATM   10  C5  UNL     1      26.535   6.100  48.683  1.00  0.00     0.262 C 
HETATM   11  C6  UNL     1      25.542   7.152  49.044  1.00  0.00     0.204 C 
HETATM   12  O2  UNL     1      25.973   8.004  50.040  1.00  0.00    -0.387 OA
HETATM   13  C7  UNL     1      27.156   8.666  49.764  1.00  0.00     0.197 C 
HETATM   14  C8  UNL     1      28.115   7.914  48.900  1.00  0.00     0.296 C 
HETATM   15  N3  UNL     1      27.907   6.504  48.865  1.00  0.00     0.093 N 
HETATM   16  H14 UNL     1      28.330   6.019  49.691  1.00  0.00     0.316 HD
ENDBRANCH   9  10
ENDBRANCH   7   9
ENDBRANCH   3   7
BRANCH   1  17
HETATM   17  O1  UNL     1      21.028   3.657  51.063  1.00  0.00    -0.323 OA
HETATM   18  C1  UNL     1      20.005   3.271  51.960  1.00  0.00     0.213 C 
ENDBRANCH   1  17
BRANCH   5  19
HETATM   19  N5  UNL     1      24.696   1.111  53.035  1.00  0.00    -0.188 N 
HETATM   20  H15 UNL     1      23.839   0.704  53.481  1.00  0.00     0.184 HD
BRANCH  19  21
HETATM   21  C10 UNL     1      25.989   0.572  53.240  1.00  0.00     0.049 A 
HETATM   22  C11 UNL     1      26.300  -0.587  52.587  1.00  0.00     0.032 A 
HETATM   23  C12 UNL     1      27.509  -1.193  52.737  1.00  0.00     0.026 A 
HETATM   24  C13 UNL     1      28.419  -0.567  53.599  1.00  0.00     0.034 A 
HETATM   25 CL1  UNL     1      29.980  -1.320  53.816  1.00  0.00    -0.084 Cl
HETATM   26  C14 UNL     1      28.121   0.613  54.272  1.00  0.00     0.026 A 
HETATM   27  C15 UNL     1      26.891   1.180  54.082  1.00  0.00     0.032 A 
ENDBRANCH  19  21
ENDBRANCH   5  19
TORSDOF 6
ENDMDL
MODEL 9
REMARK VINA RESULT:      -7.0      4.491      7.068
REMARK  6 active torsions:
REMARK  status: ('A' for Active; 'I' for Inactive)
REMARK    1  A    between atoms: O1_2  and  C2_3 
REMARK    2  A    between atoms: C3_5  and  N2_6 
REMARK    3  A    between atoms: N2_6  and  C4_7 
REMARK    4  A    between atoms: C4_7  and  C5_8 
REMARK    5  A    between atoms: C9_15  and  N5_16 
REMARK    6  A    between atoms: N5_16  and  C10_17 
ROOT
HETATM    1  C2  UNL     1      24.508   4.776  49.570  1.00  0.00     0.302 A 
HETATM    2  N1  UNL     1      25.650   5.168  48.966  1.00  0.00    -0.018 NA
HETATM    3  C3  UNL     1      26.820   4.565  49.248  1.00  0.00     0.742 A 
HETATM    4  N4  UNL     1      26.823   3.550  50.156  1.00  0.00     0.130 NA
HETATM    5  C9  UNL     1      25.677   3.149  50.766  1.00  0.00     0.746 A 
HETATM    6  N6  UNL     1      24.491   3.759  50.484  1.00  0.00    -0.017 NA
ENDROOT
BRANCH   3   7
HETATM    7  N2  UNL     1      28.031   4.945  48.624  1.00  0.00    -0.220 N 
HETATM    8  H4  UNL     1      28.776   4.202  48.466  1.00  0.00     0.177 HD
BRANCH   7   9
HETATM    9  C4  UNL     1      28.249   6.323  48.208  1.00  0.00     0.175 C 
BRANCH   9  10
HETATM   10  C5  UNL     1      29.761   6.498  47.991  1.00  0.00     0.262 C 
HETATM   11  C6  UNL     1      30.101   7.893  47.589  1.00  0.00     0.204 C 
HETATM   12  O2  UNL     1      30.433   8.711  48.649  1.00  0.00    -0.387 OA
HETATM   13  C7  UNL     1      31.491   8.261  49.419  1.00  0.00     0.197 C 
HETATM   14  C8  UNL     1      31.631   6.775  49.495  1.00  0.00     0.296 C 
HETATM   15  N3  UNL     1      30.446   6.048  49.177  1.00  0.00     0.093 N 
HETATM   16  H14 UNL     1      29.786   5.989  49.988  1.00  0.00     0.316 HD
ENDBRANCH   9  10
ENDBRANCH   7   9
ENDBRANCH   3   7
BRANCH   1  17
HETATM   17  O1  UNL     1      23.422   5.520  49.148  1.00  0.00    -0.323 OA
HETATM   18  C1  UNL     1      23.386   6.903  49.436  1.00  0.00     0.213 C 
ENDBRANCH   1  17
BRANCH   5  19
HETATM   19  N5  UNL     1      25.777   2.087  51.696  1.00  0.00    -0.188 N 
HETATM   20  H15 UNL     1      24.766   1.942  51.934  1.00  0.00     0.184 HD
BRANCH  19  21
HETATM   21  C10 UNL     1      26.812   1.310  52.270  1.00  0.00     0.049 A 
HETATM   22  C11 UNL     1      26.707  -0.049  52.174  1.00  0.00     0.032 A 
HETATM   23  C12 UNL     1      27.640  -0.880  52.714  1.00  0.00     0.026 A 
HETATM   24  C13 UNL     1      28.715  -0.269  53.374  1.00  0.00     0.034 A 
HETATM   25 CL1  UNL     1      29.929  -1.307  54.080  1.00  0.00    -0.084 Cl
HETATM   26  C14 UNL     1      28.839   1.113  53.480  1.00  0.00     0.026 A 
HETATM   27  C15 UNL     1      27.872   1.900  52.918  1.00  0.00     0.032 A 
ENDBRANCH  19  21
ENDBRANCH   5  19
TORSDOF 6
ENDMDL
