MODEL 1
REMARK VINA RESULT:      -9.4      0.000      0.000
REMARK  2 active torsions:
REMARK  status: ('A' for Active; 'I' for Inactive)
REMARK    1  A    between atoms: N2_7  and  C6_8 
REMARK    2  A    between atoms: C18_23  and  N4_24 
ROOT
HETATM    1  C1  UNL     1      22.606   0.808  53.033  1.00  0.00     0.027 C 
HETATM    2  C2  UNL     1      23.482   1.441  52.136  1.00  0.00     0.221 A 
HETATM    3  N1  UNL     1      22.332   1.498  51.131  1.00  0.00    -0.017 N 
HETATM    4  C3  UNL     1      22.766   2.293  49.939  1.00  0.00     0.129 A 
HETATM    5  C4  UNL     1      23.688   2.124  50.792  1.00  0.00     0.298 A 
HETATM    6  C5  UNL     1      24.082   1.696  52.111  1.00  0.00     0.262 A 
HETATM    7  N2  UNL     1      25.606   1.302  51.954  1.00  0.00    -0.002 N 
HETATM    8  C12 UNL     1      24.685   1.415  53.124  1.00  0.00     0.269 A 
HETATM    9  C13 UNL     1      24.337   2.923  52.555  1.00  0.00     0.245 A 
HETATM   10  O1  UNL     1      23.424   3.847  52.871  1.00  0.00    -0.199 OA
HETATM   11  N3  UNL     1      24.808   3.913  51.554  1.00  0.00    -0.377 N 
HETATM   12  C14 UNL     1      24.299   5.011  50.750  1.00  0.00     0.108 C 
HETATM   13  C15 UNL     1      24.506   6.351  50.828  1.00  0.00    -0.006 C 
HETATM   14  C16 UNL     1      24.001   6.658  49.575  1.00  0.00    -0.026 C 
HETATM   15  C17 UNL     1      23.769   5.584  48.470  1.00  0.00     0.069 C 
HETATM   16  C18 UNL     1      22.780   4.570  48.930  1.00  0.00     0.170 C 
HETATM   17  C20 UNL     1      22.981   3.094  48.680  1.00  0.00     0.105 C 
HETATM   18  C21 UNL     1      22.809   4.795  50.455  1.00  0.00     0.047 C 
HETATM   19  C22 UNL     1      21.975   6.012  50.849  1.00  0.00     0.015 C 
HETATM   20  H3  UNL     1      21.401   1.151  51.051  1.00  0.00     0.288 HD
HETATM   21  H5  UNL     1      26.207   1.641  51.145  1.00  0.00     0.289 HD
HETATM   22  H10 UNL     1      25.861   3.755  51.495  1.00  0.00     0.157 HD
ENDROOT
BRANCH   7  23
HETATM   23  C6  UNL     1      26.743   0.565  52.433  1.00  0.00     0.137 A 
HETATM   24  C7  UNL     1      27.763   1.309  52.937  1.00  0.00     0.039 A 
HETATM   25  C8  UNL     1      28.909   0.789  53.460  1.00  0.00     0.026 A 
HETATM   26  C9  UNL     1      28.899  -0.586  53.406  1.00  0.00     0.034 A 
HETATM   27 CL1  UNL     1      30.314  -1.431  54.056  1.00  0.00    -0.084 Cl
HETATM   28  C10 UNL     1      27.924  -1.421  52.925  1.00  0.00     0.026 A 
HETATM   29  C11 UNL     1      26.798  -0.798  52.414  1.00  0.00     0.039 A 
ENDBRANCH   7  23
BRANCH  16  30
HETATM   30  N4  UNL     1      21.488   5.018  48.405  1.00  0.00     0.089 N 
HETATM   31  C19 UNL     1      21.096   4.320  47.177  1.00  0.00     0.307 C 
HETATM   32  H16 UNL     1      21.607   6.020  48.138  1.00  0.00     0.316 HD
ENDBRANCH  16  30
TORSDOF 2
ENDMDL
MODEL 2
REMARK VINA RESULT:      -9.0      1.356      1.899
REMARK  2 active torsions:
REMARK  status: ('A' for Active; 'I' for Inactive)
REMARK    1  A    between atoms: N2_7  and  C6_8 
REMARK    2  A    between atoms: C18_23  and  N4_24 
ROOT
HETATM    1  C1  UNL     1      21.964   0.418  53.463  1.00  0.00     0.027 C 
HETATM    2  C2  UNL     1      22.631   0.895  52.323  1.00  0.00     0.221 A 
HETATM    3  N1  UNL     1      21.405   0.499  51.501  1.00  0.00    -0.017 N 
HETATM    4  C3  UNL     1      21.584   0.983  50.096  1.00  0.00     0.129 A 
HETATM    5  C4  UNL     1      22.594   1.196  50.832  1.00  0.00     0.298 A 
HETATM    6  C5  UNL     1      23.172   1.218  52.153  1.00  0.00     0.262 A 
HETATM    7  N2  UNL     1      24.722   1.022  51.902  1.00  0.00    -0.002 N 
HETATM    8  C12 UNL     1      23.903   1.323  53.114  1.00  0.00     0.269 A 
HETATM    9  C13 UNL     1      23.244   2.544  52.222  1.00  0.00     0.245 A 
HETATM   10  O1  UNL     1      22.213   3.375  52.404  1.00  0.00    -0.199 OA
HETATM   11  N3  UNL     1      23.442   3.271  50.943  1.00  0.00    -0.377 N 
HETATM   12  C14 UNL     1      22.677   4.013  49.956  1.00  0.00     0.108 C 
HETATM   13  C15 UNL     1      22.650   5.337  49.651  1.00  0.00    -0.006 C 
HETATM   14  C16 UNL     1      21.989   5.203  48.441  1.00  0.00    -0.026 C 
HETATM   15  C17 UNL     1      21.855   3.840  47.697  1.00  0.00     0.069 C 
HETATM   16  C18 UNL     1      21.106   2.863  48.534  1.00  0.00     0.170 C 
HETATM   17  C20 UNL     1      21.542   1.422  48.655  1.00  0.00     0.105 C 
HETATM   18  C21 UNL     1      21.229   3.507  49.929  1.00  0.00     0.047 C 
HETATM   19  C22 UNL     1      20.231   4.650  50.098  1.00  0.00     0.015 C 
HETATM   20  H3  UNL     1      20.547   0.011  51.640  1.00  0.00     0.288 HD
HETATM   21  H5  UNL     1      25.180   1.205  50.961  1.00  0.00     0.289 HD
HETATM   22  H10 UNL     1      24.497   3.258  50.788  1.00  0.00     0.157 HD
ENDROOT
BRANCH   7  23
HETATM   23  C6  UNL     1      26.009   0.624  52.401  1.00  0.00     0.137 A 
HETATM   24  C7  UNL     1      26.178  -0.709  52.612  1.00  0.00     0.039 A 
HETATM   25  C8  UNL     1      27.334  -1.277  53.056  1.00  0.00     0.026 A 
HETATM   26  C9  UNL     1      28.305  -0.325  53.268  1.00  0.00     0.034 A 
HETATM   27 CL1  UNL     1      29.882  -0.892  53.840  1.00  0.00    -0.084 Cl
HETATM   28  C10 UNL     1      28.234   1.032  53.083  1.00  0.00     0.026 A 
HETATM   29  C11 UNL     1      27.017   1.514  52.629  1.00  0.00     0.039 A 
ENDBRANCH   7  23
BRANCH  16  30
HETATM   30  N4  UNL     1      19.714   2.952  48.087  1.00  0.00     0.089 N 
HETATM   31  C19 UNL     1      19.590   3.234  46.654  1.00  0.00     0.307 C 
HETATM   32  H16 UNL     1      19.296   3.773  48.577  1.00  0.00     0.316 HD
ENDBRANCH  16  30
TORSDOF 2
ENDMDL
MODEL 3
REMARK VINA RESULT:      -8.8      3.163      5.193
REMARK  2 active torsions:
REMARK  status: ('A' for Active; 'I' for Inactive)
REMARK    1  A    between atoms: N2_7  and  C6_8 
REMARK    2  A    between atoms: C18_23  and  N4_24 
ROOT
HETATM    1  C1  UNL     1      25.085   1.167  53.606  1.00  0.00     0.027 C 
HETATM    2  C2  UNL     1      24.039   1.892  53.012  1.00  0.00     0.221 A 
HETATM    3  N1  UNL     1      24.747   3.174  53.449  1.00  0.00    -0.017 N 
HETATM    4  C3  UNL     1      24.025   4.351  52.869  1.00  0.00     0.129 A 
HETATM    5  C4  UNL     1      23.457   3.243  52.625  1.00  0.00     0.298 A 
HETATM    6  C5  UNL     1      23.511   1.802  52.640  1.00  0.00     0.262 A 
HETATM    7  N2  UNL     1      21.994   1.358  52.703  1.00  0.00    -0.002 N 
HETATM    8  C12 UNL     1      23.280   0.617  52.538  1.00  0.00     0.269 A 
HETATM    9  C13 UNL     1      23.601   1.681  51.318  1.00  0.00     0.245 A 
HETATM   10  O1  UNL     1      24.682   1.949  50.580  1.00  0.00    -0.199 OA
HETATM   11  N3  UNL     1      22.939   2.730  50.503  1.00  0.00    -0.377 N 
HETATM   12  C14 UNL     1      23.268   3.936  49.763  1.00  0.00     0.108 C 
HETATM   13  C15 UNL     1      23.285   4.193  48.429  1.00  0.00    -0.006 C 
HETATM   14  C16 UNL     1      23.342   5.573  48.539  1.00  0.00    -0.026 C 
HETATM   15  C17 UNL     1      23.013   6.330  49.861  1.00  0.00     0.069 C 
HETATM   16  C18 UNL     1      23.956   5.924  50.941  1.00  0.00     0.170 C 
HETATM   17  C20 UNL     1      23.481   5.656  52.349  1.00  0.00     0.105 C 
HETATM   18  C21 UNL     1      24.508   4.601  50.373  1.00  0.00     0.047 C 
HETATM   19  C22 UNL     1      25.584   4.860  49.321  1.00  0.00     0.015 C 
HETATM   20  H3  UNL     1      25.531   3.433  54.007  1.00  0.00     0.288 HD
HETATM   21  H5  UNL     1      21.194   2.002  52.430  1.00  0.00     0.289 HD
HETATM   22  H10 UNL     1      21.924   2.410  50.427  1.00  0.00     0.157 HD
ENDROOT
BRANCH   7  23
HETATM   23  C6  UNL     1      21.017   0.357  53.033  1.00  0.00     0.137 A 
HETATM   24  C7  UNL     1      19.820   0.463  52.397  1.00  0.00     0.039 A 
HETATM   25  C8  UNL     1      18.783  -0.406  52.561  1.00  0.00     0.026 A 
HETATM   26  C9  UNL     1      19.105  -1.400  53.456  1.00  0.00     0.034 A 
HETATM   27 CL1  UNL     1      17.870  -2.627  53.781  1.00  0.00    -0.084 Cl
HETATM   28  C10 UNL     1      20.277  -1.595  54.140  1.00  0.00     0.026 A 
HETATM   29  C11 UNL     1      21.272  -0.659  53.907  1.00  0.00     0.039 A 
ENDBRANCH   7  23
BRANCH  16  30
HETATM   30  N4  UNL     1      25.020   6.931  50.930  1.00  0.00     0.089 N 
HETATM   31  C19 UNL     1      24.553   8.253  50.503  1.00  0.00     0.307 C 
HETATM   32  H16 UNL     1      25.710   6.626  50.210  1.00  0.00     0.316 HD
ENDBRANCH  16  30
TORSDOF 2
ENDMDL
MODEL 4
REMARK VINA RESULT:      -8.5      3.839      5.886
REMARK  2 active torsions:
REMARK  status: ('A' for Active; 'I' for Inactive)
REMARK    1  A    between atoms: N2_7  and  C6_8 
REMARK    2  A    between atoms: C18_23  and  N4_24 
ROOT
HETATM    1  C1  UNL     1      23.091   7.209  50.832  1.00  0.00     0.027 C 
HETATM    2  C2  UNL     1      23.545   5.891  50.669  1.00  0.00     0.221 A 
HETATM    3  N1  UNL     1      22.862   5.544  51.991  1.00  0.00    -0.017 N 
HETATM    4  C3  UNL     1      22.946   4.066  52.211  1.00  0.00     0.129 A 
HETATM    5  C4  UNL     1      23.562   4.455  51.173  1.00  0.00     0.298 A 
HETATM    6  C5  UNL     1      23.841   5.509  50.230  1.00  0.00     0.262 A 
HETATM    7  N2  UNL     1      25.265   5.142  49.647  1.00  0.00    -0.002 N 
HETATM    8  C12 UNL     1      24.253   6.188  49.314  1.00  0.00     0.269 A 
HETATM    9  C13 UNL     1      23.170   4.946  49.229  1.00  0.00     0.245 A 
HETATM   10  O1  UNL     1      21.840   4.879  49.119  1.00  0.00    -0.199 OA
HETATM   11  N3  UNL     1      23.120   3.462  49.209  1.00  0.00    -0.377 N 
HETATM   12  C14 UNL     1      22.225   2.375  49.563  1.00  0.00     0.108 C 
HETATM   13  C15 UNL     1      21.526   1.501  48.791  1.00  0.00    -0.006 C 
HETATM   14  C16 UNL     1      21.223   0.607  49.806  1.00  0.00    -0.026 C 
HETATM   15  C17 UNL     1      21.959   0.608  51.180  1.00  0.00     0.069 C 
HETATM   16  C18 UNL     1      21.751   1.907  51.880  1.00  0.00     0.170 C 
HETATM   17  C20 UNL     1      22.877   2.611  52.598  1.00  0.00     0.105 C 
HETATM   18  C21 UNL     1      21.305   2.808  50.711  1.00  0.00     0.047 C 
HETATM   19  C22 UNL     1      19.834   2.580  50.370  1.00  0.00     0.015 C 
HETATM   20  H3  UNL     1      22.397   6.023  52.732  1.00  0.00     0.288 HD
HETATM   21  H5  UNL     1      25.678   4.165  49.711  1.00  0.00     0.289 HD
HETATM   22  H10 UNL     1      24.023   3.170  48.721  1.00  0.00     0.157 HD
ENDROOT
BRANCH   7  23
HETATM   23  C6  UNL     1      26.476   5.564  48.999  1.00  0.00     0.137 A 
HETATM   24  C7  UNL     1      26.512   6.862  48.594  1.00  0.00     0.039 A 
HETATM   25  C8  UNL     1      27.582   7.448  47.986  1.00  0.00     0.026 A 
HETATM   26  C9  UNL     1      28.616   6.554  47.833  1.00  0.00     0.034 A 
HETATM   27 CL1  UNL     1      30.096   7.155  47.066  1.00  0.00    -0.084 Cl
HETATM   28  C10 UNL     1      28.679   5.238  48.208  1.00  0.00     0.026 A 
HETATM   29  C11 UNL     1      27.542   4.732  48.818  1.00  0.00     0.039 A 
ENDBRANCH   7  23
BRANCH  16  30
HETATM   30  N4  UNL     1      20.614   1.689  52.778  1.00  0.00     0.089 N 
HETATM   31  C19 UNL     1      20.832   0.589  53.721  1.00  0.00     0.307 C 
HETATM   32  H16 UNL     1      19.813   1.396  52.177  1.00  0.00     0.316 HD
ENDBRANCH  16  30
TORSDOF 2
ENDMDL
MODEL 5
REMARK VINA RESULT:      -8.2      7.901     10.041
REMARK  2 active torsions:
REMARK  status: ('A' for Active; 'I' for Inactive)
REMARK    1  A    between atoms: N2_7  and  C6_8 
REMARK    2  A    between atoms: C18_23  and  N4_24 
ROOT
HETATM    1  C1  UNL     1      29.292   9.742  47.900  1.00  0.00     0.027 C 
HETATM    2  C2  UNL     1      29.702   8.436  47.584  1.00  0.00     0.221 A 
HETATM    3  N1  UNL     1      30.493   9.021  46.414  1.00  0.00    -0.017 N 
HETATM    4  C3  UNL     1      31.307   7.934  45.784  1.00  0.00     0.129 A 
HETATM    5  C4  UNL     1      30.553   7.520  46.716  1.00  0.00     0.298 A 
HETATM    6  C5  UNL     1      29.678   7.828  47.820  1.00  0.00     0.262 A 
HETATM    7  N2  UNL     1      28.732   6.565  47.931  1.00  0.00    -0.002 N 
HETATM    8  C12 UNL     1      28.920   7.789  48.765  1.00  0.00     0.269 A 
HETATM    9  C13 UNL     1      30.525   7.407  48.755  1.00  0.00     0.245 A 
HETATM   10  O1  UNL     1      31.633   8.042  49.149  1.00  0.00    -0.199 OA
HETATM   11  N3  UNL     1      31.443   6.303  48.378  1.00  0.00    -0.377 N 
HETATM   12  C14 UNL     1      32.818   6.094  47.958  1.00  0.00     0.108 C 
HETATM   13  C15 UNL     1      33.877   5.536  48.601  1.00  0.00    -0.006 C 
HETATM   14  C16 UNL     1      34.677   5.388  47.480  1.00  0.00    -0.026 C 
HETATM   15  C17 UNL     1      34.121   5.482  46.026  1.00  0.00     0.069 C 
HETATM   16  C18 UNL     1      33.539   6.830  45.779  1.00  0.00     0.170 C 
HETATM   17  C20 UNL     1      32.234   7.008  45.040  1.00  0.00     0.105 C 
HETATM   18  C21 UNL     1      33.333   7.336  47.220  1.00  0.00     0.047 C 
HETATM   19  C22 UNL     1      34.643   7.843  47.819  1.00  0.00     0.015 C 
HETATM   20  H3  UNL     1      30.604   9.903  45.963  1.00  0.00     0.288 HD
HETATM   21  H5  UNL     1      28.980   5.622  47.507  1.00  0.00     0.289 HD
HETATM   22  H10 UNL     1      30.876   5.415  48.543  1.00  0.00     0.157 HD
ENDROOT
BRANCH   7  23
HETATM   23  C6  UNL     1      27.490   5.992  48.369  1.00  0.00     0.137 A 
HETATM   24  C7  UNL     1      27.554   4.712  48.825  1.00  0.00     0.039 A 
HETATM   25  C8  UNL     1      26.487   4.012  49.305  1.00  0.00     0.026 A 
HETATM   26  C9  UNL     1      25.339   4.769  49.264  1.00  0.00     0.034 A 
HETATM   27 CL1  UNL     1      23.852   4.015  49.862  1.00  0.00    -0.084 Cl
HETATM   28  C10 UNL     1      25.173   6.059  48.830  1.00  0.00     0.026 A 
HETATM   29  C11 UNL     1      26.316   6.686  48.360  1.00  0.00     0.039 A 
ENDBRANCH   7  23
BRANCH  16  30
HETATM   30  N4  UNL     1      34.608   7.607  45.146  1.00  0.00     0.089 N 
HETATM   31  C19 UNL     1      34.416   7.777  43.704  1.00  0.00     0.307 C 
HETATM   32  H16 UNL     1      35.484   7.051  45.255  1.00  0.00     0.316 HD
ENDBRANCH  16  30
TORSDOF 2
ENDMDL
MODEL 6
REMARK VINA RESULT:      -8.0      6.367      8.476
REMARK  2 active torsions:
REMARK  status: ('A' for Active; 'I' for Inactive)
REMARK    1  A    between atoms: N2_7  and  C6_8 
REMARK    2  A    between atoms: C18_23  and  N4_24 
ROOT
HETATM    1  C1  UNL     1      25.927   9.015  47.435  1.00  0.00     0.027 C 
HETATM    2  C2  UNL     1      26.978   8.093  47.563  1.00  0.00     0.221 A 
HETATM    3  N1  UNL     1      27.592   8.692  46.299  1.00  0.00    -0.017 N 
HETATM    4  C3  UNL     1      28.940   8.081  46.074  1.00  0.00     0.129 A 
HETATM    5  C4  UNL     1      28.320   7.580  47.060  1.00  0.00     0.298 A 
HETATM    6  C5  UNL     1      27.209   7.645  47.978  1.00  0.00     0.262 A 
HETATM    7  N2  UNL     1      27.006   6.147  48.447  1.00  0.00    -0.002 N 
HETATM    8  C12 UNL     1      26.400   7.449  48.858  1.00  0.00     0.269 A 
HETATM    9  C13 UNL     1      27.951   7.983  49.028  1.00  0.00     0.245 A 
HETATM   10  O1  UNL     1      28.503   9.182  49.243  1.00  0.00    -0.199 OA
HETATM   11  N3  UNL     1      29.347   7.477  49.053  1.00  0.00    -0.377 N 
HETATM   12  C14 UNL     1      30.698   7.928  48.772  1.00  0.00     0.108 C 
HETATM   13  C15 UNL     1      31.745   8.193  49.597  1.00  0.00    -0.006 C 
HETATM   14  C16 UNL     1      32.717   8.216  48.610  1.00  0.00    -0.026 C 
HETATM   15  C17 UNL     1      32.485   7.636  47.182  1.00  0.00     0.069 C 
HETATM   16  C18 UNL     1      31.378   8.362  46.500  1.00  0.00     0.170 C 
HETATM   17  C20 UNL     1      30.328   7.633  45.695  1.00  0.00     0.105 C 
HETATM   18  C21 UNL     1      30.671   9.024  47.699  1.00  0.00     0.047 C 
HETATM   19  C22 UNL     1      31.417  10.276  48.155  1.00  0.00     0.015 C 
HETATM   20  H3  UNL     1      27.342   9.355  45.596  1.00  0.00     0.288 HD
HETATM   21  H5  UNL     1      27.762   5.407  48.351  1.00  0.00     0.289 HD
HETATM   22  H10 UNL     1      29.269   6.498  49.469  1.00  0.00     0.157 HD
ENDROOT
BRANCH   7  23
HETATM   23  C6  UNL     1      26.146   5.136  48.997  1.00  0.00     0.137 A 
HETATM   24  C7  UNL     1      26.770   4.047  49.521  1.00  0.00     0.039 A 
HETATM   25  C8  UNL     1      26.125   3.000  50.109  1.00  0.00     0.026 A 
HETATM   26  C9  UNL     1      24.762   3.188  50.099  1.00  0.00     0.034 A 
HETATM   27 CL1  UNL     1      23.766   1.923  50.835  1.00  0.00    -0.084 Cl
HETATM   28  C10 UNL     1      24.043   4.245  49.603  1.00  0.00     0.026 A 
HETATM   29  C11 UNL     1      24.788   5.260  49.024  1.00  0.00     0.039 A 
ENDBRANCH   7  23
BRANCH  16  30
HETATM   30  N4  UNL     1      32.027   9.399  45.695  1.00  0.00     0.089 N 
HETATM   31  C19 UNL     1      33.146   8.887  44.898  1.00  0.00     0.307 C 
HETATM   32  H16 UNL     1      32.443  10.080  46.367  1.00  0.00     0.316 HD
ENDBRANCH  16  30
TORSDOF 2
ENDMDL
MODEL 7
REMARK VINA RESULT:      -8.0      8.024     10.406
REMARK  2 active torsions:
REMARK  status: ('A' for Active; 'I' for Inactive)
REMARK    1  A    between atoms: N2_7  and  C6_8 
REMARK    2  A    between atoms: C18_23  and  N4_24 
ROOT
HETATM    1  C1  UNL     1      30.801   9.399  48.377  1.00  0.00     0.027 C 
HETATM    2  C2  UNL     1      30.588   8.191  47.693  1.00  0.00     0.221 A 
HETATM    3  N1  UNL     1      31.619   8.650  46.662  1.00  0.00    -0.017 N 
HETATM    4  C3  UNL     1      31.880   7.532  45.702  1.00  0.00     0.129 A 
HETATM    5  C4  UNL     1      30.973   7.266  46.547  1.00  0.00     0.298 A 
HETATM    6  C5  UNL     1      30.277   7.621  47.760  1.00  0.00     0.262 A 
HETATM    7  N2  UNL     1      28.856   6.944  47.605  1.00  0.00    -0.002 N 
HETATM    8  C12 UNL     1      29.536   7.672  48.717  1.00  0.00     0.269 A 
HETATM    9  C13 UNL     1      30.789   6.626  48.478  1.00  0.00     0.245 A 
HETATM   10  O1  UNL     1      32.043   6.558  48.938  1.00  0.00    -0.199 OA
HETATM   11  N3  UNL     1      31.122   5.377  47.749  1.00  0.00    -0.377 N 
HETATM   12  C14 UNL     1      32.271   4.693  47.181  1.00  0.00     0.108 C 
HETATM   13  C15 UNL     1      32.925   3.565  47.565  1.00  0.00    -0.006 C 
HETATM   14  C16 UNL     1      33.628   3.385  46.385  1.00  0.00    -0.026 C 
HETATM   15  C17 UNL     1      33.253   4.112  45.058  1.00  0.00     0.069 C 
HETATM   16  C18 UNL     1      33.362   5.588  45.226  1.00  0.00     0.170 C 
HETATM   17  C20 UNL     1      32.322   6.530  44.667  1.00  0.00     0.105 C 
HETATM   18  C21 UNL     1      33.334   5.717  46.762  1.00  0.00     0.047 C 
HETATM   19  C22 UNL     1      34.698   5.393  47.367  1.00  0.00     0.015 C 
HETATM   20  H3  UNL     1      32.143   9.473  46.455  1.00  0.00     0.288 HD
HETATM   21  H5  UNL     1      28.669   6.147  46.927  1.00  0.00     0.289 HD
HETATM   22  H10 UNL     1      30.205   4.833  47.716  1.00  0.00     0.157 HD
ENDROOT
BRANCH   7  23
HETATM   23  C6  UNL     1      27.468   6.898  47.972  1.00  0.00     0.137 A 
HETATM   24  C7  UNL     1      27.053   5.757  48.585  1.00  0.00     0.039 A 
HETATM   25  C8  UNL     1      25.782   5.541  49.028  1.00  0.00     0.026 A 
HETATM   26  C9  UNL     1      24.975   6.625  48.770  1.00  0.00     0.034 A 
HETATM   27 CL1  UNL     1      23.286   6.518  49.291  1.00  0.00    -0.084 Cl
HETATM   28  C10 UNL     1      25.298   7.813  48.167  1.00  0.00     0.026 A 
HETATM   29  C11 UNL     1      26.613   7.939  47.751  1.00  0.00     0.039 A 
ENDBRANCH   7  23
BRANCH  16  30
HETATM   30  N4  UNL     1      34.699   5.939  44.740  1.00  0.00     0.089 N 
HETATM   31  C19 UNL     1      34.851   5.749  43.295  1.00  0.00     0.307 C 
HETATM   32  H16 UNL     1      35.363   5.269  45.188  1.00  0.00     0.316 HD
ENDBRANCH  16  30
TORSDOF 2
ENDMDL
MODEL 8
REMARK VINA RESULT:      -7.9      3.442      5.134
REMARK  2 active torsions:
REMARK  status: ('A' for Active; 'I' for Inactive)
REMARK    1  A    between atoms: N2_7  and  C6_8 
REMARK    2  A    between atoms: C18_23  and  N4_24 
ROOT
HETATM    1  C1  UNL     1      24.239   3.225  53.085  1.00  0.00     0.027 C 
HETATM    2  C2  UNL     1      23.685   3.197  51.795  1.00  0.00     0.221 A 
HETATM    3  N1  UNL     1      23.007   1.879  52.169  1.00  0.00    -0.017 N 
HETATM    4  C3  UNL     1      22.088   1.472  51.059  1.00  0.00     0.129 A 
HETATM    5  C4  UNL     1      22.758   2.517  50.798  1.00  0.00     0.298 A 
HETATM    6  C5  UNL     1      23.629   3.569  51.261  1.00  0.00     0.262 A 
HETATM    7  N2  UNL     1      24.411   4.025  49.964  1.00  0.00    -0.002 N 
HETATM    8  C12 UNL     1      24.346   4.539  51.365  1.00  0.00     0.269 A 
HETATM    9  C13 UNL     1      22.708   4.524  51.170  1.00  0.00     0.245 A 
HETATM   10  O1  UNL     1      21.673   4.695  51.998  1.00  0.00    -0.199 OA
HETATM   11  N3  UNL     1      21.676   4.360  50.115  1.00  0.00    -0.377 N 
HETATM   12  C14 UNL     1      20.300   3.921  49.965  1.00  0.00     0.108 C 
HETATM   13  C15 UNL     1      19.162   4.612  49.694  1.00  0.00    -0.006 C 
HETATM   14  C16 UNL     1      18.385   3.511  49.373  1.00  0.00    -0.026 C 
HETATM   15  C17 UNL     1      18.993   2.111  49.058  1.00  0.00     0.069 C 
HETATM   16  C18 UNL     1      19.741   1.591  50.237  1.00  0.00     0.170 C 
HETATM   17  C20 UNL     1      21.080   0.909  50.090  1.00  0.00     0.105 C 
HETATM   18  C21 UNL     1      19.961   2.886  51.045  1.00  0.00     0.047 C 
HETATM   19  C22 UNL     1      18.703   3.273  51.820  1.00  0.00     0.015 C 
HETATM   20  H3  UNL     1      23.017   1.230  52.925  1.00  0.00     0.288 HD
HETATM   21  H5  UNL     1      24.065   3.817  48.981  1.00  0.00     0.289 HD
HETATM   22  H10 UNL     1      22.127   4.760  49.235  1.00  0.00     0.157 HD
ENDROOT
BRANCH   7  23
HETATM   23  C6  UNL     1      25.561   4.656  49.379  1.00  0.00     0.137 A 
HETATM   24  C7  UNL     1      25.384   5.935  48.953  1.00  0.00     0.039 A 
HETATM   25  C8  UNL     1      26.363   6.703  48.397  1.00  0.00     0.026 A 
HETATM   26  C9  UNL     1      27.551   6.013  48.320  1.00  0.00     0.034 A 
HETATM   27 CL1  UNL     1      28.940   6.868  47.629  1.00  0.00    -0.084 Cl
HETATM   28  C10 UNL     1      27.830   4.733  48.723  1.00  0.00     0.026 A 
HETATM   29  C11 UNL     1      26.770   4.032  49.275  1.00  0.00     0.039 A 
ENDBRANCH   7  23
BRANCH  16  30
HETATM   30  N4  UNL     1      18.794   0.735  50.955  1.00  0.00     0.089 N 
HETATM   31  C19 UNL     1      17.761   0.168  50.083  1.00  0.00     0.307 C 
HETATM   32  H16 UNL     1      18.291   1.349  51.631  1.00  0.00     0.316 HD
ENDBRANCH  16  30
TORSDOF 2
ENDMDL
MODEL 9
REMARK VINA RESULT:      -7.8      3.374      7.328
REMARK  2 active torsions:
REMARK  status: ('A' for Active; 'I' for Inactive)
REMARK    1  A    between atoms: N2_7  and  C6_8 
REMARK    2  A    between atoms: C18_23  and  N4_24 
ROOT
HETATM    1  C1  UNL     1      23.238   6.433  50.167  1.00  0.00     0.027 C 
HETATM    2  C2  UNL     1      23.523   5.088  49.882  1.00  0.00     0.221 A 
HETATM    3  N1  UNL     1      24.958   5.347  50.339  1.00  0.00    -0.017 N 
HETATM    4  C3  UNL     1      25.704   4.049  50.361  1.00  0.00     0.129 A 
HETATM    5  C4  UNL     1      24.523   3.941  49.914  1.00  0.00     0.298 A 
HETATM    6  C5  UNL     1      23.224   4.534  49.712  1.00  0.00     0.262 A 
HETATM    7  N2  UNL     1      22.634   3.761  48.463  1.00  0.00    -0.002 N 
HETATM    8  C12 UNL     1      22.073   4.768  49.413  1.00  0.00     0.269 A 
HETATM    9  C13 UNL     1      22.610   3.767  50.609  1.00  0.00     0.245 A 
HETATM   10  O1  UNL     1      22.716   3.879  51.936  1.00  0.00    -0.199 OA
HETATM   11  N3  UNL     1      23.157   2.401  50.807  1.00  0.00    -0.377 N 
HETATM   12  C14 UNL     1      24.012   1.668  51.724  1.00  0.00     0.108 C 
HETATM   13  C15 UNL     1      23.729   0.701  52.636  1.00  0.00    -0.006 C 
HETATM   14  C16 UNL     1      25.036   0.286  52.831  1.00  0.00    -0.026 C 
HETATM   15  C17 UNL     1      26.195   0.656  51.857  1.00  0.00     0.069 C 
HETATM   16  C18 UNL     1      26.376   2.134  51.803  1.00  0.00     0.170 C 
HETATM   17  C20 UNL     1      26.616   2.857  50.499  1.00  0.00     0.105 C 
HETATM   18  C21 UNL     1      25.027   2.621  52.368  1.00  0.00     0.047 C 
HETATM   19  C22 UNL     1      25.000   2.526  53.891  1.00  0.00     0.015 C 
HETATM   20  H3  UNL     1      25.520   6.125  50.609  1.00  0.00     0.288 HD
HETATM   21  H5  UNL     1      23.004   2.817  48.144  1.00  0.00     0.289 HD
HETATM   22  H10 UNL     1      22.696   1.815  50.044  1.00  0.00     0.157 HD
ENDROOT
BRANCH   7  23
HETATM   23  C6  UNL     1      21.716   3.726  47.359  1.00  0.00     0.137 A 
HETATM   24  C7  UNL     1      20.434   3.388  47.662  1.00  0.00     0.039 A 
HETATM   25  C8  UNL     1      19.420   3.327  46.753  1.00  0.00     0.026 A 
HETATM   26  C9  UNL     1      19.865   3.648  45.491  1.00  0.00     0.034 A 
HETATM   27 CL1  UNL     1      18.669   3.629  44.184  1.00  0.00    -0.084 Cl
HETATM   28  C10 UNL     1      21.125   4.004  45.087  1.00  0.00     0.026 A 
HETATM   29  C11 UNL     1      22.088   4.037  46.083  1.00  0.00     0.039 A 
ENDBRANCH   7  23
BRANCH  16  30
HETATM   30  N4  UNL     1      27.436   2.434  52.770  1.00  0.00     0.089 N 
HETATM   31  C19 UNL     1      28.320   1.293  53.022  1.00  0.00     0.307 C 
HETATM   32  H16 UNL     1      26.962   2.634  53.677  1.00  0.00     0.316 HD
ENDBRANCH  16  30
TORSDOF 2
ENDMDL
