MODEL 1
REMARK VINA RESULT:      -7.1      0.000      0.000
REMARK  10 active torsions:
REMARK  status: ('A' for Active; 'I' for Inactive)
REMARK    1  A    between atoms: C7_7  and  N1_8 
REMARK    2  A    between atoms: N1_8  and  C8_9 
REMARK    3  A    between atoms: C12_14  and  O1_15 
REMARK    4  A    between atoms: O1_15  and  C13_16 
REMARK    5  A    between atoms: C13_16  and  C14_17 
REMARK    6  A    between atoms: C14_17  and  O2_18 
REMARK    7  A    between atoms: C16_20  and  O3_21 
REMARK    8  A    between atoms: O3_21  and  C17_22 
REMARK    9  A    between atoms: C17_22  and  C18_23 
REMARK   10  A    between atoms: C18_23  and  O4_24 
ROOT
HETATM    1  C1  UNL     1      23.558   8.094  49.687  1.00  0.00     0.018 C 
HETATM    2  C2  UNL     1      24.500   7.383  49.438  1.00  0.00    -0.078 C 
HETATM    3  C3  UNL     1      25.633   6.550  49.149  1.00  0.00     0.019 A 
HETATM    4  C4  UNL     1      26.716   7.153  48.543  1.00  0.00     0.021 A 
HETATM    5  C5  UNL     1      27.809   6.363  48.261  1.00  0.00     0.004 A 
HETATM    6  C6  UNL     1      27.788   5.028  48.584  1.00  0.00     0.029 A 
HETATM    7  C7  UNL     1      26.751   4.386  49.180  1.00  0.00     0.035 A 
HETATM    8  C22 UNL     1      25.659   5.206  49.455  1.00  0.00     0.050 A 
ENDROOT
BRANCH   7   9
HETATM    9  N1  UNL     1      26.680   3.016  49.530  1.00  0.00    -0.341 N 
HETATM   10  H5  UNL     1      26.898   2.283  48.818  1.00  0.00     0.167 HD
BRANCH   9  11
HETATM   11  C8  UNL     1      26.317   2.559  50.825  1.00  0.00     0.134 A 
HETATM   12  N2  UNL     1      27.151   2.380  51.793  1.00  0.00    -0.267 NA
HETATM   13  C9  UNL     1      26.474   1.907  52.990  1.00  0.00     0.190 A 
HETATM   14  C10 UNL     1      25.059   1.835  52.543  1.00  0.00    -0.021 A 
HETATM   15  C11 UNL     1      23.925   1.461  53.195  1.00  0.00     0.049 A 
HETATM   16  C21 UNL     1      24.948   2.229  51.226  1.00  0.00     0.020 A 
HETATM   17  C12 UNL     1      22.662   1.442  52.657  1.00  0.00     0.102 A 
HETATM   18  C16 UNL     1      22.593   1.847  51.326  1.00  0.00     0.103 A 
HETATM   19  C20 UNL     1      23.718   2.240  50.603  1.00  0.00     0.055 A 
BRANCH  17  20
HETATM   20  O1  UNL     1      21.444   1.108  53.149  1.00  0.00    -0.346 OA
BRANCH  20  21
HETATM   21  C13 UNL     1      21.060   0.394  54.264  1.00  0.00     0.201 C 
BRANCH  21  22
HETATM   22  C14 UNL     1      21.259  -1.085  54.229  1.00  0.00     0.193 C 
BRANCH  22  23
HETATM   23  O2  UNL     1      21.866  -1.612  55.366  1.00  0.00    -0.394 OA
HETATM   24  C15 UNL     1      23.241  -1.510  55.370  1.00  0.00     0.201 C 
ENDBRANCH  22  23
ENDBRANCH  21  22
ENDBRANCH  20  21
ENDBRANCH  17  20
BRANCH  18  25
HETATM   25  O3  UNL     1      21.427   1.899  50.598  1.00  0.00    -0.346 OA
BRANCH  25  26
HETATM   26  C17 UNL     1      20.856   3.118  50.148  1.00  0.00     0.201 C 
BRANCH  26  27
HETATM   27  C18 UNL     1      20.541   3.976  51.330  1.00  0.00     0.193 C 
BRANCH  27  28
HETATM   28  O4  UNL     1      19.564   3.469  52.149  1.00  0.00    -0.394 OA
HETATM   29  C19 UNL     1      18.314   3.407  51.570  1.00  0.00     0.201 C 
ENDBRANCH  27  28
ENDBRANCH  26  27
ENDBRANCH  25  26
ENDBRANCH  18  25
ENDBRANCH   9  11
ENDBRANCH   7   9
TORSDOF 10
ENDMDL
MODEL 2
REMARK VINA RESULT:      -7.0      2.486      4.678
REMARK  10 active torsions:
REMARK  status: ('A' for Active; 'I' for Inactive)
REMARK    1  A    between atoms: C7_7  and  N1_8 
REMARK    2  A    between atoms: N1_8  and  C8_9 
REMARK    3  A    between atoms: C12_14  and  O1_15 
REMARK    4  A    between atoms: O1_15  and  C13_16 
REMARK    5  A    between atoms: C13_16  and  C14_17 
REMARK    6  A    between atoms: C14_17  and  O2_18 
REMARK    7  A    between atoms: C16_20  and  O3_21 
REMARK    8  A    between atoms: O3_21  and  C17_22 
REMARK    9  A    between atoms: C17_22  and  C18_23 
REMARK   10  A    between atoms: C18_23  and  O4_24 
ROOT
HETATM    1  C1  UNL     1      28.880   5.501  48.160  1.00  0.00     0.018 C 
HETATM    2  C2  UNL     1      27.797   5.941  48.453  1.00  0.00    -0.078 C 
HETATM    3  C3  UNL     1      26.501   6.462  48.784  1.00  0.00     0.019 A 
HETATM    4  C4  UNL     1      25.886   7.262  47.842  1.00  0.00     0.021 A 
HETATM    5  C5  UNL     1      24.642   7.766  48.150  1.00  0.00     0.004 A 
HETATM    6  C6  UNL     1      24.063   7.465  49.358  1.00  0.00     0.029 A 
HETATM    7  C7  UNL     1      24.622   6.685  50.318  1.00  0.00     0.035 A 
HETATM    8  C22 UNL     1      25.879   6.187  49.984  1.00  0.00     0.050 A 
ENDROOT
BRANCH   7   9
HETATM    9  N1  UNL     1      24.068   6.348  51.578  1.00  0.00    -0.341 N 
HETATM   10  H5  UNL     1      24.368   6.865  52.435  1.00  0.00     0.167 HD
BRANCH   9  11
HETATM   11  C8  UNL     1      23.106   5.320  51.758  1.00  0.00     0.134 A 
HETATM   12  N2  UNL     1      21.834   5.481  51.612  1.00  0.00    -0.267 NA
HETATM   13  C9  UNL     1      21.115   4.243  51.865  1.00  0.00     0.190 A 
HETATM   14  C10 UNL     1      22.215   3.301  52.194  1.00  0.00    -0.021 A 
HETATM   15  C11 UNL     1      22.205   1.983  52.529  1.00  0.00     0.049 A 
HETATM   16  C21 UNL     1      23.434   3.943  52.133  1.00  0.00     0.020 A 
HETATM   17  C12 UNL     1      23.311   1.220  52.813  1.00  0.00     0.102 A 
HETATM   18  C16 UNL     1      24.521   1.906  52.740  1.00  0.00     0.103 A 
HETATM   19  C20 UNL     1      24.599   3.256  52.404  1.00  0.00     0.055 A 
BRANCH  17  20
HETATM   20  O1  UNL     1      23.484  -0.080  53.155  1.00  0.00    -0.346 OA
BRANCH  20  21
HETATM   21  C13 UNL     1      23.178  -0.784  54.299  1.00  0.00     0.201 C 
BRANCH  21  22
HETATM   22  C14 UNL     1      21.932  -1.605  54.283  1.00  0.00     0.193 C 
BRANCH  22  23
HETATM   23  O2  UNL     1      20.777  -0.909  54.629  1.00  0.00    -0.394 OA
HETATM   24  C15 UNL     1      19.928  -0.664  53.573  1.00  0.00     0.201 C 
ENDBRANCH  22  23
ENDBRANCH  21  22
ENDBRANCH  20  21
ENDBRANCH  17  20
BRANCH  18  25
HETATM   25  O3  UNL     1      25.747   1.331  52.988  1.00  0.00    -0.346 OA
BRANCH  25  26
HETATM   26  C17 UNL     1      26.939   1.759  52.350  1.00  0.00     0.201 C 
BRANCH  26  27
HETATM   27  C18 UNL     1      27.963   2.080  53.390  1.00  0.00     0.193 C 
BRANCH  27  28
HETATM   28  O4  UNL     1      27.865   1.321  54.529  1.00  0.00    -0.394 OA
HETATM   29  C19 UNL     1      28.806   0.317  54.623  1.00  0.00     0.201 C 
ENDBRANCH  27  28
ENDBRANCH  26  27
ENDBRANCH  25  26
ENDBRANCH  18  25
ENDBRANCH   9  11
ENDBRANCH   7   9
TORSDOF 10
ENDMDL
MODEL 3
REMARK VINA RESULT:      -6.9      2.560      6.080
REMARK  10 active torsions:
REMARK  status: ('A' for Active; 'I' for Inactive)
REMARK    1  A    between atoms: C7_7  and  N1_8 
REMARK    2  A    between atoms: N1_8  and  C8_9 
REMARK    3  A    between atoms: C12_14  and  O1_15 
REMARK    4  A    between atoms: O1_15  and  C13_16 
REMARK    5  A    between atoms: C13_16  and  C14_17 
REMARK    6  A    between atoms: C14_17  and  O2_18 
REMARK    7  A    between atoms: C16_20  and  O3_21 
REMARK    8  A    between atoms: O3_21  and  C17_22 
REMARK    9  A    between atoms: C17_22  and  C18_23 
REMARK   10  A    between atoms: C18_23  and  O4_24 
ROOT
HETATM    1  C1  UNL     1      28.641  -2.758  53.042  1.00  0.00     0.018 C 
HETATM    2  C2  UNL     1      28.525  -1.572  53.229  1.00  0.00    -0.078 C 
HETATM    3  C3  UNL     1      28.405  -0.157  53.441  1.00  0.00     0.019 A 
HETATM    4  C4  UNL     1      29.551   0.524  53.797  1.00  0.00     0.021 A 
HETATM    5  C5  UNL     1      29.446   1.882  54.002  1.00  0.00     0.004 A 
HETATM    6  C6  UNL     1      28.231   2.504  53.850  1.00  0.00     0.029 A 
HETATM    7  C7  UNL     1      27.075   1.883  53.502  1.00  0.00     0.035 A 
HETATM    8  C22 UNL     1      27.207   0.511  53.300  1.00  0.00     0.050 A 
ENDROOT
BRANCH   7   9
HETATM    9  N1  UNL     1      25.800   2.477  53.335  1.00  0.00    -0.341 N 
HETATM   10  H5  UNL     1      25.296   2.870  54.161  1.00  0.00     0.167 HD
BRANCH   9  11
HETATM   11  C8  UNL     1      25.142   2.574  52.081  1.00  0.00     0.134 A 
HETATM   12  N2  UNL     1      25.617   3.198  51.056  1.00  0.00    -0.267 NA
HETATM   13  C9  UNL     1      24.709   3.117  49.924  1.00  0.00     0.190 A 
HETATM   14  C10 UNL     1      23.587   2.315  50.476  1.00  0.00    -0.021 A 
HETATM   15  C11 UNL     1      22.421   1.891  49.920  1.00  0.00     0.049 A 
HETATM   16  C21 UNL     1      23.836   1.978  51.790  1.00  0.00     0.020 A 
HETATM   17  C12 UNL     1      21.456   1.146  50.551  1.00  0.00     0.102 A 
HETATM   18  C16 UNL     1      21.747   0.826  51.875  1.00  0.00     0.103 A 
HETATM   19  C20 UNL     1      22.923   1.230  52.504  1.00  0.00     0.055 A 
BRANCH  17  20
HETATM   20  O1  UNL     1      20.260   0.643  50.158  1.00  0.00    -0.346 OA
BRANCH  20  21
HETATM   21  C13 UNL     1      19.019   1.222  50.004  1.00  0.00     0.201 C 
BRANCH  21  22
HETATM   22  C14 UNL     1      17.830   0.389  50.348  1.00  0.00     0.193 C 
BRANCH  22  23
HETATM   23  O2  UNL     1      16.626   1.087  50.379  1.00  0.00    -0.394 OA
HETATM   24  C15 UNL     1      16.707   2.373  49.891  1.00  0.00     0.201 C 
ENDBRANCH  22  23
ENDBRANCH  21  22
ENDBRANCH  20  21
ENDBRANCH  17  20
BRANCH  18  25
HETATM   25  O3  UNL     1      20.916   0.089  52.688  1.00  0.00    -0.346 OA
BRANCH  25  26
HETATM   26  C17 UNL     1      21.205  -0.164  54.054  1.00  0.00     0.201 C 
BRANCH  26  27
HETATM   27  C18 UNL     1      21.301  -1.640  54.269  1.00  0.00     0.193 C 
BRANCH  27  28
HETATM   28  O4  UNL     1      22.075  -2.004  55.342  1.00  0.00    -0.394 OA
HETATM   29  C19 UNL     1      23.298  -1.367  55.402  1.00  0.00     0.201 C 
ENDBRANCH  27  28
ENDBRANCH  26  27
ENDBRANCH  25  26
ENDBRANCH  18  25
ENDBRANCH   9  11
ENDBRANCH   7   9
TORSDOF 10
ENDMDL
MODEL 4
REMARK VINA RESULT:      -6.9      3.438      6.789
REMARK  10 active torsions:
REMARK  status: ('A' for Active; 'I' for Inactive)
REMARK    1  A    between atoms: C7_7  and  N1_8 
REMARK    2  A    between atoms: N1_8  and  C8_9 
REMARK    3  A    between atoms: C12_14  and  O1_15 
REMARK    4  A    between atoms: O1_15  and  C13_16 
REMARK    5  A    between atoms: C13_16  and  C14_17 
REMARK    6  A    between atoms: C14_17  and  O2_18 
REMARK    7  A    between atoms: C16_20  and  O3_21 
REMARK    8  A    between atoms: O3_21  and  C17_22 
REMARK    9  A    between atoms: C17_22  and  C18_23 
REMARK   10  A    between atoms: C18_23  and  O4_24 
ROOT
HETATM    1  C1  UNL     1      20.279   2.834  48.023  1.00  0.00     0.018 C 
HETATM    2  C2  UNL     1      19.953   2.214  49.004  1.00  0.00    -0.078 C 
HETATM    3  C3  UNL     1      19.563   1.460  50.162  1.00  0.00     0.019 A 
HETATM    4  C4  UNL     1      18.486   0.608  50.022  1.00  0.00     0.021 A 
HETATM    5  C5  UNL     1      18.104  -0.121  51.127  1.00  0.00     0.004 A 
HETATM    6  C6  UNL     1      18.791   0.018  52.308  1.00  0.00     0.029 A 
HETATM    7  C7  UNL     1      19.855   0.839  52.499  1.00  0.00     0.035 A 
HETATM    8  C22 UNL     1      20.222   1.565  51.368  1.00  0.00     0.050 A 
ENDROOT
BRANCH   7   9
HETATM    9  N1  UNL     1      20.593   1.020  53.694  1.00  0.00    -0.341 N 
HETATM   10  H5  UNL     1      20.379   1.826  54.323  1.00  0.00     0.167 HD
BRANCH   9  11
HETATM   11  C8  UNL     1      21.640   0.152  54.104  1.00  0.00     0.134 A 
HETATM   12  N2  UNL     1      21.500  -0.803  54.961  1.00  0.00    -0.267 NA
HETATM   13  C9  UNL     1      22.752  -1.511  55.170  1.00  0.00     0.190 A 
HETATM   14  C10 UNL     1      23.678  -0.786  54.262  1.00  0.00    -0.021 A 
HETATM   15  C11 UNL     1      25.001  -0.958  53.997  1.00  0.00     0.049 A 
HETATM   16  C21 UNL     1      23.015   0.230  53.607  1.00  0.00     0.020 A 
HETATM   17  C12 UNL     1      25.747  -0.207  53.123  1.00  0.00     0.102 A 
HETATM   18  C16 UNL     1      25.040   0.807  52.482  1.00  0.00     0.103 A 
HETATM   19  C20 UNL     1      23.685   1.036  52.711  1.00  0.00     0.055 A 
BRANCH  17  20
HETATM   20  O1  UNL     1      27.048  -0.239  52.742  1.00  0.00    -0.346 OA
BRANCH  20  21
HETATM   21  C13 UNL     1      28.179  -0.732  53.353  1.00  0.00     0.201 C 
BRANCH  21  22
HETATM   22  C14 UNL     1      29.153   0.263  53.890  1.00  0.00     0.193 C 
BRANCH  22  23
HETATM   23  O2  UNL     1      28.570   1.399  54.446  1.00  0.00    -0.394 OA
HETATM   24  C15 UNL     1      28.635   2.517  53.642  1.00  0.00     0.201 C 
ENDBRANCH  22  23
ENDBRANCH  21  22
ENDBRANCH  20  21
ENDBRANCH  17  20
BRANCH  18  25
HETATM   25  O3  UNL     1      25.597   1.675  51.571  1.00  0.00    -0.346 OA
BRANCH  25  26
HETATM   26  C17 UNL     1      25.055   2.959  51.302  1.00  0.00     0.201 C 
BRANCH  26  27
HETATM   27  C18 UNL     1      25.947   3.675  50.340  1.00  0.00     0.193 C 
BRANCH  27  28
HETATM   28  O4  UNL     1      25.389   4.799  49.785  1.00  0.00    -0.394 OA
HETATM   29  C19 UNL     1      24.205   4.573  49.115  1.00  0.00     0.201 C 
ENDBRANCH  27  28
ENDBRANCH  26  27
ENDBRANCH  25  26
ENDBRANCH  18  25
ENDBRANCH   9  11
ENDBRANCH   7   9
TORSDOF 10
ENDMDL
MODEL 5
REMARK VINA RESULT:      -6.7      4.487      8.800
REMARK  10 active torsions:
REMARK  status: ('A' for Active; 'I' for Inactive)
REMARK    1  A    between atoms: C7_7  and  N1_8 
REMARK    2  A    between atoms: N1_8  and  C8_9 
REMARK    3  A    between atoms: C12_14  and  O1_15 
REMARK    4  A    between atoms: O1_15  and  C13_16 
REMARK    5  A    between atoms: C13_16  and  C14_17 
REMARK    6  A    between atoms: C14_17  and  O2_18 
REMARK    7  A    between atoms: C16_20  and  O3_21 
REMARK    8  A    between atoms: O3_21  and  C17_22 
REMARK    9  A    between atoms: C17_22  and  C18_23 
REMARK   10  A    between atoms: C18_23  and  O4_24 
ROOT
HETATM    1  C1  UNL     1      29.720  -2.406  53.511  1.00  0.00     0.018 C 
HETATM    2  C2  UNL     1      29.212  -1.321  53.376  1.00  0.00    -0.078 C 
HETATM    3  C3  UNL     1      28.626  -0.021  53.212  1.00  0.00     0.019 A 
HETATM    4  C4  UNL     1      29.240   1.031  53.862  1.00  0.00     0.021 A 
HETATM    5  C5  UNL     1      28.685   2.282  53.711  1.00  0.00     0.004 A 
HETATM    6  C6  UNL     1      27.562   2.443  52.936  1.00  0.00     0.029 A 
HETATM    7  C7  UNL     1      26.921   1.445  52.277  1.00  0.00     0.035 A 
HETATM    8  C22 UNL     1      27.500   0.190  52.444  1.00  0.00     0.050 A 
ENDROOT
BRANCH   7   9
HETATM    9  N1  UNL     1      25.762   1.559  51.470  1.00  0.00    -0.341 N 
HETATM   10  H5  UNL     1      25.355   0.709  51.018  1.00  0.00     0.167 HD
BRANCH   9  11
HETATM   11  C8  UNL     1      25.099   2.790  51.226  1.00  0.00     0.134 A 
HETATM   12  N2  UNL     1      23.963   3.120  51.743  1.00  0.00    -0.267 NA
HETATM   13  C9  UNL     1      23.547   4.441  51.301  1.00  0.00     0.190 A 
HETATM   14  C10 UNL     1      24.666   4.841  50.410  1.00  0.00    -0.021 A 
HETATM   15  C11 UNL     1      24.881   5.970  49.683  1.00  0.00     0.049 A 
HETATM   16  C21 UNL     1      25.619   3.845  50.354  1.00  0.00     0.020 A 
HETATM   17  C12 UNL     1      25.975   6.216  48.889  1.00  0.00     0.102 A 
HETATM   18  C16 UNL     1      26.912   5.186  48.861  1.00  0.00     0.103 A 
HETATM   19  C20 UNL     1      26.750   4.005  49.582  1.00  0.00     0.055 A 
BRANCH  17  20
HETATM   20  O1  UNL     1      26.347   7.263  48.113  1.00  0.00    -0.346 OA
BRANCH  20  21
HETATM   21  C13 UNL     1      26.169   8.622  48.246  1.00  0.00     0.201 C 
BRANCH  21  22
HETATM   22  C14 UNL     1      27.019   9.327  49.249  1.00  0.00     0.193 C 
BRANCH  22  23
HETATM   23  O2  UNL     1      26.916  10.716  49.220  1.00  0.00    -0.394 OA
HETATM   24  C15 UNL     1      26.065  11.197  48.249  1.00  0.00     0.201 C 
ENDBRANCH  22  23
ENDBRANCH  21  22
ENDBRANCH  20  21
ENDBRANCH  17  20
BRANCH  18  25
HETATM   25  O3  UNL     1      28.077   5.227  48.130  1.00  0.00    -0.346 OA
BRANCH  25  26
HETATM   26  C17 UNL     1      29.153   6.096  48.448  1.00  0.00     0.201 C 
BRANCH  26  27
HETATM   27  C18 UNL     1      30.426   5.507  47.933  1.00  0.00     0.193 C 
BRANCH  27  28
HETATM   28  O4  UNL     1      31.310   5.131  48.913  1.00  0.00    -0.394 OA
HETATM   29  C19 UNL     1      32.472   5.873  48.944  1.00  0.00     0.201 C 
ENDBRANCH  27  28
ENDBRANCH  26  27
ENDBRANCH  25  26
ENDBRANCH  18  25
ENDBRANCH   9  11
ENDBRANCH   7   9
TORSDOF 10
ENDMDL
MODEL 6
REMARK VINA RESULT:      -6.6      3.784      6.011
REMARK  10 active torsions:
REMARK  status: ('A' for Active; 'I' for Inactive)
REMARK    1  A    between atoms: C7_7  and  N1_8 
REMARK    2  A    between atoms: N1_8  and  C8_9 
REMARK    3  A    between atoms: C12_14  and  O1_15 
REMARK    4  A    between atoms: O1_15  and  C13_16 
REMARK    5  A    between atoms: C13_16  and  C14_17 
REMARK    6  A    between atoms: C14_17  and  O2_18 
REMARK    7  A    between atoms: C16_20  and  O3_21 
REMARK    8  A    between atoms: O3_21  and  C17_22 
REMARK    9  A    between atoms: C17_22  and  C18_23 
REMARK   10  A    between atoms: C18_23  and  O4_24 
ROOT
HETATM    1  C1  UNL     1      29.908   2.110  54.849  1.00  0.00     0.018 C 
HETATM    2  C2  UNL     1      29.132   1.340  54.341  1.00  0.00    -0.078 C 
HETATM    3  C3  UNL     1      28.215   0.409  53.746  1.00  0.00     0.019 A 
HETATM    4  C4  UNL     1      28.705  -0.844  53.437  1.00  0.00     0.021 A 
HETATM    5  C5  UNL     1      27.833  -1.745  52.867  1.00  0.00     0.004 A 
HETATM    6  C6  UNL     1      26.531  -1.379  52.629  1.00  0.00     0.029 A 
HETATM    7  C7  UNL     1      25.999  -0.162  52.913  1.00  0.00     0.035 A 
HETATM    8  C22 UNL     1      26.899   0.731  53.489  1.00  0.00     0.050 A 
ENDROOT
BRANCH   7   9
HETATM    9  N1  UNL     1      24.667   0.264  52.685  1.00  0.00    -0.341 N 
HETATM   10  H5  UNL     1      24.469   0.987  51.957  1.00  0.00     0.167 HD
BRANCH   9  11
HETATM   11  C8  UNL     1      23.552  -0.241  53.404  1.00  0.00     0.134 A 
HETATM   12  N2  UNL     1      23.632  -0.841  54.543  1.00  0.00    -0.267 NA
HETATM   13  C9  UNL     1      22.319  -1.239  55.022  1.00  0.00     0.190 A 
HETATM   14  C10 UNL     1      21.428  -0.756  53.936  1.00  0.00    -0.021 A 
HETATM   15  C11 UNL     1      20.079  -0.821  53.779  1.00  0.00     0.049 A 
HETATM   16  C21 UNL     1      22.166  -0.146  52.943  1.00  0.00     0.020 A 
HETATM   17  C12 UNL     1      19.372  -0.327  52.710  1.00  0.00     0.102 A 
HETATM   18  C16 UNL     1      20.153   0.281  51.731  1.00  0.00     0.103 A 
HETATM   19  C20 UNL     1      21.540   0.379  51.832  1.00  0.00     0.055 A 
BRANCH  17  20
HETATM   20  O1  UNL     1      18.054  -0.302  52.396  1.00  0.00    -0.346 OA
BRANCH  20  21
HETATM   21  C13 UNL     1      16.961  -0.942  52.939  1.00  0.00     0.201 C 
BRANCH  21  22
HETATM   22  C14 UNL     1      15.614  -0.531  52.443  1.00  0.00     0.193 C 
BRANCH  22  23
HETATM   23  O2  UNL     1      14.935   0.351  53.280  1.00  0.00    -0.394 OA
HETATM   24  C15 UNL     1      14.777   1.616  52.756  1.00  0.00     0.201 C 
ENDBRANCH  22  23
ENDBRANCH  21  22
ENDBRANCH  20  21
ENDBRANCH  17  20
BRANCH  18  25
HETATM   25  O3  UNL     1      19.646   0.839  50.580  1.00  0.00    -0.346 OA
BRANCH  25  26
HETATM   26  C17 UNL     1      20.466   1.228  49.489  1.00  0.00     0.201 C 
BRANCH  26  27
HETATM   27  C18 UNL     1      19.816   2.365  48.770  1.00  0.00     0.193 C 
BRANCH  27  28
HETATM   28  O4  UNL     1      20.174   3.605  49.237  1.00  0.00    -0.394 OA
HETATM   29  C19 UNL     1      21.452   3.670  49.751  1.00  0.00     0.201 C 
ENDBRANCH  27  28
ENDBRANCH  26  27
ENDBRANCH  25  26
ENDBRANCH  18  25
ENDBRANCH   9  11
ENDBRANCH   7   9
TORSDOF 10
ENDMDL
MODEL 7
REMARK VINA RESULT:      -6.5      5.046      9.765
REMARK  10 active torsions:
REMARK  status: ('A' for Active; 'I' for Inactive)
REMARK    1  A    between atoms: C7_7  and  N1_8 
REMARK    2  A    between atoms: N1_8  and  C8_9 
REMARK    3  A    between atoms: C12_14  and  O1_15 
REMARK    4  A    between atoms: O1_15  and  C13_16 
REMARK    5  A    between atoms: C13_16  and  C14_17 
REMARK    6  A    between atoms: C14_17  and  O2_18 
REMARK    7  A    between atoms: C16_20  and  O3_21 
REMARK    8  A    between atoms: O3_21  and  C17_22 
REMARK    9  A    between atoms: C17_22  and  C18_23 
REMARK   10  A    between atoms: C18_23  and  O4_24 
ROOT
HETATM    1  C1  UNL     1      29.014   0.997  54.127  1.00  0.00     0.018 C 
HETATM    2  C2  UNL     1      28.015   1.343  53.546  1.00  0.00    -0.078 C 
HETATM    3  C3  UNL     1      26.819   1.765  52.872  1.00  0.00     0.019 A 
HETATM    4  C4  UNL     1      25.630   1.623  53.557  1.00  0.00     0.021 A 
HETATM    5  C5  UNL     1      24.477   2.024  52.919  1.00  0.00     0.004 A 
HETATM    6  C6  UNL     1      24.544   2.542  51.649  1.00  0.00     0.029 A 
HETATM    7  C7  UNL     1      25.685   2.703  50.932  1.00  0.00     0.035 A 
HETATM    8  C22 UNL     1      26.837   2.290  51.597  1.00  0.00     0.050 A 
ENDROOT
BRANCH   7   9
HETATM    9  N1  UNL     1      25.806   3.228  49.621  1.00  0.00    -0.341 N 
HETATM   10  H5  UNL     1      25.951   2.583  48.813  1.00  0.00     0.167 HD
BRANCH   9  11
HETATM   11  C8  UNL     1      25.745   4.615  49.328  1.00  0.00     0.134 A 
HETATM   12  N2  UNL     1      24.688   5.342  49.469  1.00  0.00    -0.267 NA
HETATM   13  C9  UNL     1      24.943   6.721  49.085  1.00  0.00     0.190 A 
HETATM   14  C10 UNL     1      26.372   6.677  48.682  1.00  0.00    -0.021 A 
HETATM   15  C11 UNL     1      27.210   7.643  48.221  1.00  0.00     0.049 A 
HETATM   16  C21 UNL     1      26.874   5.400  48.824  1.00  0.00     0.020 A 
HETATM   17  C12 UNL     1      28.528   7.465  47.880  1.00  0.00     0.102 A 
HETATM   18  C16 UNL     1      28.996   6.162  48.039  1.00  0.00     0.103 A 
HETATM   19  C20 UNL     1      28.188   5.128  48.506  1.00  0.00     0.055 A 
BRANCH  17  20
HETATM   20  O1  UNL     1      29.492   8.297  47.415  1.00  0.00    -0.346 OA
BRANCH  20  21
HETATM   21  C13 UNL     1      29.453   9.599  46.968  1.00  0.00     0.201 C 
BRANCH  21  22
HETATM   22  C14 UNL     1      29.610  10.676  47.989  1.00  0.00     0.193 C 
BRANCH  22  23
HETATM   23  O2  UNL     1      28.418  11.289  48.370  1.00  0.00    -0.394 OA
HETATM   24  C15 UNL     1      28.577  12.554  48.894  1.00  0.00     0.201 C 
ENDBRANCH  22  23
ENDBRANCH  21  22
ENDBRANCH  20  21
ENDBRANCH  17  20
BRANCH  18  25
HETATM   25  O3  UNL     1      30.283   5.768  47.754  1.00  0.00    -0.346 OA
BRANCH  25  26
HETATM   26  C17 UNL     1      31.306   5.719  48.736  1.00  0.00     0.201 C 
BRANCH  26  27
HETATM   27  C18 UNL     1      32.499   5.025  48.165  1.00  0.00     0.193 C 
BRANCH  27  28
HETATM   28  O4  UNL     1      32.346   3.669  48.021  1.00  0.00    -0.394 OA
HETATM   29  C19 UNL     1      32.550   3.209  46.736  1.00  0.00     0.201 C 
ENDBRANCH  27  28
ENDBRANCH  26  27
ENDBRANCH  25  26
ENDBRANCH  18  25
ENDBRANCH   9  11
ENDBRANCH   7   9
TORSDOF 10
ENDMDL
MODEL 8
REMARK VINA RESULT:      -6.4      2.981      4.444
REMARK  10 active torsions:
REMARK  status: ('A' for Active; 'I' for Inactive)
REMARK    1  A    between atoms: C7_7  and  N1_8 
REMARK    2  A    between atoms: N1_8  and  C8_9 
REMARK    3  A    between atoms: C12_14  and  O1_15 
REMARK    4  A    between atoms: O1_15  and  C13_16 
REMARK    5  A    between atoms: C13_16  and  C14_17 
REMARK    6  A    between atoms: C14_17  and  O2_18 
REMARK    7  A    between atoms: C16_20  and  O3_21 
REMARK    8  A    between atoms: O3_21  and  C17_22 
REMARK    9  A    between atoms: C17_22  and  C18_23 
REMARK   10  A    between atoms: C18_23  and  O4_24 
ROOT
HETATM    1  C1  UNL     1      26.399   5.380  48.834  1.00  0.00     0.018 C 
HETATM    2  C2  UNL     1      25.701   4.875  49.677  1.00  0.00    -0.078 C 
HETATM    3  C3  UNL     1      24.854   4.286  50.676  1.00  0.00     0.019 A 
HETATM    4  C4  UNL     1      24.112   5.148  51.458  1.00  0.00     0.021 A 
HETATM    5  C5  UNL     1      23.297   4.593  52.419  1.00  0.00     0.004 A 
HETATM    6  C6  UNL     1      23.246   3.229  52.568  1.00  0.00     0.029 A 
HETATM    7  C7  UNL     1      23.953   2.337  51.827  1.00  0.00     0.035 A 
HETATM    8  C22 UNL     1      24.770   2.922  50.863  1.00  0.00     0.050 A 
ENDROOT
BRANCH   7   9
HETATM    9  N1  UNL     1      23.938   0.926  51.943  1.00  0.00    -0.341 N 
HETATM   10  H5  UNL     1      24.568   0.347  51.344  1.00  0.00     0.167 HD
BRANCH   9  11
HETATM   11  C8  UNL     1      23.095   0.226  52.845  1.00  0.00     0.134 A 
HETATM   12  N2  UNL     1      23.501  -0.334  53.935  1.00  0.00    -0.267 NA
HETATM   13  C9  UNL     1      22.401  -0.971  54.641  1.00  0.00     0.190 A 
HETATM   14  C10 UNL     1      21.247  -0.680  53.752  1.00  0.00    -0.021 A 
HETATM   15  C11 UNL     1      19.930  -1.005  53.849  1.00  0.00     0.049 A 
HETATM   16  C21 UNL     1      21.655   0.047  52.654  1.00  0.00     0.020 A 
HETATM   17  C12 UNL     1      18.953  -0.668  52.944  1.00  0.00     0.102 A 
HETATM   18  C16 UNL     1      19.406   0.066  51.851  1.00  0.00     0.103 A 
HETATM   19  C20 UNL     1      20.742   0.429  51.693  1.00  0.00     0.055 A 
BRANCH  17  20
HETATM   20  O1  UNL     1      17.619  -0.900  52.883  1.00  0.00    -0.346 OA
BRANCH  20  21
HETATM   21  C13 UNL     1      16.883  -2.064  52.844  1.00  0.00     0.201 C 
BRANCH  21  22
HETATM   22  C14 UNL     1      17.457  -3.258  53.532  1.00  0.00     0.193 C 
BRANCH  22  23
HETATM   23  O2  UNL     1      16.848  -4.465  53.198  1.00  0.00    -0.394 OA
HETATM   24  C15 UNL     1      16.094  -5.015  54.212  1.00  0.00     0.201 C 
ENDBRANCH  22  23
ENDBRANCH  21  22
ENDBRANCH  20  21
ENDBRANCH  17  20
BRANCH  18  25
HETATM   25  O3  UNL     1      18.595   0.503  50.829  1.00  0.00    -0.346 OA
BRANCH  25  26
HETATM   26  C17 UNL     1      18.481   1.871  50.469  1.00  0.00     0.201 C 
BRANCH  26  27
HETATM   27  C18 UNL     1      17.920   2.635  51.624  1.00  0.00     0.193 C 
BRANCH  27  28
HETATM   28  O4  UNL     1      18.747   3.621  52.102  1.00  0.00    -0.394 OA
HETATM   29  C19 UNL     1      19.758   3.983  51.235  1.00  0.00     0.201 C 
ENDBRANCH  27  28
ENDBRANCH  26  27
ENDBRANCH  25  26
ENDBRANCH  18  25
ENDBRANCH   9  11
ENDBRANCH   7   9
TORSDOF 10
ENDMDL
MODEL 9
REMARK VINA RESULT:      -6.4      2.229      6.408
REMARK  10 active torsions:
REMARK  status: ('A' for Active; 'I' for Inactive)
REMARK    1  A    between atoms: C7_7  and  N1_8 
REMARK    2  A    between atoms: N1_8  and  C8_9 
REMARK    3  A    between atoms: C12_14  and  O1_15 
REMARK    4  A    between atoms: O1_15  and  C13_16 
REMARK    5  A    between atoms: C13_16  and  C14_17 
REMARK    6  A    between atoms: C14_17  and  O2_18 
REMARK    7  A    between atoms: C16_20  and  O3_21 
REMARK    8  A    between atoms: O3_21  and  C17_22 
REMARK    9  A    between atoms: C17_22  and  C18_23 
REMARK   10  A    between atoms: C18_23  and  O4_24 
ROOT
HETATM    1  C1  UNL     1      22.790  -0.435  53.665  1.00  0.00     0.018 C 
HETATM    2  C2  UNL     1      23.786   0.172  53.363  1.00  0.00    -0.078 C 
HETATM    3  C3  UNL     1      24.985   0.883  53.015  1.00  0.00     0.019 A 
HETATM    4  C4  UNL     1      25.898   1.107  54.025  1.00  0.00     0.021 A 
HETATM    5  C5  UNL     1      27.051   1.788  53.701  1.00  0.00     0.004 A 
HETATM    6  C6  UNL     1      27.253   2.214  52.411  1.00  0.00     0.029 A 
HETATM    7  C7  UNL     1      26.389   2.020  51.381  1.00  0.00     0.035 A 
HETATM    8  C22 UNL     1      25.232   1.330  51.734  1.00  0.00     0.050 A 
ENDROOT
BRANCH   7   9
HETATM    9  N1  UNL     1      26.550   2.441  50.038  1.00  0.00    -0.341 N 
HETATM   10  H5  UNL     1      26.721   1.735  49.288  1.00  0.00     0.167 HD
BRANCH   9  11
HETATM   11  C8  UNL     1      26.495   3.801  49.635  1.00  0.00     0.134 A 
HETATM   12  N2  UNL     1      27.408   4.391  48.941  1.00  0.00    -0.267 NA
HETATM   13  C9  UNL     1      27.063   5.781  48.689  1.00  0.00     0.190 A 
HETATM   14  C10 UNL     1      25.752   5.908  49.377  1.00  0.00    -0.021 A 
HETATM   15  C11 UNL     1      24.904   6.963  49.514  1.00  0.00     0.049 A 
HETATM   16  C21 UNL     1      25.393   4.710  49.958  1.00  0.00     0.020 A 
HETATM   17  C12 UNL     1      23.705   6.944  50.185  1.00  0.00     0.102 A 
HETATM   18  C16 UNL     1      23.380   5.716  50.756  1.00  0.00     0.103 A 
HETATM   19  C20 UNL     1      24.207   4.599  50.652  1.00  0.00     0.055 A 
BRANCH  17  20
HETATM   20  O1  UNL     1      22.752   7.880  50.415  1.00  0.00    -0.346 OA
BRANCH  20  21
HETATM   21  C13 UNL     1      21.844   8.500  49.585  1.00  0.00     0.201 C 
BRANCH  21  22
HETATM   22  C14 UNL     1      20.519   7.835  49.406  1.00  0.00     0.193 C 
BRANCH  22  23
HETATM   23  O2  UNL     1      19.426   8.629  49.744  1.00  0.00    -0.394 OA
HETATM   24  C15 UNL     1      19.690   9.981  49.747  1.00  0.00     0.201 C 
ENDBRANCH  22  23
ENDBRANCH  21  22
ENDBRANCH  20  21
ENDBRANCH  17  20
BRANCH  18  25
HETATM   25  O3  UNL     1      22.229   5.482  51.471  1.00  0.00    -0.346 OA
BRANCH  25  26
HETATM   26  C17 UNL     1      21.276   4.501  51.093  1.00  0.00     0.201 C 
BRANCH  26  27
HETATM   27  C18 UNL     1      20.911   3.686  52.291  1.00  0.00     0.193 C 
BRANCH  27  28
HETATM   28  O4  UNL     1      19.627   3.202  52.273  1.00  0.00    -0.394 OA
HETATM   29  C19 UNL     1      18.801   3.817  51.355  1.00  0.00     0.201 C 
ENDBRANCH  27  28
ENDBRANCH  26  27
ENDBRANCH  25  26
ENDBRANCH  18  25
ENDBRANCH   9  11
ENDBRANCH   7   9
TORSDOF 10
ENDMDL
