MODEL 1
REMARK VINA RESULT:      -8.3      0.000      0.000
REMARK  6 active torsions:
REMARK  status: ('A' for Active; 'I' for Inactive)
REMARK    1  A    between atoms: C2_2  and  C3_3 
REMARK    2  A    between atoms: C2_2  and  N2_8 
REMARK    3  A    between atoms: N2_8  and  C6_9 
REMARK    4  A    between atoms: C10_15  and  O1_16 
REMARK    5  A    between atoms: C13_19  and  O2_20 
REMARK    6  A    between atoms: O2_20  and  C14_21 
ROOT
HETATM    1  C3  UNL     1      27.144   0.210  53.396  1.00  0.00     0.064 C 
HETATM    2  C4  UNL     1      28.389   0.074  53.727  1.00  0.00     0.116 C 
HETATM    3 CL1  UNL     1      29.408   1.323  54.353  1.00  0.00    -0.072 Cl
HETATM    4  C5  UNL     1      28.770  -1.280  53.492  1.00  0.00     0.112 C 
HETATM    5  N1  UNL     1      29.075  -2.401  53.301  1.00  0.00    -0.190 NA
ENDROOT
BRANCH   1   6
HETATM    6  C2  UNL     1      26.155   1.248  53.378  1.00  0.00     0.026 C 
HETATM    7  C1  UNL     1      25.379   2.253  53.428  1.00  0.00     0.043 C 
BRANCH   6   8
HETATM    8  N2  UNL     1      24.990   0.590  52.774  1.00  0.00    -0.341 N 
HETATM    9  H4  UNL     1      25.033   0.796  51.732  1.00  0.00     0.167 HD
BRANCH   8  10
HETATM   10  C6  UNL     1      24.082  -0.162  53.619  1.00  0.00     0.144 A 
HETATM   11  N3  UNL     1      24.708  -0.739  54.664  1.00  0.00    -0.223 NA
HETATM   12  C7  UNL     1      24.078  -1.440  55.599  1.00  0.00     0.236 A 
HETATM   13  N4  UNL     1      22.763  -1.570  55.483  1.00  0.00    -0.241 NA
HETATM   14  C8  UNL     1      22.070  -1.029  54.481  1.00  0.00     0.077 A 
HETATM   15  C9  UNL     1      20.708  -1.144  54.347  1.00  0.00     0.069 A 
HETATM   16  C19 UNL     1      22.729  -0.301  53.503  1.00  0.00     0.072 A 
HETATM   17  C10 UNL     1      20.003  -0.579  53.318  1.00  0.00     0.073 A 
HETATM   18  C12 UNL     1      20.763   0.133  52.384  1.00  0.00     0.074 A 
HETATM   19  C13 UNL     1      22.145   0.310  52.425  1.00  0.00     0.088 A 
BRANCH  17  20
HETATM   20  O1  UNL     1      18.664  -0.613  53.071  1.00  0.00    -0.356 OA
HETATM   21  C11 UNL     1      17.776  -1.654  53.373  1.00  0.00     0.210 C 
ENDBRANCH  17  20
BRANCH  19  22
HETATM   22  O2  UNL     1      22.809   1.009  51.480  1.00  0.00    -0.345 OA
BRANCH  22  23
HETATM   23  C14 UNL     1      22.556   2.240  50.915  1.00  0.00     0.133 C 
HETATM   24  C15 UNL     1      23.704   2.702  50.013  1.00  0.00     0.058 C 
HETATM   25  C16 UNL     1      23.121   3.732  49.070  1.00  0.00     0.170 C 
HETATM   26  O3  UNL     1      22.151   4.510  49.707  1.00  0.00    -0.391 OA
HETATM   27  C17 UNL     1      22.471   4.665  51.053  1.00  0.00     0.170 C 
HETATM   28  C18 UNL     1      22.262   3.377  51.853  1.00  0.00     0.058 C 
ENDBRANCH  22  23
ENDBRANCH  19  22
ENDBRANCH   8  10
ENDBRANCH   6   8
ENDBRANCH   1   6
TORSDOF 6
ENDMDL
MODEL 2
REMARK VINA RESULT:      -8.1      3.617      7.349
REMARK  6 active torsions:
REMARK  status: ('A' for Active; 'I' for Inactive)
REMARK    1  A    between atoms: C2_2  and  C3_3 
REMARK    2  A    between atoms: C2_2  and  N2_8 
REMARK    3  A    between atoms: N2_8  and  C6_9 
REMARK    4  A    between atoms: C10_15  and  O1_16 
REMARK    5  A    between atoms: C13_19  and  O2_20 
REMARK    6  A    between atoms: O2_20  and  C14_21 
ROOT
HETATM    1  C3  UNL     1      22.130   0.672  51.296  1.00  0.00     0.064 C 
HETATM    2  C4  UNL     1      21.089   0.635  50.527  1.00  0.00     0.116 C 
HETATM    3 CL1  UNL     1      19.472   0.285  51.033  1.00  0.00    -0.072 Cl
HETATM    4  C5  UNL     1      21.503   0.936  49.196  1.00  0.00     0.112 C 
HETATM    5  N1  UNL     1      21.853   1.191  48.100  1.00  0.00    -0.190 NA
ENDROOT
BRANCH   1   6
HETATM    6  C2  UNL     1      22.434   0.486  52.684  1.00  0.00     0.026 C 
HETATM    7  C1  UNL     1      22.597   0.219  53.916  1.00  0.00     0.043 C 
BRANCH   6   8
HETATM    8  N2  UNL     1      23.493   1.473  52.931  1.00  0.00    -0.341 N 
HETATM    9  H4  UNL     1      24.096   1.080  53.712  1.00  0.00     0.167 HD
BRANCH   8  10
HETATM   10  C6  UNL     1      23.534   2.684  52.134  1.00  0.00     0.144 A 
HETATM   11  N3  UNL     1      22.447   3.460  52.318  1.00  0.00    -0.223 NA
HETATM   12  C7  UNL     1      22.281   4.640  51.731  1.00  0.00     0.236 A 
HETATM   13  N4  UNL     1      23.246   5.062  50.924  1.00  0.00    -0.241 NA
HETATM   14  C8  UNL     1      24.351   4.354  50.689  1.00  0.00     0.077 A 
HETATM   15  C9  UNL     1      25.365   4.776  49.864  1.00  0.00     0.069 A 
HETATM   16  C19 UNL     1      24.522   3.122  51.299  1.00  0.00     0.072 A 
HETATM   17  C10 UNL     1      26.501   4.046  49.634  1.00  0.00     0.073 A 
HETATM   18  C12 UNL     1      26.572   2.816  50.297  1.00  0.00     0.074 A 
HETATM   19  C13 UNL     1      25.604   2.295  51.153  1.00  0.00     0.088 A 
BRANCH  17  20
HETATM   20  O1  UNL     1      27.573   4.347  48.851  1.00  0.00    -0.356 OA
HETATM   21  C11 UNL     1      28.001   5.623  48.459  1.00  0.00     0.210 C 
ENDBRANCH  17  20
BRANCH  19  22
HETATM   22  O2  UNL     1      25.745   1.093  51.752  1.00  0.00    -0.345 OA
BRANCH  22  23
HETATM   23  C14 UNL     1      26.787   0.556  52.475  1.00  0.00     0.133 C 
HETATM   24  C15 UNL     1      26.572  -0.933  52.768  1.00  0.00     0.058 C 
HETATM   25  C16 UNL     1      27.938  -1.514  53.061  1.00  0.00     0.170 C 
HETATM   26  O3  UNL     1      28.739  -0.600  53.752  1.00  0.00    -0.391 OA
HETATM   27  C17 UNL     1      27.952   0.197  54.578  1.00  0.00     0.170 C 
HETATM   28  C18 UNL     1      27.118   1.208  53.788  1.00  0.00     0.058 C 
ENDBRANCH  22  23
ENDBRANCH  19  22
ENDBRANCH   8  10
ENDBRANCH   6   8
ENDBRANCH   1   6
TORSDOF 6
ENDMDL
MODEL 3
REMARK VINA RESULT:      -7.8      3.545      6.280
REMARK  6 active torsions:
REMARK  status: ('A' for Active; 'I' for Inactive)
REMARK    1  A    between atoms: C2_2  and  C3_3 
REMARK    2  A    between atoms: C2_2  and  N2_8 
REMARK    3  A    between atoms: N2_8  and  C6_9 
REMARK    4  A    between atoms: C10_15  and  O1_16 
REMARK    5  A    between atoms: C13_19  and  O2_20 
REMARK    6  A    between atoms: O2_20  and  C14_21 
ROOT
HETATM    1  C3  UNL     1      25.686   5.410  49.934  1.00  0.00     0.064 C 
HETATM    2  C4  UNL     1      26.048   6.522  49.378  1.00  0.00     0.116 C 
HETATM    3 CL1  UNL     1      27.297   6.698  48.194  1.00  0.00    -0.072 Cl
HETATM    4  C5  UNL     1      25.240   7.572  49.905  1.00  0.00     0.112 C 
HETATM    5  N1  UNL     1      24.564   8.432  50.342  1.00  0.00    -0.190 NA
ENDROOT
BRANCH   1   6
HETATM    6  C2  UNL     1      26.046   4.024  49.874  1.00  0.00     0.026 C 
HETATM    7  C1  UNL     1      26.402   2.819  49.681  1.00  0.00     0.043 C 
BRANCH   6   8
HETATM    8  N2  UNL     1      25.720   3.535  51.219  1.00  0.00    -0.341 N 
HETATM    9  H4  UNL     1      26.638   3.474  51.750  1.00  0.00     0.167 HD
BRANCH   8  10
HETATM   10  C6  UNL     1      24.336   3.261  51.558  1.00  0.00     0.144 A 
HETATM   11  N3  UNL     1      23.495   4.210  51.100  1.00  0.00    -0.223 NA
HETATM   12  C7  UNL     1      22.177   4.153  51.248  1.00  0.00     0.236 A 
HETATM   13  N4  UNL     1      21.677   3.100  51.882  1.00  0.00    -0.241 NA
HETATM   14  C8  UNL     1      22.441   2.120  52.364  1.00  0.00     0.077 A 
HETATM   15  C9  UNL     1      21.944   1.017  53.016  1.00  0.00     0.069 A 
HETATM   16  C19 UNL     1      23.817   2.181  52.212  1.00  0.00     0.072 A 
HETATM   17  C10 UNL     1      22.735   0.010  53.501  1.00  0.00     0.073 A 
HETATM   18  C12 UNL     1      24.110   0.171  53.297  1.00  0.00     0.074 A 
HETATM   19  C13 UNL     1      24.717   1.246  52.651  1.00  0.00     0.088 A 
BRANCH  17  20
HETATM   20  O1  UNL     1      22.375  -1.128  54.156  1.00  0.00    -0.356 OA
HETATM   21  C11 UNL     1      21.076  -1.623  54.335  1.00  0.00     0.210 C 
ENDBRANCH  17  20
BRANCH  19  22
HETATM   22  O2  UNL     1      26.056   1.331  52.499  1.00  0.00    -0.345 OA
BRANCH  22  23
HETATM   23  C14 UNL     1      27.089   0.795  53.234  1.00  0.00     0.133 C 
HETATM   24  C15 UNL     1      28.326   1.700  53.227  1.00  0.00     0.058 C 
HETATM   25  C16 UNL     1      29.148   1.312  54.437  1.00  0.00     0.170 C 
HETATM   26  O3  UNL     1      29.081  -0.063  54.676  1.00  0.00    -0.391 OA
HETATM   27  C17 UNL     1      28.950  -0.751  53.472  1.00  0.00     0.170 C 
HETATM   28  C18 UNL     1      27.561  -0.580  52.852  1.00  0.00     0.058 C 
ENDBRANCH  22  23
ENDBRANCH  19  22
ENDBRANCH   8  10
ENDBRANCH   6   8
ENDBRANCH   1   6
TORSDOF 6
ENDMDL
MODEL 4
REMARK VINA RESULT:      -7.7      3.484      5.907
REMARK  6 active torsions:
REMARK  status: ('A' for Active; 'I' for Inactive)
REMARK    1  A    between atoms: C2_2  and  C3_3 
REMARK    2  A    between atoms: C2_2  and  N2_8 
REMARK    3  A    between atoms: N2_8  and  C6_9 
REMARK    4  A    between atoms: C10_15  and  O1_16 
REMARK    5  A    between atoms: C13_19  and  O2_20 
REMARK    6  A    between atoms: O2_20  and  C14_21 
ROOT
HETATM    1  C3  UNL     1      23.912   2.903  49.149  1.00  0.00     0.064 C 
HETATM    2  C4  UNL     1      22.939   3.143  48.328  1.00  0.00     0.116 C 
HETATM    3 CL1  UNL     1      22.650   4.644  47.519  1.00  0.00    -0.072 Cl
HETATM    4  C5  UNL     1      22.154   1.960  48.203  1.00  0.00     0.112 C 
HETATM    5  N1  UNL     1      21.515   0.975  48.102  1.00  0.00    -0.190 NA
ENDROOT
BRANCH   1   6
HETATM    6  C2  UNL     1      25.032   3.603  49.705  1.00  0.00     0.026 C 
HETATM    7  C1  UNL     1      26.079   4.231  50.060  1.00  0.00     0.043 C 
BRANCH   6   8
HETATM    8  N2  UNL     1      24.737   3.621  51.142  1.00  0.00    -0.341 N 
HETATM    9  H4  UNL     1      25.675   3.610  51.644  1.00  0.00     0.167 HD
BRANCH   8  10
HETATM   10  C6  UNL     1      23.356   3.662  51.583  1.00  0.00     0.144 A 
HETATM   11  N3  UNL     1      22.767   4.848  51.327  1.00  0.00    -0.223 NA
HETATM   12  C7  UNL     1      21.494   5.106  51.599  1.00  0.00     0.236 A 
HETATM   13  N4  UNL     1      20.777   4.136  52.150  1.00  0.00    -0.241 NA
HETATM   14  C8  UNL     1      21.284   2.936  52.434  1.00  0.00     0.077 A 
HETATM   15  C9  UNL     1      20.557   1.915  52.997  1.00  0.00     0.069 A 
HETATM   16  C19 UNL     1      22.614   2.668  52.153  1.00  0.00     0.072 A 
HETATM   17  C10 UNL     1      21.084   0.683  53.278  1.00  0.00     0.073 A 
HETATM   18  C12 UNL     1      22.436   0.517  52.958  1.00  0.00     0.074 A 
HETATM   19  C13 UNL     1      23.262   1.483  52.386  1.00  0.00     0.088 A 
BRANCH  17  20
HETATM   20  O1  UNL     1      20.480  -0.407  53.826  1.00  0.00    -0.356 OA
HETATM   21  C11 UNL     1      21.105  -1.562  54.316  1.00  0.00     0.210 C 
ENDBRANCH  17  20
BRANCH  19  22
HETATM   22  O2  UNL     1      24.562   1.247  52.112  1.00  0.00    -0.345 OA
BRANCH  22  23
HETATM   23  C14 UNL     1      25.515   0.517  52.787  1.00  0.00     0.133 C 
HETATM   24  C15 UNL     1      26.080   1.285  53.987  1.00  0.00     0.058 C 
HETATM   25  C16 UNL     1      26.669   0.249  54.920  1.00  0.00     0.170 C 
HETATM   26  O3  UNL     1      27.256  -0.800  54.207  1.00  0.00    -0.391 OA
HETATM   27  C17 UNL     1      27.784  -0.326  53.009  1.00  0.00     0.170 C 
HETATM   28  C18 UNL     1      26.696   0.031  51.995  1.00  0.00     0.058 C 
ENDBRANCH  22  23
ENDBRANCH  19  22
ENDBRANCH   8  10
ENDBRANCH   6   8
ENDBRANCH   1   6
TORSDOF 6
ENDMDL
MODEL 5
REMARK VINA RESULT:      -7.4      2.618      3.562
REMARK  6 active torsions:
REMARK  status: ('A' for Active; 'I' for Inactive)
REMARK    1  A    between atoms: C2_2  and  C3_3 
REMARK    2  A    between atoms: C2_2  and  N2_8 
REMARK    3  A    between atoms: N2_8  and  C6_9 
REMARK    4  A    between atoms: C10_15  and  O1_16 
REMARK    5  A    between atoms: C13_19  and  O2_20 
REMARK    6  A    between atoms: O2_20  and  C14_21 
ROOT
HETATM    1  C3  UNL     1      27.318   2.297  52.375  1.00  0.00     0.064 C 
HETATM    2  C4  UNL     1      27.849   1.278  52.972  1.00  0.00     0.116 C 
HETATM    3 CL1  UNL     1      27.533  -0.383  52.608  1.00  0.00    -0.072 Cl
HETATM    4  C5  UNL     1      28.741   1.760  53.975  1.00  0.00     0.112 C 
HETATM    5  N1  UNL     1      29.479   2.167  54.797  1.00  0.00    -0.190 NA
ENDROOT
BRANCH   1   6
HETATM    6  C2  UNL     1      26.384   2.541  51.315  1.00  0.00     0.026 C 
HETATM    7  C1  UNL     1      25.659   2.704  50.284  1.00  0.00     0.043 C 
BRANCH   6   8
HETATM    8  N2  UNL     1      25.235   3.132  52.010  1.00  0.00    -0.341 N 
HETATM    9  H4  UNL     1      25.481   4.150  52.190  1.00  0.00     0.167 HD
BRANCH   8  10
HETATM   10  C6  UNL     1      24.073   2.309  52.289  1.00  0.00     0.144 A 
HETATM   11  N3  UNL     1      24.406   1.069  52.702  1.00  0.00    -0.223 NA
HETATM   12  C7  UNL     1      23.515   0.153  53.059  1.00  0.00     0.236 A 
HETATM   13  N4  UNL     1      22.233   0.491  53.000  1.00  0.00    -0.241 NA
HETATM   14  C8  UNL     1      21.822   1.695  52.603  1.00  0.00     0.077 A 
HETATM   15  C9  UNL     1      20.501   2.068  52.543  1.00  0.00     0.069 A 
HETATM   16  C19 UNL     1      22.752   2.650  52.227  1.00  0.00     0.072 A 
HETATM   17  C10 UNL     1      20.088   3.310  52.141  1.00  0.00     0.073 A 
HETATM   18  C12 UNL     1      21.107   4.198  51.781  1.00  0.00     0.074 A 
HETATM   19  C13 UNL     1      22.473   3.923  51.805  1.00  0.00     0.088 A 
BRANCH  17  20
HETATM   20  O1  UNL     1      18.824   3.806  52.040  1.00  0.00    -0.356 OA
HETATM   21  C11 UNL     1      17.684   3.126  51.588  1.00  0.00     0.210 C 
ENDBRANCH  17  20
BRANCH  19  22
HETATM   22  O2  UNL     1      23.397   4.835  51.436  1.00  0.00    -0.345 OA
BRANCH  22  23
HETATM   23  C14 UNL     1      23.265   6.084  50.869  1.00  0.00     0.133 C 
HETATM   24  C15 UNL     1      23.152   6.009  49.343  1.00  0.00     0.058 C 
HETATM   25  C16 UNL     1      22.496   7.298  48.898  1.00  0.00     0.170 C 
HETATM   26  O3  UNL     1      22.910   8.375  49.686  1.00  0.00    -0.391 OA
HETATM   27  C17 UNL     1      24.223   8.183  50.106  1.00  0.00     0.170 C 
HETATM   28  C18 UNL     1      24.339   7.090  51.171  1.00  0.00     0.058 C 
ENDBRANCH  22  23
ENDBRANCH  19  22
ENDBRANCH   8  10
ENDBRANCH   6   8
ENDBRANCH   1   6
TORSDOF 6
ENDMDL
MODEL 6
REMARK VINA RESULT:      -7.2      1.987      2.384
REMARK  6 active torsions:
REMARK  status: ('A' for Active; 'I' for Inactive)
REMARK    1  A    between atoms: C2_2  and  C3_3 
REMARK    2  A    between atoms: C2_2  and  N2_8 
REMARK    3  A    between atoms: N2_8  and  C6_9 
REMARK    4  A    between atoms: C10_15  and  O1_16 
REMARK    5  A    between atoms: C13_19  and  O2_20 
REMARK    6  A    between atoms: O2_20  and  C14_21 
ROOT
HETATM    1  C3  UNL     1      28.042   2.124  53.101  1.00  0.00     0.064 C 
HETATM    2  C4  UNL     1      28.782   1.258  53.718  1.00  0.00     0.116 C 
HETATM    3 CL1  UNL     1      28.877  -0.430  53.353  1.00  0.00    -0.072 Cl
HETATM    4  C5  UNL     1      29.507   1.935  54.742  1.00  0.00     0.112 C 
HETATM    5  N1  UNL     1      30.105   2.504  55.582  1.00  0.00    -0.190 NA
ENDROOT
BRANCH   1   6
HETATM    6  C2  UNL     1      27.107   2.142  52.015  1.00  0.00     0.026 C 
HETATM    7  C1  UNL     1      26.392   2.128  50.964  1.00  0.00     0.043 C 
BRANCH   6   8
HETATM    8  N2  UNL     1      25.838   2.480  52.670  1.00  0.00    -0.341 N 
HETATM    9  H4  UNL     1      25.811   3.540  52.748  1.00  0.00     0.167 HD
BRANCH   8  10
HETATM   10  C6  UNL     1      24.928   1.416  53.047  1.00  0.00     0.144 A 
HETATM   11  N3  UNL     1      25.545   0.421  53.717  1.00  0.00    -0.223 NA
HETATM   12  C7  UNL     1      24.910  -0.638  54.202  1.00  0.00     0.236 A 
HETATM   13  N4  UNL     1      23.599  -0.707  54.010  1.00  0.00    -0.241 NA
HETATM   14  C8  UNL     1      22.915   0.234  53.359  1.00  0.00     0.077 A 
HETATM   15  C9  UNL     1      21.557   0.187  53.156  1.00  0.00     0.069 A 
HETATM   16  C19 UNL     1      23.579   1.339  52.849  1.00  0.00     0.072 A 
HETATM   17  C10 UNL     1      20.861   1.162  52.493  1.00  0.00     0.073 A 
HETATM   18  C12 UNL     1      21.626   2.232  52.017  1.00  0.00     0.074 A 
HETATM   19  C13 UNL     1      23.004   2.378  52.167  1.00  0.00     0.088 A 
BRANCH  17  20
HETATM   20  O1  UNL     1      19.528   1.240  52.229  1.00  0.00    -0.356 OA
HETATM   21  C11 UNL     1      18.608   0.182  52.209  1.00  0.00     0.210 C 
ENDBRANCH  17  20
BRANCH  19  22
HETATM   22  O2  UNL     1      23.674   3.441  51.672  1.00  0.00    -0.345 OA
BRANCH  22  23
HETATM   23  C14 UNL     1      23.362   4.318  50.656  1.00  0.00     0.133 C 
HETATM   24  C15 UNL     1      23.610   3.703  49.274  1.00  0.00     0.058 C 
HETATM   25  C16 UNL     1      22.767   4.492  48.296  1.00  0.00     0.170 C 
HETATM   26  O3  UNL     1      22.715   5.843  48.648  1.00  0.00    -0.391 OA
HETATM   27  C17 UNL     1      23.908   6.226  49.254  1.00  0.00     0.170 C 
HETATM   28  C18 UNL     1      24.056   5.650  50.663  1.00  0.00     0.058 C 
ENDBRANCH  22  23
ENDBRANCH  19  22
ENDBRANCH   8  10
ENDBRANCH   6   8
ENDBRANCH   1   6
TORSDOF 6
ENDMDL
MODEL 7
REMARK VINA RESULT:      -7.2      3.377      7.251
REMARK  6 active torsions:
REMARK  status: ('A' for Active; 'I' for Inactive)
REMARK    1  A    between atoms: C2_2  and  C3_3 
REMARK    2  A    between atoms: C2_2  and  N2_8 
REMARK    3  A    between atoms: N2_8  and  C6_9 
REMARK    4  A    between atoms: C10_15  and  O1_16 
REMARK    5  A    between atoms: C13_19  and  O2_20 
REMARK    6  A    between atoms: O2_20  and  C14_21 
ROOT
HETATM    1  C3  UNL     1      21.994   4.724  49.632  1.00  0.00     0.064 C 
HETATM    2  C4  UNL     1      22.343   5.862  49.121  1.00  0.00     0.116 C 
HETATM    3 CL1  UNL     1      23.437   6.083  47.801  1.00  0.00    -0.072 Cl
HETATM    4  C5  UNL     1      21.667   6.897  49.831  1.00  0.00     0.112 C 
HETATM    5  N1  UNL     1      21.100   7.746  50.420  1.00  0.00    -0.190 NA
ENDROOT
BRANCH   1   6
HETATM    6  C2  UNL     1      22.268   3.333  49.417  1.00  0.00     0.026 C 
HETATM    7  C1  UNL     1      22.446   2.116  49.094  1.00  0.00     0.043 C 
BRANCH   6   8
HETATM    8  N2  UNL     1      22.905   2.919  50.672  1.00  0.00    -0.341 N 
HETATM    9  H4  UNL     1      22.119   2.715  51.358  1.00  0.00     0.167 HD
BRANCH   8  10
HETATM   10  C6  UNL     1      24.352   2.852  50.746  1.00  0.00     0.144 A 
HETATM   11  N3  UNL     1      24.952   3.628  49.820  1.00  0.00    -0.223 NA
HETATM   12  C7  UNL     1      26.269   3.765  49.723  1.00  0.00     0.236 A 
HETATM   13  N4  UNL     1      27.020   3.097  50.589  1.00  0.00    -0.241 NA
HETATM   14  C8  UNL     1      26.504   2.311  51.534  1.00  0.00     0.077 A 
HETATM   15  C9  UNL     1      27.262   1.617  52.446  1.00  0.00     0.069 A 
HETATM   16  C19 UNL     1      25.130   2.165  51.633  1.00  0.00     0.072 A 
HETATM   17  C10 UNL     1      26.724   0.817  53.418  1.00  0.00     0.073 A 
HETATM   18  C12 UNL     1      25.327   0.737  53.430  1.00  0.00     0.074 A 
HETATM   19  C13 UNL     1      24.467   1.397  52.554  1.00  0.00     0.088 A 
BRANCH  17  20
HETATM   20  O1  UNL     1      27.355   0.085  54.377  1.00  0.00    -0.356 OA
HETATM   21  C11 UNL     1      28.670   0.247  54.834  1.00  0.00     0.210 C 
ENDBRANCH  17  20
BRANCH  19  22
HETATM   22  O2  UNL     1      23.125   1.264  52.626  1.00  0.00    -0.345 OA
BRANCH  22  23
HETATM   23  C14 UNL     1      22.334   0.460  53.417  1.00  0.00     0.133 C 
HETATM   24  C15 UNL     1      22.418  -1.012  53.001  1.00  0.00     0.058 C 
HETATM   25  C16 UNL     1      21.979  -1.823  54.201  1.00  0.00     0.170 C 
HETATM   26  O3  UNL     1      20.958  -1.177  54.902  1.00  0.00    -0.391 OA
HETATM   27  C17 UNL     1      20.162  -0.447  54.023  1.00  0.00     0.170 C 
HETATM   28  C18 UNL     1      20.872   0.801  53.494  1.00  0.00     0.058 C 
ENDBRANCH  22  23
ENDBRANCH  19  22
ENDBRANCH   8  10
ENDBRANCH   6   8
ENDBRANCH   1   6
TORSDOF 6
ENDMDL
MODEL 8
REMARK VINA RESULT:      -7.2      3.985      6.061
REMARK  6 active torsions:
REMARK  status: ('A' for Active; 'I' for Inactive)
REMARK    1  A    between atoms: C2_2  and  C3_3 
REMARK    2  A    between atoms: C2_2  and  N2_8 
REMARK    3  A    between atoms: N2_8  and  C6_9 
REMARK    4  A    between atoms: C10_15  and  O1_16 
REMARK    5  A    between atoms: C13_19  and  O2_20 
REMARK    6  A    between atoms: O2_20  and  C14_21 
ROOT
HETATM    1  C3  UNL     1      27.162   2.237  51.930  1.00  0.00     0.064 C 
HETATM    2  C4  UNL     1      27.210   1.108  52.563  1.00  0.00     0.116 C 
HETATM    3 CL1  UNL     1      26.533  -0.386  52.013  1.00  0.00    -0.072 Cl
HETATM    4  C5  UNL     1      27.918   1.308  53.784  1.00  0.00     0.112 C 
HETATM    5  N1  UNL     1      28.509   1.480  54.788  1.00  0.00    -0.190 NA
ENDROOT
BRANCH   1   6
HETATM    6  C2  UNL     1      26.638   2.744  50.696  1.00  0.00     0.026 C 
HETATM    7  C1  UNL     1      26.240   3.079  49.536  1.00  0.00     0.043 C 
BRANCH   6   8
HETATM    8  N2  UNL     1      25.929   3.961  51.108  1.00  0.00    -0.341 N 
HETATM    9  H4  UNL     1      26.666   4.719  51.215  1.00  0.00     0.167 HD
BRANCH   8  10
HETATM   10  C6  UNL     1      24.487   3.924  51.265  1.00  0.00     0.144 A 
HETATM   11  N3  UNL     1      24.046   2.724  51.692  1.00  0.00    -0.223 NA
HETATM   12  C7  UNL     1      22.770   2.463  51.952  1.00  0.00     0.236 A 
HETATM   13  N4  UNL     1      21.897   3.447  51.778  1.00  0.00    -0.241 NA
HETATM   14  C8  UNL     1      22.253   4.661  51.360  1.00  0.00     0.077 A 
HETATM   15  C9  UNL     1      21.368   5.697  51.181  1.00  0.00     0.069 A 
HETATM   16  C19 UNL     1      23.584   4.932  51.085  1.00  0.00     0.072 A 
HETATM   17  C10 UNL     1      21.743   6.943  50.758  1.00  0.00     0.073 A 
HETATM   18  C12 UNL     1      23.109   7.110  50.507  1.00  0.00     0.074 A 
HETATM   19  C13 UNL     1      24.089   6.131  50.655  1.00  0.00     0.088 A 
BRANCH  17  20
HETATM   20  O1  UNL     1      20.975   8.048  50.546  1.00  0.00    -0.356 OA
HETATM   21  C11 UNL     1      20.017   8.229  49.539  1.00  0.00     0.210 C 
ENDBRANCH  17  20
BRANCH  19  22
HETATM   22  O2  UNL     1      25.391   6.369  50.387  1.00  0.00    -0.345 OA
BRANCH  22  23
HETATM   23  C14 UNL     1      25.993   7.285  49.553  1.00  0.00     0.133 C 
HETATM   24  C15 UNL     1      27.061   6.637  48.666  1.00  0.00     0.058 C 
HETATM   25  C16 UNL     1      27.253   7.558  47.482  1.00  0.00     0.170 C 
HETATM   26  O3  UNL     1      27.135   8.899  47.859  1.00  0.00    -0.391 OA
HETATM   27  C17 UNL     1      27.595   9.071  49.162  1.00  0.00     0.170 C 
HETATM   28  C18 UNL     1      26.638   8.479  50.199  1.00  0.00     0.058 C 
ENDBRANCH  22  23
ENDBRANCH  19  22
ENDBRANCH   8  10
ENDBRANCH   6   8
ENDBRANCH   1   6
TORSDOF 6
ENDMDL
MODEL 9
REMARK VINA RESULT:      -7.1      3.057      5.225
REMARK  6 active torsions:
REMARK  status: ('A' for Active; 'I' for Inactive)
REMARK    1  A    between atoms: C2_2  and  C3_3 
REMARK    2  A    between atoms: C2_2  and  N2_8 
REMARK    3  A    between atoms: N2_8  and  C6_9 
REMARK    4  A    between atoms: C10_15  and  O1_16 
REMARK    5  A    between atoms: C13_19  and  O2_20 
REMARK    6  A    between atoms: O2_20  and  C14_21 
ROOT
HETATM    1  C3  UNL     1      24.880   5.124  50.201  1.00  0.00     0.064 C 
HETATM    2  C4  UNL     1      24.383   6.256  50.588  1.00  0.00     0.116 C 
HETATM    3 CL1  UNL     1      25.157   7.797  50.451  1.00  0.00    -0.072 Cl
HETATM    4  C5  UNL     1      23.091   6.014  51.139  1.00  0.00     0.112 C 
HETATM    5  N1  UNL     1      22.022   5.806  51.588  1.00  0.00    -0.190 NA
ENDROOT
BRANCH   1   6
HETATM    6  C2  UNL     1      26.080   4.645  49.581  1.00  0.00     0.026 C 
HETATM    7  C1  UNL     1      27.179   4.363  49.009  1.00  0.00     0.043 C 
BRANCH   6   8
HETATM    8  N2  UNL     1      25.933   3.187  49.648  1.00  0.00    -0.341 N 
HETATM    9  H4  UNL     1      25.800   2.850  48.648  1.00  0.00     0.167 HD
BRANCH   8  10
HETATM   10  C6  UNL     1      26.004   2.524  50.936  1.00  0.00     0.144 A 
HETATM   11  N3  UNL     1      27.221   2.637  51.508  1.00  0.00    -0.223 NA
HETATM   12  C7  UNL     1      27.513   2.151  52.708  1.00  0.00     0.236 A 
HETATM   13  N4  UNL     1      26.546   1.525  53.367  1.00  0.00    -0.241 NA
HETATM   14  C8  UNL     1      25.317   1.373  52.872  1.00  0.00     0.077 A 
HETATM   15  C9  UNL     1      24.299   0.737  53.540  1.00  0.00     0.069 A 
HETATM   16  C19 UNL     1      25.014   1.877  51.617  1.00  0.00     0.072 A 
HETATM   17  C10 UNL     1      23.038   0.592  53.027  1.00  0.00     0.073 A 
HETATM   18  C12 UNL     1      22.838   1.135  51.753  1.00  0.00     0.074 A 
HETATM   19  C13 UNL     1      23.798   1.797  50.991  1.00  0.00     0.088 A 
BRANCH  17  20
HETATM   20  O1  UNL     1      21.948  -0.007  53.580  1.00  0.00    -0.356 OA
HETATM   21  C11 UNL     1      21.828  -1.349  53.969  1.00  0.00     0.210 C 
ENDBRANCH  17  20
BRANCH  19  22
HETATM   22  O2  UNL     1      23.528   2.290  49.763  1.00  0.00    -0.345 OA
BRANCH  22  23
HETATM   23  C14 UNL     1      22.345   2.705  49.192  1.00  0.00     0.133 C 
HETATM   24  C15 UNL     1      21.514   1.526  48.676  1.00  0.00     0.058 C 
HETATM   25  C16 UNL     1      20.086   2.017  48.580  1.00  0.00     0.170 C 
HETATM   26  O3  UNL     1      20.037   3.355  48.178  1.00  0.00    -0.391 OA
HETATM   27  C17 UNL     1      21.099   3.637  47.324  1.00  0.00     0.170 C 
HETATM   28  C18 UNL     1      22.439   3.690  48.061  1.00  0.00     0.058 C 
ENDBRANCH  22  23
ENDBRANCH  19  22
ENDBRANCH   8  10
ENDBRANCH   6   8
ENDBRANCH   1   6
TORSDOF 6
ENDMDL
