MODEL 1
REMARK VINA RESULT:      -8.6      0.000      0.000
REMARK  9 active torsions:
REMARK  status: ('A' for Active; 'I' for Inactive)
REMARK    1  A    between atoms: C2_2  and  C3_3 
REMARK    2  A    between atoms: C3_3  and  C4_5 
REMARK    3  A    between atoms: C7_8  and  N1_9 
REMARK    4  A    between atoms: N1_9  and  C8_10 
REMARK    5  A    between atoms: C11_13  and  O2_14 
REMARK    6  A    between atoms: O2_14  and  C12_15 
REMARK    7  A    between atoms: C22_28  and  O3_29 
REMARK    8  A    between atoms: O3_29  and  C23_30 
REMARK    9  A    between atoms: C23_30  and  N4_31 
ROOT
HETATM    1  C4  UNL     1      26.882   0.778  53.381  1.00  0.00     0.023 A 
HETATM    2  C5  UNL     1      27.092   1.452  52.259  1.00  0.00     0.031 A 
HETATM    3  C6  UNL     1      25.810   1.870  51.717  1.00  0.00     0.038 A 
HETATM    4  C7  UNL     1      25.481   2.596  50.579  1.00  0.00     0.141 A 
HETATM    5  N2  UNL     1      24.163   2.781  50.427  1.00  0.00    -0.224 NA
HETATM    6  C20 UNL     1      23.196   2.354  51.228  1.00  0.00     0.235 A 
HETATM    7  N3  UNL     1      23.518   1.653  52.327  1.00  0.00    -0.242 NA
HETATM    8  C21 UNL     1      24.821   1.421  52.556  1.00  0.00     0.083 A 
HETATM    9  C22 UNL     1      25.447   0.675  53.712  1.00  0.00     0.213 A 
ENDROOT
BRANCH   4  10
HETATM   10  N1  UNL     1      26.508   3.067  49.721  1.00  0.00    -0.340 N 
HETATM   11  H7  UNL     1      27.168   2.345  49.346  1.00  0.00     0.167 HD
BRANCH  10  12
HETATM   12  C8  UNL     1      26.743   4.401  49.309  1.00  0.00     0.033 A 
HETATM   13  C9  UNL     1      27.827   4.867  48.605  1.00  0.00     0.032 A 
HETATM   14  C10 UNL     1      28.061   6.158  48.188  1.00  0.00     0.039 A 
HETATM   15  C11 UNL     1      27.082   7.074  48.522  1.00  0.00     0.076 A 
HETATM   16  C18 UNL     1      25.950   6.703  49.231  1.00  0.00     0.039 A 
HETATM   17  C19 UNL     1      25.821   5.389  49.597  1.00  0.00     0.032 A 
BRANCH  15  18
HETATM   18  O2  UNL     1      27.207   8.413  48.153  1.00  0.00    -0.311 OA
BRANCH  18  19
HETATM   19  C12 UNL     1      28.503   8.910  48.031  1.00  0.00     0.079 A 
HETATM   20  C13 UNL     1      29.189   9.046  46.834  1.00  0.00     0.037 A 
HETATM   21  C14 UNL     1      30.483   9.551  46.794  1.00  0.00     0.006 A 
HETATM   22  C15 UNL     1      31.065   9.915  48.005  1.00  0.00     0.042 A 
HETATM   23  C16 UNL     1      30.370   9.775  49.187  1.00  0.00     0.119 A 
HETATM   24  F1  UNL     1      30.966  10.144  50.369  1.00  0.00    -0.206 F 
HETATM   25  C17 UNL     1      29.088   9.275  49.228  1.00  0.00     0.079 A 
ENDBRANCH  18  19
ENDBRANCH  15  18
ENDBRANCH  10  12
ENDBRANCH   4  10
BRANCH   1  26
HETATM   26  C3  UNL     1      28.018   0.245  54.128  1.00  0.00     0.158 C 
HETATM   27  O1  UNL     1      27.959  -0.317  55.251  1.00  0.00    -0.293 OA
BRANCH  26  28
HETATM   28  C2  UNL     1      29.421   0.285  53.686  1.00  0.00     0.079 C 
HETATM   29  C1  UNL     1      29.822  -1.172  53.421  1.00  0.00     0.013 C 
ENDBRANCH  26  28
ENDBRANCH   1  26
BRANCH   9  30
HETATM   30  O3  UNL     1      24.963  -0.606  53.619  1.00  0.00    -0.356 OA
BRANCH  30  31
HETATM   31  C23 UNL     1      24.234  -0.971  54.719  1.00  0.00     0.284 C 
BRANCH  31  32
HETATM   32  N4  UNL     1      25.053  -1.343  55.826  1.00  0.00    -0.411 N 
HETATM   33  H20 UNL     1      25.080  -2.368  56.019  1.00  0.00     0.151 HD
HETATM   34  H21 UNL     1      25.963  -0.885  55.890  1.00  0.00     0.151 HD
ENDBRANCH  31  32
ENDBRANCH  30  31
ENDBRANCH   9  30
TORSDOF 9
ENDMDL
MODEL 2
REMARK VINA RESULT:      -8.6      3.481      8.837
REMARK  9 active torsions:
REMARK  status: ('A' for Active; 'I' for Inactive)
REMARK    1  A    between atoms: C2_2  and  C3_3 
REMARK    2  A    between atoms: C3_3  and  C4_5 
REMARK    3  A    between atoms: C7_8  and  N1_9 
REMARK    4  A    between atoms: N1_9  and  C8_10 
REMARK    5  A    between atoms: C11_13  and  O2_14 
REMARK    6  A    between atoms: O2_14  and  C12_15 
REMARK    7  A    between atoms: C22_28  and  O3_29 
REMARK    8  A    between atoms: O3_29  and  C23_30 
REMARK    9  A    between atoms: C23_30  and  N4_31 
ROOT
HETATM    1  C4  UNL     1      28.495   6.564  48.270  1.00  0.00     0.023 A 
HETATM    2  C5  UNL     1      27.573   5.649  48.527  1.00  0.00     0.031 A 
HETATM    3  C6  UNL     1      26.325   6.318  48.853  1.00  0.00     0.038 A 
HETATM    4  C7  UNL     1      25.070   5.824  49.187  1.00  0.00     0.141 A 
HETATM    5  N2  UNL     1      24.162   6.782  49.416  1.00  0.00    -0.224 NA
HETATM    6  C20 UNL     1      24.348   8.093  49.353  1.00  0.00     0.235 A 
HETATM    7  N3  UNL     1      25.562   8.568  49.028  1.00  0.00    -0.242 NA
HETATM    8  C21 UNL     1      26.533   7.674  48.783  1.00  0.00     0.083 A 
HETATM    9  C22 UNL     1      27.969   7.939  48.392  1.00  0.00     0.213 A 
ENDROOT
BRANCH   4  10
HETATM   10  N1  UNL     1      24.858   4.421  49.248  1.00  0.00    -0.340 N 
HETATM   11  H7  UNL     1      24.376   3.988  48.425  1.00  0.00     0.167 HD
BRANCH  10  12
HETATM   12  C8  UNL     1      25.226   3.539  50.292  1.00  0.00     0.033 A 
HETATM   13  C9  UNL     1      26.344   2.741  50.340  1.00  0.00     0.032 A 
HETATM   14  C10 UNL     1      26.720   1.889  51.353  1.00  0.00     0.039 A 
HETATM   15  C11 UNL     1      25.864   1.845  52.438  1.00  0.00     0.076 A 
HETATM   16  C18 UNL     1      24.710   2.612  52.484  1.00  0.00     0.039 A 
HETATM   17  C19 UNL     1      24.433   3.426  51.417  1.00  0.00     0.032 A 
BRANCH  15  18
HETATM   18  O2  UNL     1      26.139   1.019  53.526  1.00  0.00    -0.311 OA
BRANCH  18  19
HETATM   19  C12 UNL     1      27.341   0.316  53.491  1.00  0.00     0.079 A 
HETATM   20  C13 UNL     1      28.586   0.859  53.769  1.00  0.00     0.037 A 
HETATM   21  C14 UNL     1      29.742   0.091  53.711  1.00  0.00     0.006 A 
HETATM   22  C15 UNL     1      29.601  -1.249  53.361  1.00  0.00     0.042 A 
HETATM   23  C16 UNL     1      28.357  -1.776  53.088  1.00  0.00     0.119 A 
HETATM   24  F1  UNL     1      28.246  -3.103  52.748  1.00  0.00    -0.206 F 
HETATM   25  C17 UNL     1      27.211  -1.016  53.145  1.00  0.00     0.079 A 
ENDBRANCH  18  19
ENDBRANCH  15  18
ENDBRANCH  10  12
ENDBRANCH   4  10
BRANCH   1  26
HETATM   26  C3  UNL     1      29.848   6.148  47.913  1.00  0.00     0.158 C 
HETATM   27  O1  UNL     1      30.384   5.053  48.218  1.00  0.00    -0.293 OA
BRANCH  26  28
HETATM   28  C2  UNL     1      30.808   6.951  47.138  1.00  0.00     0.079 C 
HETATM   29  C1  UNL     1      32.058   7.081  48.017  1.00  0.00     0.013 C 
ENDBRANCH  26  28
ENDBRANCH   1  26
BRANCH   9  30
HETATM   30  O3  UNL     1      28.508   8.631  49.447  1.00  0.00    -0.356 OA
BRANCH  30  31
HETATM   31  C23 UNL     1      29.277   9.689  49.042  1.00  0.00     0.284 C 
BRANCH  31  32
HETATM   32  N4  UNL     1      30.394   9.919  49.900  1.00  0.00    -0.411 N 
HETATM   33  H20 UNL     1      30.212   9.724  50.908  1.00  0.00     0.151 HD
HETATM   34  H21 UNL     1      31.298   9.580  49.568  1.00  0.00     0.151 HD
ENDBRANCH  31  32
ENDBRANCH  30  31
ENDBRANCH   9  30
TORSDOF 9
ENDMDL
MODEL 3
REMARK VINA RESULT:      -8.6      5.112      9.135
REMARK  9 active torsions:
REMARK  status: ('A' for Active; 'I' for Inactive)
REMARK    1  A    between atoms: C2_2  and  C3_3 
REMARK    2  A    between atoms: C3_3  and  C4_5 
REMARK    3  A    between atoms: C7_8  and  N1_9 
REMARK    4  A    between atoms: N1_9  and  C8_10 
REMARK    5  A    between atoms: C11_13  and  O2_14 
REMARK    6  A    between atoms: O2_14  and  C12_15 
REMARK    7  A    between atoms: C22_28  and  O3_29 
REMARK    8  A    between atoms: O3_29  and  C23_30 
REMARK    9  A    between atoms: C23_30  and  N4_31 
ROOT
HETATM    1  C4  UNL     1      32.057   5.348  47.171  1.00  0.00     0.023 A 
HETATM    2  C5  UNL     1      30.748   5.541  47.225  1.00  0.00     0.031 A 
HETATM    3  C6  UNL     1      30.483   6.758  47.973  1.00  0.00     0.038 A 
HETATM    4  C7  UNL     1      29.296   7.399  48.306  1.00  0.00     0.141 A 
HETATM    5  N2  UNL     1      29.476   8.521  49.014  1.00  0.00    -0.224 NA
HETATM    6  C20 UNL     1      30.629   9.046  49.404  1.00  0.00     0.235 A 
HETATM    7  N3  UNL     1      31.775   8.425  49.080  1.00  0.00    -0.242 NA
HETATM    8  C21 UNL     1      31.686   7.290  48.369  1.00  0.00     0.083 A 
HETATM    9  C22 UNL     1      32.809   6.409  47.871  1.00  0.00     0.213 A 
ENDROOT
BRANCH   4  10
HETATM   10  N1  UNL     1      28.056   6.850  47.885  1.00  0.00    -0.340 N 
HETATM   11  H7  UNL     1      27.755   7.079  46.908  1.00  0.00     0.167 HD
BRANCH  10  12
HETATM   12  C8  UNL     1      27.181   6.026  48.632  1.00  0.00     0.033 A 
HETATM   13  C9  UNL     1      26.028   6.415  49.271  1.00  0.00     0.032 A 
HETATM   14  C10 UNL     1      25.162   5.622  49.989  1.00  0.00     0.039 A 
HETATM   15  C11 UNL     1      25.507   4.286  50.064  1.00  0.00     0.076 A 
HETATM   16  C18 UNL     1      26.651   3.795  49.454  1.00  0.00     0.039 A 
HETATM   17  C19 UNL     1      27.443   4.676  48.765  1.00  0.00     0.032 A 
BRANCH  15  18
HETATM   18  O2  UNL     1      24.707   3.384  50.764  1.00  0.00    -0.311 OA
BRANCH  18  19
HETATM   19  C12 UNL     1      23.694   2.755  50.042  1.00  0.00     0.079 A 
HETATM   20  C13 UNL     1      23.372   3.033  48.722  1.00  0.00     0.037 A 
HETATM   21  C14 UNL     1      22.346   2.361  48.070  1.00  0.00     0.006 A 
HETATM   22  C15 UNL     1      21.651   1.398  48.796  1.00  0.00     0.042 A 
HETATM   23  C16 UNL     1      21.983   1.132  50.107  1.00  0.00     0.119 A 
HETATM   24  F1  UNL     1      21.283   0.173  50.800  1.00  0.00    -0.206 F 
HETATM   25  C17 UNL     1      23.000   1.796  50.754  1.00  0.00     0.079 A 
ENDBRANCH  18  19
ENDBRANCH  15  18
ENDBRANCH  10  12
ENDBRANCH   4  10
BRANCH   1  26
HETATM   26  C3  UNL     1      32.589   4.184  46.469  1.00  0.00     0.158 C 
HETATM   27  O1  UNL     1      33.515   4.199  45.619  1.00  0.00    -0.293 OA
BRANCH  26  28
HETATM   28  C2  UNL     1      32.122   2.799  46.642  1.00  0.00     0.079 C 
HETATM   29  C1  UNL     1      33.124   2.130  47.592  1.00  0.00     0.013 C 
ENDBRANCH  26  28
ENDBRANCH   1  26
BRANCH   9  30
HETATM   30  O3  UNL     1      33.445   5.963  49.002  1.00  0.00    -0.356 OA
BRANCH  30  31
HETATM   31  C23 UNL     1      34.804   5.884  48.842  1.00  0.00     0.284 C 
BRANCH  31  32
HETATM   32  N4  UNL     1      35.387   4.824  49.598  1.00  0.00    -0.411 N 
HETATM   33  H20 UNL     1      36.430   4.812  49.592  1.00  0.00     0.151 HD
HETATM   34  H21 UNL     1      34.975   4.641  50.513  1.00  0.00     0.151 HD
ENDBRANCH  31  32
ENDBRANCH  30  31
ENDBRANCH   9  30
TORSDOF 9
ENDMDL
MODEL 4
REMARK VINA RESULT:      -8.5      3.984      5.976
REMARK  9 active torsions:
REMARK  status: ('A' for Active; 'I' for Inactive)
REMARK    1  A    between atoms: C2_2  and  C3_3 
REMARK    2  A    between atoms: C3_3  and  C4_5 
REMARK    3  A    between atoms: C7_8  and  N1_9 
REMARK    4  A    between atoms: N1_9  and  C8_10 
REMARK    5  A    between atoms: C11_13  and  O2_14 
REMARK    6  A    between atoms: O2_14  and  C12_15 
REMARK    7  A    between atoms: C22_28  and  O3_29 
REMARK    8  A    between atoms: O3_29  and  C23_30 
REMARK    9  A    between atoms: C23_30  and  N4_31 
ROOT
HETATM    1  C4  UNL     1      26.079   1.107  52.809  1.00  0.00     0.023 A 
HETATM    2  C5  UNL     1      24.827   0.823  52.484  1.00  0.00     0.031 A 
HETATM    3  C6  UNL     1      24.262  -0.043  53.505  1.00  0.00     0.038 A 
HETATM    4  C7  UNL     1      23.002  -0.613  53.639  1.00  0.00     0.141 A 
HETATM    5  N2  UNL     1      22.869  -1.359  54.744  1.00  0.00    -0.224 NA
HETATM    6  C20 UNL     1      23.788  -1.588  55.672  1.00  0.00     0.235 A 
HETATM    7  N3  UNL     1      25.005  -1.034  55.540  1.00  0.00    -0.242 NA
HETATM    8  C21 UNL     1      25.224  -0.270  54.458  1.00  0.00     0.083 A 
HETATM    9  C22 UNL     1      26.487   0.469  54.077  1.00  0.00     0.213 A 
ENDROOT
BRANCH   4  10
HETATM   10  N1  UNL     1      22.007  -0.367  52.657  1.00  0.00    -0.340 N 
HETATM   11  H7  UNL     1      21.425  -1.189  52.369  1.00  0.00     0.167 HD
BRANCH  10  12
HETATM   12  C8  UNL     1      21.708   0.862  52.023  1.00  0.00     0.033 A 
HETATM   13  C9  UNL     1      21.246   2.008  52.625  1.00  0.00     0.032 A 
HETATM   14  C10 UNL     1      20.964   3.213  52.022  1.00  0.00     0.039 A 
HETATM   15  C11 UNL     1      21.177   3.257  50.658  1.00  0.00     0.076 A 
HETATM   16  C18 UNL     1      21.641   2.153  49.959  1.00  0.00     0.039 A 
HETATM   17  C19 UNL     1      21.888   1.003  50.661  1.00  0.00     0.032 A 
BRANCH  15  18
HETATM   18  O2  UNL     1      20.927   4.424  49.937  1.00  0.00    -0.311 OA
BRANCH  18  19
HETATM   19  C12 UNL     1      22.030   5.217  49.628  1.00  0.00     0.079 A 
HETATM   20  C13 UNL     1      22.789   5.102  48.473  1.00  0.00     0.037 A 
HETATM   21  C14 UNL     1      23.878   5.932  48.236  1.00  0.00     0.006 A 
HETATM   22  C15 UNL     1      24.179   6.884  49.207  1.00  0.00     0.042 A 
HETATM   23  C16 UNL     1      23.415   6.986  50.350  1.00  0.00     0.119 A 
HETATM   24  F1  UNL     1      23.732   7.936  51.290  1.00  0.00    -0.206 F 
HETATM   25  C17 UNL     1      22.335   6.165  50.585  1.00  0.00     0.079 A 
ENDBRANCH  18  19
ENDBRANCH  15  18
ENDBRANCH  10  12
ENDBRANCH   4  10
BRANCH   1  26
HETATM   26  C3  UNL     1      26.875   1.968  51.940  1.00  0.00     0.158 C 
HETATM   27  O1  UNL     1      27.975   2.499  52.240  1.00  0.00    -0.293 OA
BRANCH  26  28
HETATM   28  C2  UNL     1      26.515   2.359  50.568  1.00  0.00     0.079 C 
HETATM   29  C1  UNL     1      25.620   3.598  50.703  1.00  0.00     0.013 C 
ENDBRANCH  26  28
ENDBRANCH   1  26
BRANCH   9  30
HETATM   30  O3  UNL     1      27.438  -0.505  53.910  1.00  0.00    -0.356 OA
BRANCH  30  31
HETATM   31  C23 UNL     1      28.602  -0.222  54.574  1.00  0.00     0.284 C 
BRANCH  31  32
HETATM   32  N4  UNL     1      28.694   1.147  54.966  1.00  0.00    -0.411 N 
HETATM   33  H20 UNL     1      29.339   1.325  55.766  1.00  0.00     0.151 HD
HETATM   34  H21 UNL     1      28.770   1.830  54.212  1.00  0.00     0.151 HD
ENDBRANCH  31  32
ENDBRANCH  30  31
ENDBRANCH   9  30
TORSDOF 9
ENDMDL
MODEL 5
REMARK VINA RESULT:      -8.4      1.737      2.395
REMARK  9 active torsions:
REMARK  status: ('A' for Active; 'I' for Inactive)
REMARK    1  A    between atoms: C2_2  and  C3_3 
REMARK    2  A    between atoms: C3_3  and  C4_5 
REMARK    3  A    between atoms: C7_8  and  N1_9 
REMARK    4  A    between atoms: N1_9  and  C8_10 
REMARK    5  A    between atoms: C11_13  and  O2_14 
REMARK    6  A    between atoms: O2_14  and  C12_15 
REMARK    7  A    between atoms: C22_28  and  O3_29 
REMARK    8  A    between atoms: O3_29  and  C23_30 
REMARK    9  A    between atoms: C23_30  and  N4_31 
ROOT
HETATM    1  C4  UNL     1      26.849   0.795  53.456  1.00  0.00     0.023 A 
HETATM    2  C5  UNL     1      27.029   1.470  52.330  1.00  0.00     0.031 A 
HETATM    3  C6  UNL     1      25.731   1.858  51.803  1.00  0.00     0.038 A 
HETATM    4  C7  UNL     1      25.371   2.573  50.668  1.00  0.00     0.141 A 
HETATM    5  N2  UNL     1      24.048   2.728  50.532  1.00  0.00    -0.224 NA
HETATM    6  C20 UNL     1      23.101   2.281  51.346  1.00  0.00     0.235 A 
HETATM    7  N3  UNL     1      23.452   1.591  52.443  1.00  0.00    -0.242 NA
HETATM    8  C21 UNL     1      24.763   1.389  52.656  1.00  0.00     0.083 A 
HETATM    9  C22 UNL     1      25.421   0.661  53.806  1.00  0.00     0.213 A 
ENDROOT
BRANCH   4  10
HETATM   10  N1  UNL     1      26.377   3.064  49.795  1.00  0.00    -0.340 N 
HETATM   11  H7  UNL     1      27.059   2.359  49.428  1.00  0.00     0.167 HD
BRANCH  10  12
HETATM   12  C8  UNL     1      26.562   4.398  49.358  1.00  0.00     0.033 A 
HETATM   13  C9  UNL     1      25.714   5.459  49.567  1.00  0.00     0.032 A 
HETATM   14  C10 UNL     1      25.889   6.761  49.160  1.00  0.00     0.039 A 
HETATM   15  C11 UNL     1      27.056   7.012  48.463  1.00  0.00     0.076 A 
HETATM   16  C18 UNL     1      27.976   6.008  48.200  1.00  0.00     0.039 A 
HETATM   17  C19 UNL     1      27.698   4.745  48.653  1.00  0.00     0.032 A 
BRANCH  15  18
HETATM   18  O2  UNL     1      27.344   8.294  47.998  1.00  0.00    -0.311 OA
BRANCH  18  19
HETATM   19  C12 UNL     1      27.205   8.509  46.629  1.00  0.00     0.079 A 
HETATM   20  C13 UNL     1      26.007   8.444  45.934  1.00  0.00     0.037 A 
HETATM   21  C14 UNL     1      25.950   8.671  44.564  1.00  0.00     0.006 A 
HETATM   22  C15 UNL     1      27.146   8.966  43.916  1.00  0.00     0.042 A 
HETATM   23  C16 UNL     1      28.329   9.028  44.619  1.00  0.00     0.119 A 
HETATM   24  F1  UNL     1      29.495   9.324  43.955  1.00  0.00    -0.206 F 
HETATM   25  C17 UNL     1      28.387   8.804  45.976  1.00  0.00     0.079 A 
ENDBRANCH  18  19
ENDBRANCH  15  18
ENDBRANCH  10  12
ENDBRANCH   4  10
BRANCH   1  26
HETATM   26  C3  UNL     1      28.005   0.290  54.190  1.00  0.00     0.158 C 
HETATM   27  O1  UNL     1      27.968  -0.327  55.285  1.00  0.00    -0.293 OA
BRANCH  26  28
HETATM   28  C2  UNL     1      29.408   0.427  53.767  1.00  0.00     0.079 C 
HETATM   29  C1  UNL     1      29.890  -0.991  53.435  1.00  0.00     0.013 C 
ENDBRANCH  26  28
ENDBRANCH   1  26
BRANCH   9  30
HETATM   30  O3  UNL     1      24.964  -0.630  53.723  1.00  0.00    -0.356 OA
BRANCH  30  31
HETATM   31  C23 UNL     1      24.250  -1.006  54.830  1.00  0.00     0.284 C 
BRANCH  31  32
HETATM   32  N4  UNL     1      25.086  -1.394  55.920  1.00  0.00    -0.411 N 
HETATM   33  H20 UNL     1      24.569  -1.664  56.785  1.00  0.00     0.151 HD
HETATM   34  H21 UNL     1      25.867  -2.010  55.694  1.00  0.00     0.151 HD
ENDBRANCH  31  32
ENDBRANCH  30  31
ENDBRANCH   9  30
TORSDOF 9
ENDMDL
MODEL 6
REMARK VINA RESULT:      -8.3      4.140      8.917
REMARK  9 active torsions:
REMARK  status: ('A' for Active; 'I' for Inactive)
REMARK    1  A    between atoms: C2_2  and  C3_3 
REMARK    2  A    between atoms: C3_3  and  C4_5 
REMARK    3  A    between atoms: C7_8  and  N1_9 
REMARK    4  A    between atoms: N1_9  and  C8_10 
REMARK    5  A    between atoms: C11_13  and  O2_14 
REMARK    6  A    between atoms: O2_14  and  C12_15 
REMARK    7  A    between atoms: C22_28  and  O3_29 
REMARK    8  A    between atoms: O3_29  and  C23_30 
REMARK    9  A    between atoms: C23_30  and  N4_31 
ROOT
HETATM    1  C4  UNL     1      30.925   5.588  47.800  1.00  0.00     0.023 A 
HETATM    2  C5  UNL     1      29.631   5.321  47.897  1.00  0.00     0.031 A 
HETATM    3  C6  UNL     1      28.932   6.528  48.304  1.00  0.00     0.038 A 
HETATM    4  C7  UNL     1      27.586   6.782  48.538  1.00  0.00     0.141 A 
HETATM    5  N2  UNL     1      27.337   8.048  48.899  1.00  0.00    -0.224 NA
HETATM    6  C20 UNL     1      28.218   9.028  49.044  1.00  0.00     0.235 A 
HETATM    7  N3  UNL     1      29.519   8.779  48.816  1.00  0.00    -0.242 NA
HETATM    8  C21 UNL     1      29.857   7.532  48.449  1.00  0.00     0.083 A 
HETATM    9  C22 UNL     1      31.233   6.995  48.127  1.00  0.00     0.213 A 
ENDROOT
BRANCH   4  10
HETATM   10  N1  UNL     1      26.633   5.743  48.376  1.00  0.00    -0.340 N 
HETATM   11  H7  UNL     1      26.212   5.644  47.422  1.00  0.00     0.167 HD
BRANCH  10  12
HETATM   12  C8  UNL     1      26.189   4.821  49.353  1.00  0.00     0.033 A 
HETATM   13  C9  UNL     1      25.140   4.986  50.225  1.00  0.00     0.032 A 
HETATM   14  C10 UNL     1      24.691   4.093  51.171  1.00  0.00     0.039 A 
HETATM   15  C11 UNL     1      25.384   2.900  51.236  1.00  0.00     0.076 A 
HETATM   16  C18 UNL     1      26.459   2.638  50.399  1.00  0.00     0.039 A 
HETATM   17  C19 UNL     1      26.821   3.600  49.494  1.00  0.00     0.032 A 
BRANCH  15  18
HETATM   18  O2  UNL     1      25.022   1.916  52.154  1.00  0.00    -0.311 OA
BRANCH  18  19
HETATM   19  C12 UNL     1      26.058   1.176  52.720  1.00  0.00     0.079 A 
HETATM   20  C13 UNL     1      26.969   1.666  53.644  1.00  0.00     0.037 A 
HETATM   21  C14 UNL     1      27.978   0.863  54.162  1.00  0.00     0.006 A 
HETATM   22  C15 UNL     1      28.039  -0.454  53.716  1.00  0.00     0.042 A 
HETATM   23  C16 UNL     1      27.126  -0.927  52.798  1.00  0.00     0.119 A 
HETATM   24  F1  UNL     1      27.208  -2.232  52.376  1.00  0.00    -0.206 F 
HETATM   25  C17 UNL     1      26.126  -0.133  52.283  1.00  0.00     0.079 A 
ENDBRANCH  18  19
ENDBRANCH  15  18
ENDBRANCH  10  12
ENDBRANCH   4  10
BRANCH   1  26
HETATM   26  C3  UNL     1      31.855   4.535  47.403  1.00  0.00     0.158 C 
HETATM   27  O1  UNL     1      33.077   4.486  47.693  1.00  0.00    -0.293 OA
BRANCH  26  28
HETATM   28  C2  UNL     1      31.509   3.356  46.592  1.00  0.00     0.079 C 
HETATM   29  C1  UNL     1      32.596   2.312  46.878  1.00  0.00     0.013 C 
ENDBRANCH  26  28
ENDBRANCH   1  26
BRANCH   9  30
HETATM   30  O3  UNL     1      31.954   7.134  49.286  1.00  0.00    -0.356 OA
BRANCH  30  31
HETATM   31  C23 UNL     1      33.086   7.887  49.111  1.00  0.00     0.284 C 
BRANCH  31  32
HETATM   32  N4  UNL     1      34.179   7.128  48.598  1.00  0.00    -0.411 N 
HETATM   33  H20 UNL     1      33.930   6.487  47.813  1.00  0.00     0.151 HD
HETATM   34  H21 UNL     1      35.056   7.632  48.460  1.00  0.00     0.151 HD
ENDBRANCH  31  32
ENDBRANCH  30  31
ENDBRANCH   9  30
TORSDOF 9
ENDMDL
MODEL 7
REMARK VINA RESULT:      -8.2      4.278      6.580
REMARK  9 active torsions:
REMARK  status: ('A' for Active; 'I' for Inactive)
REMARK    1  A    between atoms: C2_2  and  C3_3 
REMARK    2  A    between atoms: C3_3  and  C4_5 
REMARK    3  A    between atoms: C7_8  and  N1_9 
REMARK    4  A    between atoms: N1_9  and  C8_10 
REMARK    5  A    between atoms: C11_13  and  O2_14 
REMARK    6  A    between atoms: O2_14  and  C12_15 
REMARK    7  A    between atoms: C22_28  and  O3_29 
REMARK    8  A    between atoms: O3_29  and  C23_30 
REMARK    9  A    between atoms: C23_30  and  N4_31 
ROOT
HETATM    1  C4  UNL     1      25.708   1.227  52.775  1.00  0.00     0.023 A 
HETATM    2  C5  UNL     1      24.467   0.805  52.586  1.00  0.00     0.031 A 
HETATM    3  C6  UNL     1      24.107  -0.095  53.668  1.00  0.00     0.038 A 
HETATM    4  C7  UNL     1      22.937  -0.794  53.940  1.00  0.00     0.141 A 
HETATM    5  N2  UNL     1      23.000  -1.527  55.059  1.00  0.00    -0.224 NA
HETATM    6  C20 UNL     1      24.029  -1.637  55.887  1.00  0.00     0.235 A 
HETATM    7  N3  UNL     1      25.159  -0.960  55.623  1.00  0.00    -0.242 NA
HETATM    8  C21 UNL     1      25.182  -0.199  54.517  1.00  0.00     0.083 A 
HETATM    9  C22 UNL     1      26.311   0.662  53.999  1.00  0.00     0.213 A 
ENDROOT
BRANCH   4  10
HETATM   10  N1  UNL     1      21.826  -0.675  53.064  1.00  0.00    -0.340 N 
HETATM   11  H7  UNL     1      21.222  -1.525  52.962  1.00  0.00     0.167 HD
BRANCH  10  12
HETATM   12  C8  UNL     1      21.435   0.462  52.317  1.00  0.00     0.033 A 
HETATM   13  C9  UNL     1      21.050   1.683  52.815  1.00  0.00     0.032 A 
HETATM   14  C10 UNL     1      20.681   2.799  52.100  1.00  0.00     0.039 A 
HETATM   15  C11 UNL     1      20.708   2.657  50.726  1.00  0.00     0.076 A 
HETATM   16  C18 UNL     1      21.082   1.464  50.125  1.00  0.00     0.039 A 
HETATM   17  C19 UNL     1      21.430   0.416  50.936  1.00  0.00     0.032 A 
BRANCH  15  18
HETATM   18  O2  UNL     1      20.355   3.719  49.894  1.00  0.00    -0.311 OA
BRANCH  18  19
HETATM   19  C12 UNL     1      21.215   4.816  49.881  1.00  0.00     0.079 A 
HETATM   20  C13 UNL     1      20.979   6.014  50.537  1.00  0.00     0.037 A 
HETATM   21  C14 UNL     1      21.886   7.065  50.476  1.00  0.00     0.006 A 
HETATM   22  C15 UNL     1      23.043   6.866  49.728  1.00  0.00     0.042 A 
HETATM   23  C16 UNL     1      23.265   5.669  49.082  1.00  0.00     0.119 A 
HETATM   24  F1  UNL     1      24.416   5.498  48.352  1.00  0.00    -0.206 F 
HETATM   25  C17 UNL     1      22.366   4.627  49.142  1.00  0.00     0.079 A 
ENDBRANCH  18  19
ENDBRANCH  15  18
ENDBRANCH  10  12
ENDBRANCH   4  10
BRANCH   1  26
HETATM   26  C3  UNL     1      26.313   2.150  51.819  1.00  0.00     0.158 C 
HETATM   27  O1  UNL     1      27.531   2.453  51.761  1.00  0.00    -0.293 OA
BRANCH  26  28
HETATM   28  C2  UNL     1      25.588   2.881  50.768  1.00  0.00     0.079 C 
HETATM   29  C1  UNL     1      26.639   3.266  49.719  1.00  0.00     0.013 C 
ENDBRANCH  26  28
ENDBRANCH   1  26
BRANCH   9  30
HETATM   30  O3  UNL     1      27.339  -0.209  53.742  1.00  0.00    -0.356 OA
BRANCH  30  31
HETATM   31  C23 UNL     1      28.491   0.130  54.402  1.00  0.00     0.284 C 
BRANCH  31  32
HETATM   32  N4  UNL     1      29.421   0.822  53.570  1.00  0.00    -0.411 N 
HETATM   33  H20 UNL     1      29.151   1.804  53.344  1.00  0.00     0.151 HD
HETATM   34  H21 UNL     1      30.408   0.704  53.800  1.00  0.00     0.151 HD
ENDBRANCH  31  32
ENDBRANCH  30  31
ENDBRANCH   9  30
TORSDOF 9
ENDMDL
MODEL 8
REMARK VINA RESULT:      -8.2      5.287      9.448
REMARK  9 active torsions:
REMARK  status: ('A' for Active; 'I' for Inactive)
REMARK    1  A    between atoms: C2_2  and  C3_3 
REMARK    2  A    between atoms: C3_3  and  C4_5 
REMARK    3  A    between atoms: C7_8  and  N1_9 
REMARK    4  A    between atoms: N1_9  and  C8_10 
REMARK    5  A    between atoms: C11_13  and  O2_14 
REMARK    6  A    between atoms: O2_14  and  C12_15 
REMARK    7  A    between atoms: C22_28  and  O3_29 
REMARK    8  A    between atoms: O3_29  and  C23_30 
REMARK    9  A    between atoms: C23_30  and  N4_31 
ROOT
HETATM    1  C4  UNL     1      24.652   0.716  52.835  1.00  0.00     0.023 A 
HETATM    2  C5  UNL     1      23.857   1.643  52.321  1.00  0.00     0.031 A 
HETATM    3  C6  UNL     1      24.634   2.482  51.425  1.00  0.00     0.038 A 
HETATM    4  C7  UNL     1      24.280   3.575  50.644  1.00  0.00     0.141 A 
HETATM    5  N2  UNL     1      25.302   4.082  49.940  1.00  0.00    -0.224 NA
HETATM    6  C20 UNL     1      26.556   3.651  49.926  1.00  0.00     0.235 A 
HETATM    7  N3  UNL     1      26.895   2.594  50.682  1.00  0.00    -0.242 NA
HETATM    8  C21 UNL     1      25.929   2.024  51.421  1.00  0.00     0.083 A 
HETATM    9  C22 UNL     1      26.039   0.830  52.341  1.00  0.00     0.213 A 
ENDROOT
BRANCH   4  10
HETATM   10  N1  UNL     1      22.938   4.038  50.644  1.00  0.00    -0.340 N 
HETATM   11  H7  UNL     1      22.805   5.077  50.673  1.00  0.00     0.167 HD
BRANCH  10  12
HETATM   12  C8  UNL     1      21.758   3.258  50.607  1.00  0.00     0.033 A 
HETATM   13  C9  UNL     1      21.467   2.246  49.724  1.00  0.00     0.032 A 
HETATM   14  C10 UNL     1      20.330   1.472  49.686  1.00  0.00     0.039 A 
HETATM   15  C11 UNL     1      19.385   1.758  50.652  1.00  0.00     0.076 A 
HETATM   16  C18 UNL     1      19.584   2.762  51.588  1.00  0.00     0.039 A 
HETATM   17  C19 UNL     1      20.755   3.472  51.533  1.00  0.00     0.032 A 
BRANCH  15  18
HETATM   18  O2  UNL     1      18.192   1.041  50.714  1.00  0.00    -0.311 OA
BRANCH  18  19
HETATM   19  C12 UNL     1      18.119   0.030  51.669  1.00  0.00     0.079 A 
HETATM   20  C13 UNL     1      19.138  -0.306  52.547  1.00  0.00     0.037 A 
HETATM   21  C14 UNL     1      18.988  -1.331  53.473  1.00  0.00     0.006 A 
HETATM   22  C15 UNL     1      17.773  -2.009  53.485  1.00  0.00     0.042 A 
HETATM   23  C16 UNL     1      16.768  -1.664  52.606  1.00  0.00     0.119 A 
HETATM   24  F1  UNL     1      15.577  -2.348  52.641  1.00  0.00    -0.206 F 
HETATM   25  C17 UNL     1      16.915  -0.649  51.688  1.00  0.00     0.079 A 
ENDBRANCH  18  19
ENDBRANCH  15  18
ENDBRANCH  10  12
ENDBRANCH   4  10
BRANCH   1  26
HETATM   26  C3  UNL     1      24.111  -0.263  53.774  1.00  0.00     0.158 C 
HETATM   27  O1  UNL     1      24.770  -0.894  54.638  1.00  0.00    -0.293 OA
BRANCH  26  28
HETATM   28  C2  UNL     1      22.700  -0.673  53.856  1.00  0.00     0.079 C 
HETATM   29  C1  UNL     1      22.563  -1.461  55.165  1.00  0.00     0.013 C 
ENDBRANCH  26  28
ENDBRANCH   1  26
BRANCH   9  30
HETATM   30  O3  UNL     1      26.929   1.206  53.314  1.00  0.00    -0.356 OA
BRANCH  30  31
HETATM   31  C23 UNL     1      27.900   0.263  53.529  1.00  0.00     0.284 C 
BRANCH  31  32
HETATM   32  N4  UNL     1      27.835  -0.307  54.835  1.00  0.00    -0.411 N 
HETATM   33  H20 UNL     1      27.381  -1.246  54.875  1.00  0.00     0.151 HD
HETATM   34  H21 UNL     1      28.677  -0.229  55.406  1.00  0.00     0.151 HD
ENDBRANCH  31  32
ENDBRANCH  30  31
ENDBRANCH   9  30
TORSDOF 9
ENDMDL
MODEL 9
REMARK VINA RESULT:      -8.1      1.938      2.654
REMARK  9 active torsions:
REMARK  status: ('A' for Active; 'I' for Inactive)
REMARK    1  A    between atoms: C2_2  and  C3_3 
REMARK    2  A    between atoms: C3_3  and  C4_5 
REMARK    3  A    between atoms: C7_8  and  N1_9 
REMARK    4  A    between atoms: N1_9  and  C8_10 
REMARK    5  A    between atoms: C11_13  and  O2_14 
REMARK    6  A    between atoms: O2_14  and  C12_15 
REMARK    7  A    between atoms: C22_28  and  O3_29 
REMARK    8  A    between atoms: O3_29  and  C23_30 
REMARK    9  A    between atoms: C23_30  and  N4_31 
ROOT
HETATM    1  C4  UNL     1      24.736   0.531  53.025  1.00  0.00     0.023 A 
HETATM    2  C5  UNL     1      24.689   1.169  51.865  1.00  0.00     0.031 A 
HETATM    3  C6  UNL     1      23.311   1.539  51.588  1.00  0.00     0.038 A 
HETATM    4  C7  UNL     1      22.733   2.217  50.522  1.00  0.00     0.141 A 
HETATM    5  N2  UNL     1      21.407   2.368  50.641  1.00  0.00    -0.224 NA
HETATM    6  C20 UNL     1      20.640   1.948  51.638  1.00  0.00     0.235 A 
HETATM    7  N3  UNL     1      21.202   1.293  52.667  1.00  0.00    -0.242 NA
HETATM    8  C21 UNL     1      22.530   1.098  52.628  1.00  0.00     0.083 A 
HETATM    9  C22 UNL     1      23.404   0.408  53.650  1.00  0.00     0.213 A 
ENDROOT
BRANCH   4  10
HETATM   10  N1  UNL     1      23.546   2.680  49.455  1.00  0.00    -0.340 N 
HETATM   11  H7  UNL     1      23.575   2.078  48.598  1.00  0.00     0.167 HD
BRANCH  10  12
HETATM   12  C8  UNL     1      24.321   3.864  49.413  1.00  0.00     0.033 A 
HETATM   13  C9  UNL     1      23.856   5.155  49.487  1.00  0.00     0.032 A 
HETATM   14  C10 UNL     1      24.599   6.313  49.460  1.00  0.00     0.039 A 
HETATM   15  C11 UNL     1      25.964   6.139  49.347  1.00  0.00     0.076 A 
HETATM   16  C18 UNL     1      26.531   4.876  49.264  1.00  0.00     0.039 A 
HETATM   17  C19 UNL     1      25.695   3.790  49.299  1.00  0.00     0.032 A 
BRANCH  15  18
HETATM   18  O2  UNL     1      26.821   7.237  49.309  1.00  0.00    -0.311 OA
BRANCH  18  19
HETATM   19  C12 UNL     1      27.324   7.597  48.060  1.00  0.00     0.079 A 
HETATM   20  C13 UNL     1      26.590   8.214  47.058  1.00  0.00     0.037 A 
HETATM   21  C14 UNL     1      27.164   8.540  45.836  1.00  0.00     0.006 A 
HETATM   22  C15 UNL     1      28.508   8.223  45.656  1.00  0.00     0.042 A 
HETATM   23  C16 UNL     1      29.225   7.610  46.661  1.00  0.00     0.119 A 
HETATM   24  F1  UNL     1      30.550   7.310  46.459  1.00  0.00    -0.206 F 
HETATM   25  C17 UNL     1      28.657   7.286  47.873  1.00  0.00     0.079 A 
ENDBRANCH  18  19
ENDBRANCH  15  18
ENDBRANCH  10  12
ENDBRANCH   4  10
BRANCH   1  26
HETATM   26  C3  UNL     1      26.016   0.051  53.536  1.00  0.00     0.158 C 
HETATM   27  O1  UNL     1      26.202  -0.496  54.652  1.00  0.00    -0.293 OA
BRANCH  26  28
HETATM   28  C2  UNL     1      27.301   0.133  52.824  1.00  0.00     0.079 C 
HETATM   29  C1  UNL     1      28.059  -1.155  53.169  1.00  0.00     0.013 C 
ENDBRANCH  26  28
ENDBRANCH   1  26
BRANCH   9  30
HETATM   30  O3  UNL     1      22.948  -0.885  53.699  1.00  0.00    -0.356 OA
BRANCH  30  31
HETATM   31  C23 UNL     1      22.497  -1.236  54.944  1.00  0.00     0.284 C 
BRANCH  31  32
HETATM   32  N4  UNL     1      23.554  -1.592  55.834  1.00  0.00    -0.411 N 
HETATM   33  H20 UNL     1      24.475  -1.158  55.606  1.00  0.00     0.151 HD
HETATM   34  H21 UNL     1      23.328  -1.589  56.829  1.00  0.00     0.151 HD
ENDBRANCH  31  32
ENDBRANCH  30  31
ENDBRANCH   9  30
TORSDOF 9
ENDMDL
