MODEL 1
REMARK VINA RESULT:      -9.3      0.000      0.000
REMARK  5 active torsions:
REMARK  status: ('A' for Active; 'I' for Inactive)
REMARK    1  A    between atoms: C4_4  and  C5_5 
REMARK    2  A    between atoms: C6_6  and  C7_7 
REMARK    3  A    between atoms: C11_11  and  N1_12 
REMARK    4  A    between atoms: N1_12  and  C12_13 
REMARK    5  A    between atoms: C18_22  and  C19_23 
ROOT
HETATM    1  C1  UNL     1      31.907   2.981  46.813  1.00  0.00     0.017 C 
HETATM    2  C2  UNL     1      32.155   4.159  46.968  1.00  0.00    -0.089 C 
HETATM    3  C3  UNL     1      32.423   5.550  47.146  1.00  0.00     0.063 C 
HETATM    4  C4  UNL     1      31.601   6.401  47.710  1.00  0.00     0.009 C 
ENDROOT
BRANCH   4   5
HETATM    5  C5  UNL     1      30.276   6.025  48.237  1.00  0.00     0.001 C 
HETATM    6  C6  UNL     1      29.150   6.509  47.745  1.00  0.00     0.011 C 
BRANCH   6   7
HETATM    7  C7  UNL     1      27.836   6.168  48.232  1.00  0.00    -0.034 A 
HETATM    8  C8  UNL     1      26.760   7.021  48.152  1.00  0.00     0.011 A 
HETATM    9  C9  UNL     1      25.534   6.613  48.640  1.00  0.00     0.003 A 
HETATM   10  C10 UNL     1      25.428   5.368  49.189  1.00  0.00     0.029 A 
HETATM   11  C11 UNL     1      26.449   4.447  49.311  1.00  0.00     0.034 A 
HETATM   12  C23 UNL     1      27.638   4.931  48.802  1.00  0.00     0.041 A 
BRANCH  11  13
HETATM   13  N1  UNL     1      26.300   3.148  49.874  1.00  0.00    -0.339 N 
HETATM   14  H9  UNL     1      27.178   2.622  49.704  1.00  0.00     0.167 HD
BRANCH  13  15
HETATM   15  C12 UNL     1      25.130   2.700  50.530  1.00  0.00     0.158 A 
HETATM   16  N2  UNL     1      23.909   3.178  50.292  1.00  0.00    -0.222 NA
HETATM   17  C13 UNL     1      22.811   2.734  50.917  1.00  0.00     0.236 A 
HETATM   18  N3  UNL     1      22.918   1.760  51.833  1.00  0.00    -0.239 NA
HETATM   19  C14 UNL     1      24.117   1.227  52.129  1.00  0.00     0.099 A 
HETATM   20  C15 UNL     1      25.222   1.706  51.470  1.00  0.00     0.104 A 
HETATM   21  C20 UNL     1      23.934   0.180  53.164  1.00  0.00    -0.001 C 
HETATM   22  N4  UNL     1      26.528   1.228  51.730  1.00  0.00    -0.381 N 
HETATM   23  C16 UNL     1      26.963  -0.105  52.066  1.00  0.00     0.148 C 
HETATM   24  H11 UNL     1      27.248   2.016  51.653  1.00  0.00     0.160 HD
HETATM   25  C17 UNL     1      26.381  -0.571  53.345  1.00  0.00     0.003 C 
HETATM   26  C18 UNL     1      25.116  -0.446  53.773  1.00  0.00    -0.020 C 
HETATM   27  C21 UNL     1      22.751  -0.200  53.543  1.00  0.00    -0.017 C 
HETATM   28  C22 UNL     1      21.742  -0.922  54.260  1.00  0.00     0.037 C 
BRANCH  26  29
HETATM   29  C19 UNL     1      24.912  -1.044  55.114  1.00  0.00     0.261 C 
HETATM   30  F1  UNL     1      25.638  -0.438  56.091  1.00  0.00    -0.251 F 
ENDBRANCH  26  29
ENDBRANCH  13  15
ENDBRANCH  11  13
ENDBRANCH   6   7
ENDBRANCH   4   5
TORSDOF 5
ENDMDL
MODEL 2
REMARK VINA RESULT:      -9.2      3.213      9.538
REMARK  5 active torsions:
REMARK  status: ('A' for Active; 'I' for Inactive)
REMARK    1  A    between atoms: C4_4  and  C5_5 
REMARK    2  A    between atoms: C6_6  and  C7_7 
REMARK    3  A    between atoms: C11_11  and  N1_12 
REMARK    4  A    between atoms: N1_12  and  C12_13 
REMARK    5  A    between atoms: C18_22  and  C19_23 
ROOT
HETATM    1  C1  UNL     1      17.069  -0.186  50.296  1.00  0.00     0.017 C 
HETATM    2  C2  UNL     1      17.145  -0.654  51.413  1.00  0.00    -0.089 C 
HETATM    3  C3  UNL     1      17.257  -1.211  52.722  1.00  0.00     0.063 C 
HETATM    4  C4  UNL     1      18.344  -1.179  53.456  1.00  0.00     0.009 C 
ENDROOT
BRANCH   4   5
HETATM    5  C5  UNL     1      19.605  -0.557  53.012  1.00  0.00     0.001 C 
HETATM    6  C6  UNL     1      20.756  -0.762  53.628  1.00  0.00     0.011 C 
BRANCH   6   7
HETATM    7  C7  UNL     1      22.009  -0.171  53.228  1.00  0.00    -0.034 A 
HETATM    8  C8  UNL     1      23.204  -0.451  53.850  1.00  0.00     0.011 A 
HETATM    9  C9  UNL     1      24.360   0.157  53.400  1.00  0.00     0.003 A 
HETATM   10  C10 UNL     1      24.280   1.020  52.346  1.00  0.00     0.029 A 
HETATM   11  C11 UNL     1      23.130   1.360  51.663  1.00  0.00     0.034 A 
HETATM   12  C23 UNL     1      22.022   0.713  52.173  1.00  0.00     0.041 A 
BRANCH  11  13
HETATM   13  N1  UNL     1      23.084   2.252  50.554  1.00  0.00    -0.339 N 
HETATM   14  H9  UNL     1      22.913   1.692  49.698  1.00  0.00     0.167 HD
BRANCH  13  15
HETATM   15  C12 UNL     1      23.260   3.651  50.658  1.00  0.00     0.158 A 
HETATM   16  N2  UNL     1      22.384   4.476  51.232  1.00  0.00    -0.222 NA
HETATM   17  C13 UNL     1      22.573   5.797  51.329  1.00  0.00     0.236 A 
HETATM   18  N3  UNL     1      23.692   6.345  50.831  1.00  0.00    -0.239 NA
HETATM   19  C14 UNL     1      24.624   5.579  50.236  1.00  0.00     0.099 A 
HETATM   20  C15 UNL     1      24.398   4.227  50.153  1.00  0.00     0.104 A 
HETATM   21  C20 UNL     1      25.742   6.445  49.789  1.00  0.00    -0.001 C 
HETATM   22  N4  UNL     1      25.305   3.343  49.524  1.00  0.00    -0.381 N 
HETATM   23  C16 UNL     1      26.746   3.385  49.489  1.00  0.00     0.148 C 
HETATM   24  H11 UNL     1      24.787   2.555  49.020  1.00  0.00     0.160 HD
HETATM   25  C17 UNL     1      27.248   4.607  48.821  1.00  0.00     0.003 C 
HETATM   26  C18 UNL     1      26.817   5.868  48.969  1.00  0.00    -0.020 C 
HETATM   27  C21 UNL     1      25.797   7.703  50.108  1.00  0.00    -0.017 C 
HETATM   28  C22 UNL     1      26.290   9.046  50.180  1.00  0.00     0.037 C 
BRANCH  26  29
HETATM   29  C19 UNL     1      27.573   6.826  48.127  1.00  0.00     0.261 C 
HETATM   30  F1  UNL     1      28.908   6.833  48.385  1.00  0.00    -0.251 F 
ENDBRANCH  26  29
ENDBRANCH  13  15
ENDBRANCH  11  13
ENDBRANCH   6   7
ENDBRANCH   4   5
TORSDOF 5
ENDMDL
MODEL 3
REMARK VINA RESULT:      -9.1      3.286      9.967
REMARK  5 active torsions:
REMARK  status: ('A' for Active; 'I' for Inactive)
REMARK    1  A    between atoms: C4_4  and  C5_5 
REMARK    2  A    between atoms: C6_6  and  C7_7 
REMARK    3  A    between atoms: C11_11  and  N1_12 
REMARK    4  A    between atoms: N1_12  and  C12_13 
REMARK    5  A    between atoms: C18_22  and  C19_23 
ROOT
HETATM    1  C1  UNL     1      17.049   0.137  50.145  1.00  0.00     0.017 C 
HETATM    2  C2  UNL     1      16.862  -0.483  51.171  1.00  0.00    -0.089 C 
HETATM    3  C3  UNL     1      16.663  -1.220  52.378  1.00  0.00     0.063 C 
HETATM    4  C4  UNL     1      17.582  -1.412  53.294  1.00  0.00     0.009 C 
ENDROOT
BRANCH   4   5
HETATM    5  C5  UNL     1      18.955  -0.884  53.190  1.00  0.00     0.001 C 
HETATM    6  C6  UNL     1      19.960  -1.371  53.895  1.00  0.00     0.011 C 
BRANCH   6   7
HETATM    7  C7  UNL     1      21.315  -0.883  53.825  1.00  0.00    -0.034 A 
HETATM    8  C8  UNL     1      22.328  -1.359  54.624  1.00  0.00     0.011 A 
HETATM    9  C9  UNL     1      23.600  -0.838  54.489  1.00  0.00     0.003 A 
HETATM   10  C10 UNL     1      23.813   0.139  53.559  1.00  0.00     0.029 A 
HETATM   11  C11 UNL     1      22.862   0.676  52.717  1.00  0.00     0.034 A 
HETATM   12  C23 UNL     1      21.621   0.104  52.915  1.00  0.00     0.041 A 
BRANCH  11  13
HETATM   13  N1  UNL     1      23.122   1.684  51.746  1.00  0.00    -0.339 N 
HETATM   14  H9  UNL     1      22.212   2.020  51.379  1.00  0.00     0.167 HD
BRANCH  13  15
HETATM   15  C12 UNL     1      24.419   2.107  51.373  1.00  0.00     0.158 A 
HETATM   16  N2  UNL     1      25.544   1.523  51.784  1.00  0.00    -0.222 NA
HETATM   17  C13 UNL     1      26.763   1.932  51.413  1.00  0.00     0.236 A 
HETATM   18  N3  UNL     1      26.887   2.981  50.586  1.00  0.00    -0.239 NA
HETATM   19  C14 UNL     1      25.798   3.625  50.129  1.00  0.00     0.099 A 
HETATM   20  C15 UNL     1      24.563   3.179  50.530  1.00  0.00     0.104 A 
HETATM   21  C20 UNL     1      26.232   4.732  49.241  1.00  0.00    -0.001 C 
HETATM   22  N4  UNL     1      23.361   3.804  50.124  1.00  0.00    -0.381 N 
HETATM   23  C16 UNL     1      23.034   4.425  48.864  1.00  0.00     0.148 C 
HETATM   24  H11 UNL     1      22.632   3.782  50.907  1.00  0.00     0.160 HD
HETATM   25  C17 UNL     1      23.906   5.587  48.577  1.00  0.00     0.003 C 
HETATM   26  C18 UNL     1      25.234   5.685  48.737  1.00  0.00    -0.020 C 
HETATM   27  C21 UNL     1      27.476   4.876  48.894  1.00  0.00    -0.017 C 
HETATM   28  C22 UNL     1      28.634   5.435  48.263  1.00  0.00     0.037 C 
BRANCH  26  29
HETATM   29  C19 UNL     1      25.754   7.014  48.337  1.00  0.00     0.261 C 
HETATM   30  F1  UNL     1      25.343   7.405  47.101  1.00  0.00    -0.251 F 
ENDBRANCH  26  29
ENDBRANCH  13  15
ENDBRANCH  11  13
ENDBRANCH   6   7
ENDBRANCH   4   5
TORSDOF 5
ENDMDL
MODEL 4
REMARK VINA RESULT:      -9.0      4.141      9.224
REMARK  5 active torsions:
REMARK  status: ('A' for Active; 'I' for Inactive)
REMARK    1  A    between atoms: C4_4  and  C5_5 
REMARK    2  A    between atoms: C6_6  and  C7_7 
REMARK    3  A    between atoms: C11_11  and  N1_12 
REMARK    4  A    between atoms: N1_12  and  C12_13 
REMARK    5  A    between atoms: C18_22  and  C19_23 
ROOT
HETATM    1  C1  UNL     1      19.154   0.080  52.268  1.00  0.00     0.017 C 
HETATM    2  C2  UNL     1      19.674  -0.583  53.141  1.00  0.00    -0.089 C 
HETATM    3  C3  UNL     1      20.304  -1.368  54.153  1.00  0.00     0.063 C 
HETATM    4  C4  UNL     1      21.600  -1.447  54.337  1.00  0.00     0.009 C 
ENDROOT
BRANCH   4   5
HETATM    5  C5  UNL     1      22.584  -0.726  53.509  1.00  0.00     0.001 C 
HETATM    6  C6  UNL     1      23.841  -0.561  53.877  1.00  0.00     0.011 C 
BRANCH   6   7
HETATM    7  C7  UNL     1      24.832   0.138  53.098  1.00  0.00    -0.034 A 
HETATM    8  C8  UNL     1      26.030  -0.426  52.723  1.00  0.00     0.011 A 
HETATM    9  C9  UNL     1      26.922   0.314  51.973  1.00  0.00     0.003 A 
HETATM   10  C10 UNL     1      26.586   1.590  51.624  1.00  0.00     0.029 A 
HETATM   11  C11 UNL     1      25.412   2.237  51.953  1.00  0.00     0.034 A 
HETATM   12  C23 UNL     1      24.577   1.432  52.702  1.00  0.00     0.041 A 
BRANCH  11  13
HETATM   13  N1  UNL     1      25.085   3.564  51.558  1.00  0.00    -0.339 N 
HETATM   14  H9  UNL     1      25.457   4.215  52.275  1.00  0.00     0.167 HD
BRANCH  13  15
HETATM   15  C12 UNL     1      24.363   3.884  50.385  1.00  0.00     0.158 A 
HETATM   16  N2  UNL     1      23.443   3.093  49.832  1.00  0.00    -0.222 NA
HETATM   17  C13 UNL     1      22.763   3.417  48.726  1.00  0.00     0.236 A 
HETATM   18  N3  UNL     1      22.999   4.592  48.124  1.00  0.00    -0.239 NA
HETATM   19  C14 UNL     1      23.913   5.445  48.620  1.00  0.00     0.099 A 
HETATM   20  C15 UNL     1      24.593   5.080  49.755  1.00  0.00     0.104 A 
HETATM   21  C20 UNL     1      23.960   6.653  47.759  1.00  0.00    -0.001 C 
HETATM   22  N4  UNL     1      25.590   5.897  50.338  1.00  0.00    -0.381 N 
HETATM   23  C16 UNL     1      25.658   7.335  50.426  1.00  0.00     0.148 C 
HETATM   24  H11 UNL     1      26.378   5.305  50.754  1.00  0.00     0.160 HD
HETATM   25  C17 UNL     1      25.716   7.969  49.088  1.00  0.00     0.003 C 
HETATM   26  C18 UNL     1      24.993   7.670  48.000  1.00  0.00    -0.020 C 
HETATM   27  C21 UNL     1      23.105   6.835  46.798  1.00  0.00    -0.017 C 
HETATM   28  C22 UNL     1      22.448   7.464  45.691  1.00  0.00     0.037 C 
BRANCH  26  29
HETATM   29  C19 UNL     1      25.335   8.530  46.842  1.00  0.00     0.261 C 
HETATM   30  F1  UNL     1      26.302   8.003  46.045  1.00  0.00    -0.251 F 
ENDBRANCH  26  29
ENDBRANCH  13  15
ENDBRANCH  11  13
ENDBRANCH   6   7
ENDBRANCH   4   5
TORSDOF 5
ENDMDL
MODEL 5
REMARK VINA RESULT:      -8.9      4.847      7.916
REMARK  5 active torsions:
REMARK  status: ('A' for Active; 'I' for Inactive)
REMARK    1  A    between atoms: C4_4  and  C5_5 
REMARK    2  A    between atoms: C6_6  and  C7_7 
REMARK    3  A    between atoms: C11_11  and  N1_12 
REMARK    4  A    between atoms: N1_12  and  C12_13 
REMARK    5  A    between atoms: C18_22  and  C19_23 
ROOT
HETATM    1  C1  UNL     1      28.831  -2.529  52.931  1.00  0.00     0.017 C 
HETATM    2  C2  UNL     1      29.101  -1.464  53.445  1.00  0.00    -0.089 C 
HETATM    3  C3  UNL     1      29.399  -0.202  54.042  1.00  0.00     0.063 C 
HETATM    4  C4  UNL     1      28.509   0.595  54.584  1.00  0.00     0.009 C 
ENDROOT
BRANCH   4   5
HETATM    5  C5  UNL     1      27.068   0.284  54.642  1.00  0.00     0.001 C 
HETATM    6  C6  UNL     1      26.231   0.600  53.671  1.00  0.00     0.011 C 
BRANCH   6   7
HETATM    7  C7  UNL     1      24.818   0.316  53.691  1.00  0.00    -0.034 A 
HETATM    8  C8  UNL     1      24.270  -0.727  54.402  1.00  0.00     0.011 A 
HETATM    9  C9  UNL     1      22.904  -0.926  54.368  1.00  0.00     0.003 A 
HETATM   10  C10 UNL     1      22.135  -0.075  53.627  1.00  0.00     0.029 A 
HETATM   11  C11 UNL     1      22.594   0.993  52.885  1.00  0.00     0.034 A 
HETATM   12  C23 UNL     1      23.967   1.123  52.970  1.00  0.00     0.041 A 
BRANCH  11  13
HETATM   13  N1  UNL     1      21.762   1.872  52.136  1.00  0.00    -0.339 N 
HETATM   14  H9  UNL     1      20.826   1.434  52.050  1.00  0.00     0.167 HD
BRANCH  13  15
HETATM   15  C12 UNL     1      22.193   3.112  51.611  1.00  0.00     0.158 A 
HETATM   16  N2  UNL     1      22.577   4.148  52.356  1.00  0.00    -0.222 NA
HETATM   17  C13 UNL     1      22.991   5.312  51.841  1.00  0.00     0.236 A 
HETATM   18  N3  UNL     1      23.030   5.470  50.509  1.00  0.00    -0.239 NA
HETATM   19  C14 UNL     1      22.657   4.472  49.689  1.00  0.00     0.099 A 
HETATM   20  C15 UNL     1      22.238   3.291  50.252  1.00  0.00     0.104 A 
HETATM   21  C20 UNL     1      22.804   4.924  48.284  1.00  0.00    -0.001 C 
HETATM   22  N4  UNL     1      21.802   2.193  49.475  1.00  0.00    -0.381 N 
HETATM   23  C16 UNL     1      22.277   1.734  48.193  1.00  0.00     0.148 C 
HETATM   24  H11 UNL     1      21.004   1.670  49.961  1.00  0.00     0.160 HD
HETATM   25  C17 UNL     1      22.078   2.749  47.133  1.00  0.00     0.003 C 
HETATM   26  C18 UNL     1      22.312   4.067  47.196  1.00  0.00    -0.020 C 
HETATM   27  C21 UNL     1      23.363   6.059  47.991  1.00  0.00    -0.017 C 
HETATM   28  C22 UNL     1      23.864   7.140  47.194  1.00  0.00     0.037 C 
BRANCH  26  29
HETATM   29  C19 UNL     1      21.990   4.759  45.925  1.00  0.00     0.261 C 
HETATM   30  F1  UNL     1      21.484   3.930  44.973  1.00  0.00    -0.251 F 
ENDBRANCH  26  29
ENDBRANCH  13  15
ENDBRANCH  11  13
ENDBRANCH   6   7
ENDBRANCH   4   5
TORSDOF 5
ENDMDL
MODEL 6
REMARK VINA RESULT:      -8.9      4.083      7.934
REMARK  5 active torsions:
REMARK  status: ('A' for Active; 'I' for Inactive)
REMARK    1  A    between atoms: C4_4  and  C5_5 
REMARK    2  A    between atoms: C6_6  and  C7_7 
REMARK    3  A    between atoms: C11_11  and  N1_12 
REMARK    4  A    between atoms: N1_12  and  C12_13 
REMARK    5  A    between atoms: C18_22  and  C19_23 
ROOT
HETATM    1  C1  UNL     1      26.443   2.478  51.217  1.00  0.00     0.017 C 
HETATM    2  C2  UNL     1      26.839   1.512  51.835  1.00  0.00    -0.089 C 
HETATM    3  C3  UNL     1      27.286   0.376  52.576  1.00  0.00     0.063 C 
HETATM    4  C4  UNL     1      26.497  -0.539  53.085  1.00  0.00     0.009 C 
ENDROOT
BRANCH   4   5
HETATM    5  C5  UNL     1      25.028  -0.509  52.957  1.00  0.00     0.001 C 
HETATM    6  C6  UNL     1      24.221  -0.557  54.000  1.00  0.00     0.011 C 
BRANCH   6   7
HETATM    7  C7  UNL     1      22.781  -0.532  53.917  1.00  0.00    -0.034 A 
HETATM    8  C8  UNL     1      21.986  -1.579  54.325  1.00  0.00     0.011 A 
HETATM    9  C9  UNL     1      20.614  -1.470  54.214  1.00  0.00     0.003 A 
HETATM   10  C10 UNL     1      20.086  -0.320  53.701  1.00  0.00     0.029 A 
HETATM   11  C11 UNL     1      20.802   0.777  53.269  1.00  0.00     0.034 A 
HETATM   12  C23 UNL     1      22.163   0.589  53.412  1.00  0.00     0.041 A 
BRANCH  11  13
HETATM   13  N1  UNL     1      20.219   1.970  52.755  1.00  0.00    -0.339 N 
HETATM   14  H9  UNL     1      19.700   2.432  53.526  1.00  0.00     0.167 HD
BRANCH  13  15
HETATM   15  C12 UNL     1      20.345   2.397  51.413  1.00  0.00     0.158 A 
HETATM   16  N2  UNL     1      19.579   1.961  50.413  1.00  0.00    -0.222 NA
HETATM   17  C13 UNL     1      19.708   2.384  49.150  1.00  0.00     0.236 A 
HETATM   18  N3  UNL     1      20.647   3.292  48.848  1.00  0.00    -0.239 NA
HETATM   19  C14 UNL     1      21.461   3.779  49.801  1.00  0.00     0.099 A 
HETATM   20  C15 UNL     1      21.302   3.323  51.087  1.00  0.00     0.104 A 
HETATM   21  C20 UNL     1      22.390   4.758  49.186  1.00  0.00    -0.001 C 
HETATM   22  N4  UNL     1      22.124   3.756  52.153  1.00  0.00    -0.381 N 
HETATM   23  C16 UNL     1      22.704   5.054  52.391  1.00  0.00     0.148 C 
HETATM   24  H11 UNL     1      22.306   2.961  52.847  1.00  0.00     0.160 HD
HETATM   25  C17 UNL     1      23.644   5.446  51.316  1.00  0.00     0.003 C 
HETATM   26  C18 UNL     1      23.485   5.318  49.991  1.00  0.00    -0.020 C 
HETATM   27  C21 UNL     1      22.257   5.136  47.950  1.00  0.00    -0.017 C 
HETATM   28  C22 UNL     1      22.525   5.829  46.725  1.00  0.00     0.037 C 
BRANCH  26  29
HETATM   29  C19 UNL     1      24.650   5.829  49.230  1.00  0.00     0.261 C 
HETATM   30  F1  UNL     1      25.451   4.844  48.744  1.00  0.00    -0.251 F 
ENDBRANCH  26  29
ENDBRANCH  13  15
ENDBRANCH  11  13
ENDBRANCH   6   7
ENDBRANCH   4   5
TORSDOF 5
ENDMDL
MODEL 7
REMARK VINA RESULT:      -8.9      3.343      7.909
REMARK  5 active torsions:
REMARK  status: ('A' for Active; 'I' for Inactive)
REMARK    1  A    between atoms: C4_4  and  C5_5 
REMARK    2  A    between atoms: C6_6  and  C7_7 
REMARK    3  A    between atoms: C11_11  and  N1_12 
REMARK    4  A    between atoms: N1_12  and  C12_13 
REMARK    5  A    between atoms: C18_22  and  C19_23 
ROOT
HETATM    1  C1  UNL     1      28.135  -2.605  52.761  1.00  0.00     0.017 C 
HETATM    2  C2  UNL     1      28.736  -1.664  53.237  1.00  0.00    -0.089 C 
HETATM    3  C3  UNL     1      29.429  -0.542  53.784  1.00  0.00     0.063 C 
HETATM    4  C4  UNL     1      28.875   0.613  54.063  1.00  0.00     0.009 C 
ENDROOT
BRANCH   4   5
HETATM    5  C5  UNL     1      27.446   0.903  53.842  1.00  0.00     0.001 C 
HETATM    6  C6  UNL     1      27.011   1.584  52.797  1.00  0.00     0.011 C 
BRANCH   6   7
HETATM    7  C7  UNL     1      25.625   1.891  52.545  1.00  0.00    -0.034 A 
HETATM    8  C8  UNL     1      24.589   1.314  53.242  1.00  0.00     0.011 A 
HETATM    9  C9  UNL     1      23.289   1.668  52.938  1.00  0.00     0.003 A 
HETATM   10  C10 UNL     1      23.072   2.586  51.951  1.00  0.00     0.029 A 
HETATM   11  C11 UNL     1      24.045   3.215  51.202  1.00  0.00     0.034 A 
HETATM   12  C23 UNL     1      25.314   2.806  51.565  1.00  0.00     0.041 A 
BRANCH  11  13
HETATM   13  N1  UNL     1      23.785   4.181  50.190  1.00  0.00    -0.339 N 
HETATM   14  H9  UNL     1      23.239   3.721  49.438  1.00  0.00     0.167 HD
BRANCH  13  15
HETATM   15  C12 UNL     1      24.231   5.522  50.245  1.00  0.00     0.158 A 
HETATM   16  N2  UNL     1      23.566   6.508  50.848  1.00  0.00    -0.222 NA
HETATM   17  C13 UNL     1      24.009   7.770  50.898  1.00  0.00     0.236 A 
HETATM   18  N3  UNL     1      25.177   8.086  50.319  1.00  0.00    -0.239 NA
HETATM   19  C14 UNL     1      25.906   7.147  49.689  1.00  0.00     0.099 A 
HETATM   20  C15 UNL     1      25.422   5.862  49.657  1.00  0.00     0.104 A 
HETATM   21  C20 UNL     1      27.137   7.776  49.151  1.00  0.00    -0.001 C 
HETATM   22  N4  UNL     1      26.102   4.811  48.998  1.00  0.00    -0.381 N 
HETATM   23  C16 UNL     1      27.519   4.576  48.875  1.00  0.00     0.148 C 
HETATM   24  H11 UNL     1      25.412   4.129  48.547  1.00  0.00     0.160 HD
HETATM   25  C17 UNL     1      28.200   5.669  48.144  1.00  0.00     0.003 C 
HETATM   26  C18 UNL     1      28.027   6.991  48.284  1.00  0.00    -0.020 C 
HETATM   27  C21 UNL     1      27.451   9.005  49.433  1.00  0.00    -0.017 C 
HETATM   28  C22 UNL     1      28.194  10.230  49.439  1.00  0.00     0.037 C 
BRANCH  26  29
HETATM   29  C19 UNL     1      28.896   7.774  47.373  1.00  0.00     0.261 C 
HETATM   30  F1  UNL     1      30.175   7.895  47.818  1.00  0.00    -0.251 F 
ENDBRANCH  26  29
ENDBRANCH  13  15
ENDBRANCH  11  13
ENDBRANCH   6   7
ENDBRANCH   4   5
TORSDOF 5
ENDMDL
MODEL 8
REMARK VINA RESULT:      -8.6      3.706      6.320
REMARK  5 active torsions:
REMARK  status: ('A' for Active; 'I' for Inactive)
REMARK    1  A    between atoms: C4_4  and  C5_5 
REMARK    2  A    between atoms: C6_6  and  C7_7 
REMARK    3  A    between atoms: C11_11  and  N1_12 
REMARK    4  A    between atoms: N1_12  and  C12_13 
REMARK    5  A    between atoms: C18_22  and  C19_23 
ROOT
HETATM    1  C1  UNL     1      24.479  -0.878  54.581  1.00  0.00     0.017 C 
HETATM    2  C2  UNL     1      25.560  -0.891  54.030  1.00  0.00    -0.089 C 
HETATM    3  C3  UNL     1      26.822  -0.902  53.361  1.00  0.00     0.063 C 
HETATM    4  C4  UNL     1      27.146  -0.109  52.368  1.00  0.00     0.009 C 
ENDROOT
BRANCH   4   5
HETATM    5  C5  UNL     1      26.234   0.907  51.809  1.00  0.00     0.001 C 
HETATM    6  C6  UNL     1      26.663   2.053  51.313  1.00  0.00     0.011 C 
BRANCH   6   7
HETATM    7  C7  UNL     1      25.807   3.072  50.759  1.00  0.00    -0.034 A 
HETATM    8  C8  UNL     1      26.199   3.916  49.746  1.00  0.00     0.011 A 
HETATM    9  C9  UNL     1      25.313   4.863  49.272  1.00  0.00     0.003 A 
HETATM   10  C10 UNL     1      24.067   4.931  49.825  1.00  0.00     0.029 A 
HETATM   11  C11 UNL     1      23.587   4.130  50.840  1.00  0.00     0.034 A 
HETATM   12  C23 UNL     1      24.532   3.213  51.259  1.00  0.00     0.041 A 
BRANCH  11  13
HETATM   13  N1  UNL     1      22.274   4.216  51.384  1.00  0.00    -0.339 N 
HETATM   14  H9  UNL     1      22.333   4.721  52.289  1.00  0.00     0.167 HD
BRANCH  13  15
HETATM   15  C12 UNL     1      21.124   3.678  50.762  1.00  0.00     0.158 A 
HETATM   16  N2  UNL     1      20.522   4.220  49.704  1.00  0.00    -0.222 NA
HETATM   17  C13 UNL     1      19.439   3.690  49.123  1.00  0.00     0.236 A 
HETATM   18  N3  UNL     1      18.913   2.557  49.611  1.00  0.00    -0.239 NA
HETATM   19  C14 UNL     1      19.462   1.950  50.677  1.00  0.00     0.099 A 
HETATM   20  C15 UNL     1      20.573   2.521  51.249  1.00  0.00     0.104 A 
HETATM   21  C20 UNL     1      18.680   0.729  50.991  1.00  0.00    -0.001 C 
HETATM   22  N4  UNL     1      21.207   1.972  52.388  1.00  0.00    -0.381 N 
HETATM   23  C16 UNL     1      21.386   0.590  52.757  1.00  0.00     0.148 C 
HETATM   24  H11 UNL     1      21.585   2.743  53.027  1.00  0.00     0.160 HD
HETATM   25  C17 UNL     1      20.092  -0.100  52.967  1.00  0.00     0.003 C 
HETATM   26  C18 UNL     1      18.986  -0.029  52.212  1.00  0.00    -0.020 C 
HETATM   27  C21 UNL     1      17.732   0.310  50.207  1.00  0.00    -0.017 C 
HETATM   28  C22 UNL     1      16.668  -0.513  49.714  1.00  0.00     0.037 C 
BRANCH  26  29
HETATM   29  C19 UNL     1      17.886  -0.868  52.745  1.00  0.00     0.261 C 
HETATM   30  F1  UNL     1      18.280  -2.125  53.081  1.00  0.00    -0.251 F 
ENDBRANCH  26  29
ENDBRANCH  13  15
ENDBRANCH  11  13
ENDBRANCH   6   7
ENDBRANCH   4   5
TORSDOF 5
ENDMDL
MODEL 9
REMARK VINA RESULT:      -8.6      3.394      9.898
REMARK  5 active torsions:
REMARK  status: ('A' for Active; 'I' for Inactive)
REMARK    1  A    between atoms: C4_4  and  C5_5 
REMARK    2  A    between atoms: C6_6  and  C7_7 
REMARK    3  A    between atoms: C11_11  and  N1_12 
REMARK    4  A    between atoms: N1_12  and  C12_13 
REMARK    5  A    between atoms: C18_22  and  C19_23 
ROOT
HETATM    1  C1  UNL     1      17.443  -2.711  53.488  1.00  0.00     0.017 C 
HETATM    2  C2  UNL     1      17.169  -1.870  52.657  1.00  0.00    -0.089 C 
HETATM    3  C3  UNL     1      16.858  -0.863  51.693  1.00  0.00     0.063 C 
HETATM    4  C4  UNL     1      17.640   0.145  51.390  1.00  0.00     0.009 C 
ENDROOT
BRANCH   4   5
HETATM    5  C5  UNL     1      18.955   0.370  52.017  1.00  0.00     0.001 C 
HETATM    6  C6  UNL     1      20.088   0.295  51.342  1.00  0.00     0.011 C 
BRANCH   6   7
HETATM    7  C7  UNL     1      21.393   0.506  51.916  1.00  0.00    -0.034 A 
HETATM    8  C8  UNL     1      22.079  -0.468  52.604  1.00  0.00     0.011 A 
HETATM    9  C9  UNL     1      23.328  -0.182  53.120  1.00  0.00     0.003 A 
HETATM   10  C10 UNL     1      23.847   1.066  52.928  1.00  0.00     0.029 A 
HETATM   11  C11 UNL     1      23.235   2.102  52.254  1.00  0.00     0.034 A 
HETATM   12  C23 UNL     1      21.993   1.737  51.772  1.00  0.00     0.041 A 
BRANCH  11  13
HETATM   13  N1  UNL     1      23.812   3.388  52.057  1.00  0.00    -0.339 N 
HETATM   14  H9  UNL     1      23.372   4.045  52.729  1.00  0.00     0.167 HD
BRANCH  13  15
HETATM   15  C12 UNL     1      24.802   3.670  51.088  1.00  0.00     0.158 A 
HETATM   16  N2  UNL     1      25.518   2.740  50.455  1.00  0.00    -0.222 NA
HETATM   17  C13 UNL     1      26.445   3.026  49.533  1.00  0.00     0.236 A 
HETATM   18  N3  UNL     1      26.686   4.305  49.211  1.00  0.00    -0.239 NA
HETATM   19  C14 UNL     1      26.007   5.302  49.807  1.00  0.00     0.099 A 
HETATM   20  C15 UNL     1      25.063   4.973  50.748  1.00  0.00     0.104 A 
HETATM   21  C20 UNL     1      26.476   6.598  49.258  1.00  0.00    -0.001 C 
HETATM   22  N4  UNL     1      24.315   5.949  51.447  1.00  0.00    -0.381 N 
HETATM   23  C16 UNL     1      23.813   7.219  50.985  1.00  0.00     0.148 C 
HETATM   24  H11 UNL     1      24.130   5.643  52.455  1.00  0.00     0.160 HD
HETATM   25  C17 UNL     1      24.906   8.134  50.583  1.00  0.00     0.003 C 
HETATM   26  C18 UNL     1      25.998   7.850  49.860  1.00  0.00    -0.020 C 
HETATM   27  C21 UNL     1      27.299   6.652  48.254  1.00  0.00    -0.017 C 
HETATM   28  C22 UNL     1      28.139   7.216  47.239  1.00  0.00     0.037 C 
BRANCH  26  29
HETATM   29  C19 UNL     1      26.868   9.035  49.662  1.00  0.00     0.261 C 
HETATM   30  F1  UNL     1      27.365   9.538  50.823  1.00  0.00    -0.251 F 
ENDBRANCH  26  29
ENDBRANCH  13  15
ENDBRANCH  11  13
ENDBRANCH   6   7
ENDBRANCH   4   5
TORSDOF 5
ENDMDL
