MODEL 1
REMARK VINA RESULT:      -8.5      0.000      0.000
REMARK  6 active torsions:
REMARK  status: ('A' for Active; 'I' for Inactive)
REMARK    1  A    between atoms: N1_2  and  C3_4 
REMARK    2  A    between atoms: C3_4  and  C4_5 
REMARK    3  A    between atoms: C5_6  and  C6_7 
REMARK    4  A    between atoms: C6_7  and  N2_8 
REMARK    5  A    between atoms: N2_8  and  C7_9 
REMARK    6  A    between atoms: N5_19  and  C15_20 
ROOT
HETATM    1  C7  UNL     1      25.954   4.568  49.317  1.00  0.00     0.123 A 
HETATM    2  C8  UNL     1      26.684   3.721  50.054  1.00  0.00     0.052 A 
HETATM    3  C9  UNL     1      26.230   2.692  50.996  1.00  0.00     0.036 A 
HETATM    4  C10 UNL     1      24.979   2.388  51.313  1.00  0.00     0.071 A 
HETATM    5  C11 UNL     1      23.719   2.953  50.847  1.00  0.00     0.101 A 
HETATM    6  N3  UNL     1      22.593   2.502  51.290  1.00  0.00    -0.254 NA
HETATM    7  C12 UNL     1      22.547   1.430  52.254  1.00  0.00     0.159 A 
HETATM    8  C13 UNL     1      23.694   0.905  52.690  1.00  0.00     0.139 A 
HETATM    9  C14 UNL     1      23.564  -0.169  53.660  1.00  0.00     0.119 C 
HETATM   10  N4  UNL     1      23.448  -1.034  54.423  1.00  0.00    -0.190 NA
HETATM   11  N5  UNL     1      24.999   1.329  52.265  1.00  0.00    -0.299 N 
HETATM   12  C21 UNL     1      23.598   4.039  49.875  1.00  0.00     0.152 A 
HETATM   13  N6  UNL     1      24.538   4.689  49.256  1.00  0.00    -0.241 NA
ENDROOT
BRANCH  11  14
HETATM   14  C15 UNL     1      26.162   0.703  52.788  1.00  0.00     0.042 A 
HETATM   15  C16 UNL     1      26.943   1.462  53.656  1.00  0.00     0.033 A 
HETATM   16  C17 UNL     1      28.085   0.991  54.233  1.00  0.00     0.046 A 
HETATM   17  C18 UNL     1      28.512  -0.298  53.962  1.00  0.00     0.138 A 
HETATM   18  F1  UNL     1      29.639  -0.799  54.518  1.00  0.00    -0.204 F 
HETATM   19  C19 UNL     1      27.755  -1.062  53.110  1.00  0.00     0.074 A 
HETATM   20 CL1  UNL     1      28.216  -2.712  52.705  1.00  0.00    -0.081 Cl
HETATM   21  C20 UNL     1      26.588  -0.598  52.512  1.00  0.00     0.057 A 
ENDBRANCH  11  14
BRANCH   1  22
HETATM   22  N2  UNL     1      26.657   5.488  48.463  1.00  0.00    -0.371 N 
HETATM   23  H13 UNL     1      26.002   6.156  48.000  1.00  0.00     0.161 HD
BRANCH  22  24
HETATM   24  C6  UNL     1      28.087   5.225  48.490  1.00  0.00     0.148 C 
BRANCH  24  25
HETATM   25  C5  UNL     1      28.903   6.274  47.872  1.00  0.00    -0.010 C 
HETATM   26  C4  UNL     1      30.186   6.584  47.991  1.00  0.00     0.000 C 
BRANCH  26  27
HETATM   27  C3  UNL     1      31.124   5.839  48.871  1.00  0.00     0.298 C 
BRANCH  27  28
HETATM   28  N1  UNL     1      32.319   5.506  48.122  1.00  0.00     0.083 N 
HETATM   29  C1  UNL     1      32.384   4.112  47.751  1.00  0.00     0.309 C 
HETATM   30  C2  UNL     1      33.521   5.939  48.809  1.00  0.00     0.309 C 
ENDBRANCH  27  28
ENDBRANCH  26  27
ENDBRANCH  24  25
ENDBRANCH  22  24
ENDBRANCH   1  22
TORSDOF 6
ENDMDL
MODEL 2
REMARK VINA RESULT:      -8.4      4.397      8.789
REMARK  6 active torsions:
REMARK  status: ('A' for Active; 'I' for Inactive)
REMARK    1  A    between atoms: N1_2  and  C3_4 
REMARK    2  A    between atoms: C3_4  and  C4_5 
REMARK    3  A    between atoms: C5_6  and  C6_7 
REMARK    4  A    between atoms: C6_7  and  N2_8 
REMARK    5  A    between atoms: N2_8  and  C7_9 
REMARK    6  A    between atoms: N5_19  and  C15_20 
ROOT
HETATM    1  C7  UNL     1      21.586  -0.987  54.023  1.00  0.00     0.123 A 
HETATM    2  C8  UNL     1      21.947  -0.008  53.184  1.00  0.00     0.052 A 
HETATM    3  C9  UNL     1      23.252   0.644  53.035  1.00  0.00     0.036 A 
HETATM    4  C10 UNL     1      24.361   0.390  53.715  1.00  0.00     0.071 A 
HETATM    5  C11 UNL     1      24.621  -0.574  54.778  1.00  0.00     0.101 A 
HETATM    6  N3  UNL     1      25.792  -0.662  55.313  1.00  0.00    -0.254 NA
HETATM    7  C12 UNL     1      26.875   0.187  54.880  1.00  0.00     0.159 A 
HETATM    8  C13 UNL     1      26.650   1.075  53.908  1.00  0.00     0.139 A 
HETATM    9  C14 UNL     1      27.790   1.892  53.529  1.00  0.00     0.119 C 
HETATM   10  N4  UNL     1      28.710   2.529  53.225  1.00  0.00    -0.190 NA
HETATM   11  N5  UNL     1      25.389   1.256  53.245  1.00  0.00    -0.299 N 
HETATM   12  C21 UNL     1      23.631  -1.501  55.325  1.00  0.00     0.152 A 
HETATM   13  N6  UNL     1      22.384  -1.652  54.996  1.00  0.00    -0.241 NA
ENDROOT
BRANCH  11  14
HETATM   14  C15 UNL     1      25.252   2.229  52.220  1.00  0.00     0.042 A 
HETATM   15  C16 UNL     1      25.981   2.015  51.053  1.00  0.00     0.033 A 
HETATM   16  C17 UNL     1      25.946   2.865  49.988  1.00  0.00     0.046 A 
HETATM   17  C18 UNL     1      25.157   4.001  50.040  1.00  0.00     0.138 A 
HETATM   18  F1  UNL     1      25.095   4.866  49.002  1.00  0.00    -0.204 F 
HETATM   19  C19 UNL     1      24.430   4.229  51.181  1.00  0.00     0.074 A 
HETATM   20 CL1  UNL     1      23.398   5.647  51.342  1.00  0.00    -0.081 Cl
HETATM   21  C20 UNL     1      24.454   3.374  52.278  1.00  0.00     0.057 A 
ENDBRANCH  11  14
BRANCH   1  22
HETATM   22  N2  UNL     1      20.226  -1.451  53.964  1.00  0.00    -0.371 N 
HETATM   23  H13 UNL     1      20.162  -2.471  54.178  1.00  0.00     0.161 HD
BRANCH  22  24
HETATM   24  C6  UNL     1      19.325  -0.362  53.621  1.00  0.00     0.148 C 
BRANCH  24  25
HETATM   25  C5  UNL     1      18.341  -0.699  52.589  1.00  0.00    -0.010 C 
HETATM   26  C4  UNL     1      18.187  -0.279  51.341  1.00  0.00     0.000 C 
BRANCH  26  27
HETATM   27  C3  UNL     1      19.086   0.717  50.703  1.00  0.00     0.298 C 
BRANCH  27  28
HETATM   28  N1  UNL     1      18.329   1.914  50.393  1.00  0.00     0.083 N 
HETATM   29  C1  UNL     1      18.711   2.516  49.137  1.00  0.00     0.309 C 
HETATM   30  C2  UNL     1      18.366   2.869  51.485  1.00  0.00     0.309 C 
ENDBRANCH  27  28
ENDBRANCH  26  27
ENDBRANCH  24  25
ENDBRANCH  22  24
ENDBRANCH   1  22
TORSDOF 6
ENDMDL
MODEL 3
REMARK VINA RESULT:      -8.4      4.353      9.815
REMARK  6 active torsions:
REMARK  status: ('A' for Active; 'I' for Inactive)
REMARK    1  A    between atoms: N1_2  and  C3_4 
REMARK    2  A    between atoms: C3_4  and  C4_5 
REMARK    3  A    between atoms: C5_6  and  C6_7 
REMARK    4  A    between atoms: C6_7  and  N2_8 
REMARK    5  A    between atoms: N2_8  and  C7_9 
REMARK    6  A    between atoms: N5_19  and  C15_20 
ROOT
HETATM    1  C7  UNL     1      20.497  -0.506  53.429  1.00  0.00     0.123 A 
HETATM    2  C8  UNL     1      21.786  -0.658  53.757  1.00  0.00     0.052 A 
HETATM    3  C9  UNL     1      22.964   0.019  53.204  1.00  0.00     0.036 A 
HETATM    4  C10 UNL     1      22.989   0.937  52.248  1.00  0.00     0.071 A 
HETATM    5  C11 UNL     1      21.904   1.537  51.480  1.00  0.00     0.101 A 
HETATM    6  N3  UNL     1      22.150   2.430  50.582  1.00  0.00    -0.254 NA
HETATM    7  C12 UNL     1      23.499   2.861  50.310  1.00  0.00     0.159 A 
HETATM    8  C13 UNL     1      24.502   2.320  51.005  1.00  0.00     0.139 A 
HETATM    9  C14 UNL     1      25.830   2.807  50.673  1.00  0.00     0.119 C 
HETATM   10  N4  UNL     1      26.884   3.213  50.409  1.00  0.00    -0.190 NA
HETATM   11  N5  UNL     1      24.342   1.322  52.025  1.00  0.00    -0.299 N 
HETATM   12  C21 UNL     1      20.488   1.206  51.637  1.00  0.00     0.152 A 
HETATM   13  N6  UNL     1      19.932   0.359  52.450  1.00  0.00    -0.241 NA
ENDROOT
BRANCH  11  14
HETATM   14  C15 UNL     1      25.475   0.809  52.710  1.00  0.00     0.042 A 
HETATM   15  C16 UNL     1      25.970   1.574  53.763  1.00  0.00     0.033 A 
HETATM   16  C17 UNL     1      27.049   1.205  54.508  1.00  0.00     0.046 A 
HETATM   17  C18 UNL     1      27.705   0.019  54.228  1.00  0.00     0.138 A 
HETATM   18  F1  UNL     1      28.779  -0.381  54.947  1.00  0.00    -0.204 F 
HETATM   19  C19 UNL     1      27.233  -0.751  53.195  1.00  0.00     0.074 A 
HETATM   20 CL1  UNL     1      28.001  -2.276  52.763  1.00  0.00    -0.081 Cl
HETATM   21  C20 UNL     1      26.133  -0.390  52.423  1.00  0.00     0.057 A 
ENDBRANCH  11  14
BRANCH   1  22
HETATM   22  N2  UNL     1      19.529  -1.303  54.134  1.00  0.00    -0.371 N 
HETATM   23  H13 UNL     1      19.860  -1.543  55.094  1.00  0.00     0.161 HD
BRANCH  22  24
HETATM   24  C6  UNL     1      18.360  -1.547  53.304  1.00  0.00     0.148 C 
BRANCH  24  25
HETATM   25  C5  UNL     1      17.726  -2.849  53.527  1.00  0.00    -0.010 C 
HETATM   26  C4  UNL     1      16.555  -3.341  53.147  1.00  0.00     0.000 C 
BRANCH  26  27
HETATM   27  C3  UNL     1      15.574  -2.572  52.339  1.00  0.00     0.298 C 
BRANCH  27  28
HETATM   28  N1  UNL     1      14.418  -3.403  52.070  1.00  0.00     0.083 N 
HETATM   29  C1  UNL     1      14.761  -4.676  51.480  1.00  0.00     0.309 C 
HETATM   30  C2  UNL     1      13.418  -2.697  51.292  1.00  0.00     0.309 C 
ENDBRANCH  27  28
ENDBRANCH  26  27
ENDBRANCH  24  25
ENDBRANCH  22  24
ENDBRANCH   1  22
TORSDOF 6
ENDMDL
MODEL 4
REMARK VINA RESULT:      -8.3      4.515     10.177
REMARK  6 active torsions:
REMARK  status: ('A' for Active; 'I' for Inactive)
REMARK    1  A    between atoms: N1_2  and  C3_4 
REMARK    2  A    between atoms: C3_4  and  C4_5 
REMARK    3  A    between atoms: C5_6  and  C6_7 
REMARK    4  A    between atoms: C6_7  and  N2_8 
REMARK    5  A    between atoms: N2_8  and  C7_9 
REMARK    6  A    between atoms: N5_19  and  C15_20 
ROOT
HETATM    1  C7  UNL     1      21.723  -1.062  54.305  1.00  0.00     0.123 A 
HETATM    2  C8  UNL     1      22.026  -0.090  53.435  1.00  0.00     0.052 A 
HETATM    3  C9  UNL     1      23.309   0.586  53.219  1.00  0.00     0.036 A 
HETATM    4  C10 UNL     1      24.451   0.366  53.854  1.00  0.00     0.071 A 
HETATM    5  C11 UNL     1      24.778  -0.575  54.918  1.00  0.00     0.101 A 
HETATM    6  N3  UNL     1      25.973  -0.630  55.404  1.00  0.00    -0.254 NA
HETATM    7  C12 UNL     1      27.017   0.234  54.910  1.00  0.00     0.159 A 
HETATM    8  C13 UNL     1      26.732   1.100  53.936  1.00  0.00     0.139 A 
HETATM    9  C14 UNL     1      27.836   1.934  53.494  1.00  0.00     0.119 C 
HETATM   10  N4  UNL     1      28.728   2.585  53.140  1.00  0.00    -0.190 NA
HETATM   11  N5  UNL     1      25.440   1.245  53.325  1.00  0.00    -0.299 N 
HETATM   12  C21 UNL     1      23.833  -1.514  55.523  1.00  0.00     0.152 A 
HETATM   13  N6  UNL     1      22.576  -1.696  55.252  1.00  0.00    -0.241 NA
ENDROOT
BRANCH  11  14
HETATM   14  C15 UNL     1      25.237   2.198  52.292  1.00  0.00     0.042 A 
HETATM   15  C16 UNL     1      25.906   1.971  51.092  1.00  0.00     0.033 A 
HETATM   16  C17 UNL     1      25.805   2.802  50.016  1.00  0.00     0.046 A 
HETATM   17  C18 UNL     1      25.006   3.930  50.090  1.00  0.00     0.138 A 
HETATM   18  F1  UNL     1      24.880   4.776  49.042  1.00  0.00    -0.204 F 
HETATM   19  C19 UNL     1      24.338   4.170  51.265  1.00  0.00     0.074 A 
HETATM   20 CL1  UNL     1      23.299   5.579  51.455  1.00  0.00    -0.081 Cl
HETATM   21  C20 UNL     1      24.429   3.335  52.373  1.00  0.00     0.057 A 
ENDBRANCH  11  14
BRANCH   1  22
HETATM   22  N2  UNL     1      20.371  -1.556  54.313  1.00  0.00    -0.371 N 
HETATM   23  H13 UNL     1      20.183  -2.138  55.158  1.00  0.00     0.161 HD
BRANCH  22  24
HETATM   24  C6  UNL     1      19.650  -1.099  53.135  1.00  0.00     0.148 C 
BRANCH  24  25
HETATM   25  C5  UNL     1      18.196  -1.033  53.309  1.00  0.00    -0.010 C 
HETATM   26  C4  UNL     1      17.277  -1.978  53.449  1.00  0.00     0.000 C 
BRANCH  26  27
HETATM   27  C3  UNL     1      17.598  -3.429  53.453  1.00  0.00     0.298 C 
BRANCH  27  28
HETATM   28  N1  UNL     1      16.411  -4.182  53.099  1.00  0.00     0.083 N 
HETATM   29  C1  UNL     1      15.353  -3.355  52.566  1.00  0.00     0.309 C 
HETATM   30  C2  UNL     1      15.951  -5.007  54.199  1.00  0.00     0.309 C 
ENDBRANCH  27  28
ENDBRANCH  26  27
ENDBRANCH  24  25
ENDBRANCH  22  24
ENDBRANCH   1  22
TORSDOF 6
ENDMDL
MODEL 5
REMARK VINA RESULT:      -8.2      1.579      2.192
REMARK  6 active torsions:
REMARK  status: ('A' for Active; 'I' for Inactive)
REMARK    1  A    between atoms: N1_2  and  C3_4 
REMARK    2  A    between atoms: C3_4  and  C4_5 
REMARK    3  A    between atoms: C5_6  and  C6_7 
REMARK    4  A    between atoms: C6_7  and  N2_8 
REMARK    5  A    between atoms: N2_8  and  C7_9 
REMARK    6  A    between atoms: N5_19  and  C15_20 
ROOT
HETATM    1  C7  UNL     1      26.048   4.655  49.219  1.00  0.00     0.123 A 
HETATM    2  C8  UNL     1      26.726   3.795  49.990  1.00  0.00     0.052 A 
HETATM    3  C9  UNL     1      26.209   2.775  50.908  1.00  0.00     0.036 A 
HETATM    4  C10 UNL     1      24.939   2.493  51.165  1.00  0.00     0.071 A 
HETATM    5  C11 UNL     1      23.713   3.080  50.640  1.00  0.00     0.101 A 
HETATM    6  N3  UNL     1      22.559   2.650  51.028  1.00  0.00    -0.254 NA
HETATM    7  C12 UNL     1      22.448   1.580  51.988  1.00  0.00     0.159 A 
HETATM    8  C13 UNL     1      23.564   1.034  52.478  1.00  0.00     0.139 A 
HETATM    9  C14 UNL     1      23.368  -0.037  53.440  1.00  0.00     0.119 C 
HETATM   10  N4  UNL     1      23.200  -0.900  54.197  1.00  0.00    -0.190 NA
HETATM   11  N5  UNL     1      24.895   1.434  52.117  1.00  0.00    -0.299 N 
HETATM   12  C21 UNL     1      23.659   4.168  49.663  1.00  0.00     0.152 A 
HETATM   13  N6  UNL     1      24.638   4.801  49.091  1.00  0.00    -0.241 NA
ENDROOT
BRANCH  11  14
HETATM   14  C15 UNL     1      26.020   0.788  52.694  1.00  0.00     0.042 A 
HETATM   15  C16 UNL     1      26.760   1.526  53.615  1.00  0.00     0.033 A 
HETATM   16  C17 UNL     1      27.862   1.034  54.247  1.00  0.00     0.046 A 
HETATM   17  C18 UNL     1      28.290  -0.256  53.982  1.00  0.00     0.138 A 
HETATM   18  F1  UNL     1      29.378  -0.778  54.592  1.00  0.00    -0.204 F 
HETATM   19  C19 UNL     1      27.573  -0.999  53.079  1.00  0.00     0.074 A 
HETATM   20 CL1  UNL     1      28.038  -2.649  52.676  1.00  0.00    -0.081 Cl
HETATM   21  C20 UNL     1      26.446  -0.514  52.423  1.00  0.00     0.057 A 
ENDBRANCH  11  14
BRANCH   1  22
HETATM   22  N2  UNL     1      26.807   5.562  48.401  1.00  0.00    -0.371 N 
HETATM   23  H13 UNL     1      26.184   6.207  47.867  1.00  0.00     0.161 HD
BRANCH  22  24
HETATM   24  C6  UNL     1      28.233   5.321  48.552  1.00  0.00     0.148 C 
BRANCH  24  25
HETATM   25  C5  UNL     1      29.080   6.198  47.739  1.00  0.00    -0.010 C 
HETATM   26  C4  UNL     1      29.041   7.503  47.508  1.00  0.00     0.000 C 
BRANCH  26  27
HETATM   27  C3  UNL     1      28.016   8.401  48.099  1.00  0.00     0.298 C 
BRANCH  27  28
HETATM   28  N1  UNL     1      28.526   8.960  49.336  1.00  0.00     0.083 N 
HETATM   29  C1  UNL     1      27.482   9.351  50.253  1.00  0.00     0.309 C 
HETATM   30  C2  UNL     1      29.464  10.038  49.091  1.00  0.00     0.309 C 
ENDBRANCH  27  28
ENDBRANCH  26  27
ENDBRANCH  24  25
ENDBRANCH  22  24
ENDBRANCH   1  22
TORSDOF 6
ENDMDL
MODEL 6
REMARK VINA RESULT:      -7.9      3.314      3.998
REMARK  6 active torsions:
REMARK  status: ('A' for Active; 'I' for Inactive)
REMARK    1  A    between atoms: N1_2  and  C3_4 
REMARK    2  A    between atoms: C3_4  and  C4_5 
REMARK    3  A    between atoms: C5_6  and  C6_7 
REMARK    4  A    between atoms: C6_7  and  N2_8 
REMARK    5  A    between atoms: N2_8  and  C7_9 
REMARK    6  A    between atoms: N5_19  and  C15_20 
ROOT
HETATM    1  C7  UNL     1      22.697   3.233  49.249  1.00  0.00     0.123 A 
HETATM    2  C8  UNL     1      23.764   2.712  49.868  1.00  0.00     0.052 A 
HETATM    3  C9  UNL     1      23.813   1.844  51.049  1.00  0.00     0.036 A 
HETATM    4  C10 UNL     1      22.788   1.391  51.757  1.00  0.00     0.071 A 
HETATM    5  C11 UNL     1      21.355   1.602  51.592  1.00  0.00     0.101 A 
HETATM    6  N3  UNL     1      20.512   1.058  52.405  1.00  0.00    -0.254 NA
HETATM    7  C12 UNL     1      20.961   0.229  53.497  1.00  0.00     0.159 A 
HETATM    8  C13 UNL     1      22.270   0.028  53.660  1.00  0.00     0.139 A 
HETATM    9  C14 UNL     1      22.640  -0.818  54.782  1.00  0.00     0.119 C 
HETATM   10  N4  UNL     1      22.924  -1.506  55.671  1.00  0.00    -0.190 NA
HETATM   11  N5  UNL     1      23.292   0.583  52.816  1.00  0.00    -0.299 N 
HETATM   12  C21 UNL     1      20.745   2.413  50.539  1.00  0.00     0.152 A 
HETATM   13  N6  UNL     1      21.322   3.077  49.582  1.00  0.00    -0.241 NA
ENDROOT
BRANCH  11  14
HETATM   14  C15 UNL     1      24.661   0.308  53.073  1.00  0.00     0.042 A 
HETATM   15  C16 UNL     1      25.389   1.305  53.717  1.00  0.00     0.033 A 
HETATM   16  C17 UNL     1      26.710   1.178  54.026  1.00  0.00     0.046 A 
HETATM   17  C18 UNL     1      27.386   0.016  53.697  1.00  0.00     0.138 A 
HETATM   18  F1  UNL     1      28.697  -0.146  53.990  1.00  0.00    -0.204 F 
HETATM   19  C19 UNL     1      26.686  -0.979  53.063  1.00  0.00     0.074 A 
HETATM   20 CL1  UNL     1      27.458  -2.494  52.605  1.00  0.00    -0.081 Cl
HETATM   21  C20 UNL     1      25.338  -0.868  52.738  1.00  0.00     0.057 A 
ENDBRANCH  11  14
BRANCH   1  22
HETATM   22  N2  UNL     1      22.929   4.062  48.097  1.00  0.00    -0.371 N 
HETATM   23  H13 UNL     1      23.381   3.523  47.325  1.00  0.00     0.161 HD
BRANCH  22  24
HETATM   24  C6  UNL     1      22.466   5.419  48.338  1.00  0.00     0.148 C 
BRANCH  24  25
HETATM   25  C5  UNL     1      23.349   6.459  47.801  1.00  0.00    -0.010 C 
HETATM   26  C4  UNL     1      24.577   6.834  48.130  1.00  0.00     0.000 C 
BRANCH  26  27
HETATM   27  C3  UNL     1      25.358   6.194  49.220  1.00  0.00     0.298 C 
BRANCH  27  28
HETATM   28  N1  UNL     1      25.367   7.068  50.377  1.00  0.00     0.083 N 
HETATM   29  C1  UNL     1      24.266   6.824  51.280  1.00  0.00     0.309 C 
HETATM   30  C2  UNL     1      25.455   8.464  49.995  1.00  0.00     0.309 C 
ENDBRANCH  27  28
ENDBRANCH  26  27
ENDBRANCH  24  25
ENDBRANCH  22  24
ENDBRANCH   1  22
TORSDOF 6
ENDMDL
MODEL 7
REMARK VINA RESULT:      -7.9      3.762      9.516
REMARK  6 active torsions:
REMARK  status: ('A' for Active; 'I' for Inactive)
REMARK    1  A    between atoms: N1_2  and  C3_4 
REMARK    2  A    between atoms: C3_4  and  C4_5 
REMARK    3  A    between atoms: C5_6  and  C6_7 
REMARK    4  A    between atoms: C6_7  and  N2_8 
REMARK    5  A    between atoms: N2_8  and  C7_9 
REMARK    6  A    between atoms: N5_19  and  C15_20 
ROOT
HETATM    1  C7  UNL     1      27.744   6.114  48.508  1.00  0.00     0.123 A 
HETATM    2  C8  UNL     1      28.877   5.508  48.133  1.00  0.00     0.052 A 
HETATM    3  C9  UNL     1      30.197   6.096  47.882  1.00  0.00     0.036 A 
HETATM    4  C10 UNL     1      30.541   7.372  47.978  1.00  0.00     0.071 A 
HETATM    5  C11 UNL     1      29.752   8.541  48.348  1.00  0.00     0.101 A 
HETATM    6  N3  UNL     1      30.290   9.714  48.382  1.00  0.00    -0.254 NA
HETATM    7  C12 UNL     1      31.683   9.904  48.057  1.00  0.00     0.159 A 
HETATM    8  C13 UNL     1      32.417   8.842  47.716  1.00  0.00     0.139 A 
HETATM    9  C14 UNL     1      33.808   9.116  47.403  1.00  0.00     0.119 C 
HETATM   10  N4  UNL     1      34.921   9.344  47.169  1.00  0.00    -0.190 NA
HETATM   11  N5  UNL     1      31.920   7.496  47.646  1.00  0.00    -0.299 N 
HETATM   12  C21 UNL     1      28.333   8.513  48.703  1.00  0.00     0.152 A 
HETATM   13  N6  UNL     1      27.526   7.497  48.762  1.00  0.00    -0.241 NA
ENDROOT
BRANCH  11  14
HETATM   14  C15 UNL     1      32.784   6.432  47.273  1.00  0.00     0.042 A 
HETATM   15  C16 UNL     1      33.434   5.763  48.307  1.00  0.00     0.033 A 
HETATM   16  C17 UNL     1      34.291   4.724  48.097  1.00  0.00     0.046 A 
HETATM   17  C18 UNL     1      34.544   4.291  46.806  1.00  0.00     0.138 A 
HETATM   18  F1  UNL     1      35.386   3.261  46.560  1.00  0.00    -0.204 F 
HETATM   19  C19 UNL     1      33.911   4.937  45.774  1.00  0.00     0.074 A 
HETATM   20 CL1  UNL     1      34.170   4.459  44.099  1.00  0.00    -0.081 Cl
HETATM   21  C20 UNL     1      33.036   5.999  45.969  1.00  0.00     0.057 A 
ENDBRANCH  11  14
BRANCH   1  22
HETATM   22  N2  UNL     1      26.574   5.295  48.687  1.00  0.00    -0.371 N 
HETATM   23  H13 UNL     1      25.725   5.751  48.287  1.00  0.00     0.161 HD
BRANCH  22  24
HETATM   24  C6  UNL     1      26.912   4.060  49.376  1.00  0.00     0.148 C 
BRANCH  24  25
HETATM   25  C5  UNL     1      25.769   3.387  49.998  1.00  0.00    -0.010 C 
HETATM   26  C4  UNL     1      25.688   2.517  50.995  1.00  0.00     0.000 C 
BRANCH  26  27
HETATM   27  C3  UNL     1      26.875   2.019  51.737  1.00  0.00     0.298 C 
BRANCH  27  28
HETATM   28  N1  UNL     1      26.640   0.651  52.153  1.00  0.00     0.083 N 
HETATM   29  C1  UNL     1      25.279   0.413  52.574  1.00  0.00     0.309 C 
HETATM   30  C2  UNL     1      27.599   0.221  53.152  1.00  0.00     0.309 C 
ENDBRANCH  27  28
ENDBRANCH  26  27
ENDBRANCH  24  25
ENDBRANCH  22  24
ENDBRANCH   1  22
TORSDOF 6
ENDMDL
MODEL 8
REMARK VINA RESULT:      -7.7      3.743      9.088
REMARK  6 active torsions:
REMARK  status: ('A' for Active; 'I' for Inactive)
REMARK    1  A    between atoms: N1_2  and  C3_4 
REMARK    2  A    between atoms: C3_4  and  C4_5 
REMARK    3  A    between atoms: C5_6  and  C6_7 
REMARK    4  A    between atoms: C6_7  and  N2_8 
REMARK    5  A    between atoms: N2_8  and  C7_9 
REMARK    6  A    between atoms: N5_19  and  C15_20 
ROOT
HETATM    1  C7  UNL     1      26.993   5.252  48.915  1.00  0.00     0.123 A 
HETATM    2  C8  UNL     1      28.232   5.005  48.471  1.00  0.00     0.052 A 
HETATM    3  C9  UNL     1      29.310   5.952  48.171  1.00  0.00     0.036 A 
HETATM    4  C10 UNL     1      29.274   7.273  48.281  1.00  0.00     0.071 A 
HETATM    5  C11 UNL     1      28.201   8.159  48.715  1.00  0.00     0.101 A 
HETATM    6  N3  UNL     1      28.378   9.437  48.751  1.00  0.00    -0.254 NA
HETATM    7  C12 UNL     1      29.637  10.026  48.363  1.00  0.00     0.159 A 
HETATM    8  C13 UNL     1      30.628   9.226  47.963  1.00  0.00     0.139 A 
HETATM    9  C14 UNL     1      31.862   9.895  47.589  1.00  0.00     0.119 C 
HETATM   10  N4  UNL     1      32.847  10.438  47.307  1.00  0.00    -0.190 NA
HETATM   11  N5  UNL     1      30.539   7.794  47.886  1.00  0.00    -0.299 N 
HETATM   12  C21 UNL     1      26.872   7.717  49.137  1.00  0.00     0.152 A 
HETATM   13  N6  UNL     1      26.398   6.510  49.212  1.00  0.00    -0.241 NA
ENDROOT
BRANCH  11  14
HETATM   14  C15 UNL     1      31.653   7.030  47.447  1.00  0.00     0.042 A 
HETATM   15  C16 UNL     1      31.721   6.748  46.085  1.00  0.00     0.033 A 
HETATM   16  C17 UNL     1      32.731   6.026  45.525  1.00  0.00     0.046 A 
HETATM   17  C18 UNL     1      33.753   5.537  46.321  1.00  0.00     0.138 A 
HETATM   18  F1  UNL     1      34.773   4.819  45.800  1.00  0.00    -0.204 F 
HETATM   19  C19 UNL     1      33.704   5.806  47.666  1.00  0.00     0.074 A 
HETATM   20 CL1  UNL     1      34.957   5.227  48.761  1.00  0.00    -0.081 Cl
HETATM   21  C20 UNL     1      32.681   6.539  48.257  1.00  0.00     0.057 A 
ENDBRANCH  11  14
BRANCH   1  22
HETATM   22  N2  UNL     1      26.122   4.127  49.130  1.00  0.00    -0.371 N 
HETATM   23  H13 UNL     1      25.656   3.831  48.245  1.00  0.00     0.161 HD
BRANCH  22  24
HETATM   24  C6  UNL     1      26.142   3.722  50.527  1.00  0.00     0.148 C 
BRANCH  24  25
HETATM   25  C5  UNL     1      26.164   2.271  50.732  1.00  0.00    -0.010 C 
HETATM   26  C4  UNL     1      26.731   1.516  51.662  1.00  0.00     0.000 C 
BRANCH  26  27
HETATM   27  C3  UNL     1      27.532   2.073  52.783  1.00  0.00     0.298 C 
BRANCH  27  28
HETATM   28  N1  UNL     1      27.871   1.007  53.704  1.00  0.00     0.083 N 
HETATM   29  C1  UNL     1      29.174   1.171  54.305  1.00  0.00     0.309 C 
HETATM   30  C2  UNL     1      27.718  -0.300  53.093  1.00  0.00     0.309 C 
ENDBRANCH  27  28
ENDBRANCH  26  27
ENDBRANCH  24  25
ENDBRANCH  22  24
ENDBRANCH   1  22
TORSDOF 6
ENDMDL
MODEL 9
REMARK VINA RESULT:      -7.7      4.013      5.617
REMARK  6 active torsions:
REMARK  status: ('A' for Active; 'I' for Inactive)
REMARK    1  A    between atoms: N1_2  and  C3_4 
REMARK    2  A    between atoms: C3_4  and  C4_5 
REMARK    3  A    between atoms: C5_6  and  C6_7 
REMARK    4  A    between atoms: C6_7  and  N2_8 
REMARK    5  A    between atoms: N2_8  and  C7_9 
REMARK    6  A    between atoms: N5_19  and  C15_20 
ROOT
HETATM    1  C7  UNL     1      28.863   5.925  48.301  1.00  0.00     0.123 A 
HETATM    2  C8  UNL     1      27.935   4.994  48.558  1.00  0.00     0.052 A 
HETATM    3  C9  UNL     1      26.569   5.168  49.061  1.00  0.00     0.036 A 
HETATM    4  C10 UNL     1      25.963   6.307  49.368  1.00  0.00     0.071 A 
HETATM    5  C11 UNL     1      26.443   7.682  49.305  1.00  0.00     0.101 A 
HETATM    6  N3  UNL     1      25.678   8.661  49.655  1.00  0.00    -0.254 NA
HETATM    7  C12 UNL     1      24.332   8.427  50.116  1.00  0.00     0.159 A 
HETATM    8  C13 UNL     1      23.880   7.172  50.179  1.00  0.00     0.139 A 
HETATM    9  C14 UNL     1      22.516   7.020  50.653  1.00  0.00     0.119 C 
HETATM   10  N4  UNL     1      21.421   6.910  51.020  1.00  0.00    -0.190 NA
HETATM   11  N5  UNL     1      24.644   6.011  49.815  1.00  0.00    -0.299 N 
HETATM   12  C21 UNL     1      27.778   8.082  48.862  1.00  0.00     0.152 A 
HETATM   13  N6  UNL     1      28.760   7.337  48.451  1.00  0.00    -0.241 NA
ENDROOT
BRANCH  11  14
HETATM   14  C15 UNL     1      24.071   4.716  49.916  1.00  0.00     0.042 A 
HETATM   15  C16 UNL     1      23.412   4.234  48.789  1.00  0.00     0.033 A 
HETATM   16  C17 UNL     1      22.816   3.009  48.743  1.00  0.00     0.046 A 
HETATM   17  C18 UNL     1      22.853   2.183  49.853  1.00  0.00     0.138 A 
HETATM   18  F1  UNL     1      22.275   0.960  49.844  1.00  0.00    -0.204 F 
HETATM   19  C19 UNL     1      23.500   2.640  50.974  1.00  0.00     0.074 A 
HETATM   20 CL1  UNL     1      23.600   1.662  52.436  1.00  0.00    -0.081 Cl
HETATM   21  C20 UNL     1      24.112   3.887  51.041  1.00  0.00     0.057 A 
ENDBRANCH  11  14
BRANCH   1  22
HETATM   22  N2  UNL     1      30.139   5.481  47.810  1.00  0.00    -0.371 N 
HETATM   23  H13 UNL     1      30.103   4.484  47.502  1.00  0.00     0.161 HD
BRANCH  22  24
HETATM   24  C6  UNL     1      31.120   6.552  47.881  1.00  0.00     0.148 C 
BRANCH  24  25
HETATM   25  C5  UNL     1      32.389   6.164  48.504  1.00  0.00    -0.010 C 
HETATM   26  C4  UNL     1      33.431   5.486  48.043  1.00  0.00     0.000 C 
BRANCH  26  27
HETATM   27  C3  UNL     1      33.499   4.941  46.662  1.00  0.00     0.298 C 
BRANCH  27  28
HETATM   28  N1  UNL     1      33.793   3.523  46.722  1.00  0.00     0.083 N 
HETATM   29  C1  UNL     1      32.607   2.699  46.752  1.00  0.00     0.309 C 
HETATM   30  C2  UNL     1      34.698   3.208  47.812  1.00  0.00     0.309 C 
ENDBRANCH  27  28
ENDBRANCH  26  27
ENDBRANCH  24  25
ENDBRANCH  22  24
ENDBRANCH   1  22
TORSDOF 6
ENDMDL
