MODEL 1
REMARK VINA RESULT:      -8.7      0.000      0.000
REMARK  6 active torsions:
REMARK  status: ('A' for Active; 'I' for Inactive)
REMARK    1  A    between atoms: O1_2  and  C2_3 
REMARK    2  A    between atoms: C5_6  and  N1_7 
REMARK    3  A    between atoms: N1_7  and  N2_8 
REMARK    4  A    between atoms: N2_8  and  C6_9 
REMARK    5  A    between atoms: C13_18  and  O2_19 
REMARK    6  A    between atoms: C18_24  and  O3_25 
ROOT
HETATM    1  C2  UNL     1      20.421  -0.500  53.286  1.00  0.00     0.053 C 
HETATM    2  C3  UNL     1      20.273   0.426  52.338  1.00  0.00     0.059 C 
HETATM    3  C4  UNL     1      20.868   1.517  51.581  1.00  0.00     0.069 C 
HETATM    4  C5  UNL     1      22.270   1.972  51.736  1.00  0.00     0.037 C 
HETATM    5  C9  UNL     1      23.704   1.894  51.633  1.00  0.00     0.095 C 
HETATM    6  C10 UNL     1      24.536   0.932  52.350  1.00  0.00    -0.046 A 
HETATM    7  C11 UNL     1      25.835   1.003  51.802  1.00  0.00     0.011 A 
HETATM    8  C12 UNL     1      26.912   0.263  52.201  1.00  0.00     0.037 A 
HETATM    9  C13 UNL     1      26.744  -0.637  53.226  1.00  0.00     0.068 A 
HETATM   10  C15 UNL     1      25.524  -0.787  53.830  1.00  0.00     0.044 A 
HETATM   11  C16 UNL     1      24.497  -0.030  53.393  1.00  0.00    -0.043 A 
HETATM   12  C17 UNL     1      23.165  -0.091  53.936  1.00  0.00     0.103 C 
HETATM   13  C18 UNL     1      22.464  -1.085  54.664  1.00  0.00     0.050 C 
HETATM   14  C19 UNL     1      21.148  -1.273  54.334  1.00  0.00     0.065 C 
ENDROOT
BRANCH   4  15
HETATM   15  N1  UNL     1      22.000   3.095  52.376  1.00  0.00    -0.181 NA
BRANCH  15  16
HETATM   16  N2  UNL     1      21.413   4.219  51.900  1.00  0.00    -0.255 N 
HETATM   17  H7  UNL     1      20.377   4.247  51.803  1.00  0.00     0.191 HD
BRANCH  16  18
HETATM   18  C6  UNL     1      22.324   5.275  51.578  1.00  0.00     0.186 A 
HETATM   19  N3  UNL     1      23.485   5.470  51.730  1.00  0.00    -0.235 NA
HETATM   20  C7  UNL     1      24.106   6.574  51.322  1.00  0.00     0.127 A 
HETATM   21  C8  UNL     1      23.269   7.598  50.640  1.00  0.00     0.072 A 
HETATM   22  S1  UNL     1      21.599   6.721  50.714  1.00  0.00    -0.061 SA
ENDBRANCH  16  18
ENDBRANCH  15  16
ENDBRANCH   4  15
BRANCH   1  23
HETATM   23  O1  UNL     1      19.102  -0.819  52.993  1.00  0.00    -0.360 OA
HETATM   24  C1  UNL     1      18.429  -1.873  53.642  1.00  0.00     0.209 C 
ENDBRANCH   1  23
BRANCH  13  25
HETATM   25  O3  UNL     1      22.867  -1.919  55.667  1.00  0.00    -0.365 OA
HETATM   26  H20 UNL     1      23.659  -1.738  56.275  1.00  0.00     0.217 HD
ENDBRANCH  13  25
BRANCH   9  27
HETATM   27  O2  UNL     1      27.745  -1.444  53.723  1.00  0.00    -0.356 OA
HETATM   28  C14 UNL     1      29.077  -0.912  53.676  1.00  0.00     0.210 C 
ENDBRANCH   9  27
TORSDOF 6
ENDMDL
MODEL 2
REMARK VINA RESULT:      -8.3      4.032      7.784
REMARK  6 active torsions:
REMARK  status: ('A' for Active; 'I' for Inactive)
REMARK    1  A    between atoms: O1_2  and  C2_3 
REMARK    2  A    between atoms: C5_6  and  N1_7 
REMARK    3  A    between atoms: N1_7  and  N2_8 
REMARK    4  A    between atoms: N2_8  and  C6_9 
REMARK    5  A    between atoms: C13_18  and  O2_19 
REMARK    6  A    between atoms: C18_24  and  O3_25 
ROOT
HETATM    1  C2  UNL     1      26.028   3.802  50.105  1.00  0.00     0.053 C 
HETATM    2  C3  UNL     1      26.586   2.692  50.591  1.00  0.00     0.059 C 
HETATM    3  C4  UNL     1      26.523   1.606  51.557  1.00  0.00     0.069 C 
HETATM    4  C5  UNL     1      25.420   1.418  52.530  1.00  0.00     0.037 C 
HETATM    5  C9  UNL     1      24.084   1.108  52.970  1.00  0.00     0.095 C 
HETATM    6  C10 UNL     1      22.900   1.896  52.643  1.00  0.00    -0.046 A 
HETATM    7  C11 UNL     1      21.769   1.146  53.035  1.00  0.00     0.011 A 
HETATM    8  C12 UNL     1      20.467   1.536  52.904  1.00  0.00     0.037 A 
HETATM    9  C13 UNL     1      20.204   2.763  52.343  1.00  0.00     0.068 A 
HETATM   10  C15 UNL     1      21.227   3.573  51.926  1.00  0.00     0.044 A 
HETATM   11  C16 UNL     1      22.493   3.135  52.081  1.00  0.00    -0.043 A 
HETATM   12  C17 UNL     1      23.657   3.882  51.684  1.00  0.00     0.103 C 
HETATM   13  C18 UNL     1      23.859   4.934  50.755  1.00  0.00     0.050 C 
HETATM   14  C19 UNL     1      24.999   4.876  50.000  1.00  0.00     0.065 C 
ENDROOT
BRANCH   4  15
HETATM   15  N1  UNL     1      26.090   1.799  53.602  1.00  0.00    -0.181 NA
BRANCH  15  16
HETATM   16  N2  UNL     1      26.611   1.032  54.589  1.00  0.00    -0.255 N 
HETATM   17  H7  UNL     1      26.203   1.092  55.545  1.00  0.00     0.191 HD
BRANCH  16  18
HETATM   18  C6  UNL     1      27.701   0.198  54.183  1.00  0.00     0.186 A 
HETATM   19  N3  UNL     1      27.826  -0.939  53.864  1.00  0.00    -0.235 NA
HETATM   20  C7  UNL     1      28.991  -1.483  53.520  1.00  0.00     0.127 A 
HETATM   21  C8  UNL     1      30.181  -0.589  53.551  1.00  0.00     0.072 A 
HETATM   22  S1  UNL     1      29.345   1.007  54.114  1.00  0.00    -0.061 SA
ENDBRANCH  16  18
ENDBRANCH  15  16
ENDBRANCH   4  15
BRANCH   1  23
HETATM   23  O1  UNL     1      27.117   3.812  49.244  1.00  0.00    -0.360 OA
HETATM   24  C1  UNL     1      27.570   4.995  48.630  1.00  0.00     0.209 C 
ENDBRANCH   1  23
BRANCH  13  25
HETATM   25  O3  UNL     1      23.103   6.033  50.462  1.00  0.00    -0.365 OA
HETATM   26  H20 UNL     1      22.101   6.011  50.307  1.00  0.00     0.217 HD
ENDBRANCH  13  25
BRANCH   9  27
HETATM   27  O2  UNL     1      18.939   3.275  52.153  1.00  0.00    -0.356 OA
HETATM   28  C14 UNL     1      18.741   4.070  50.975  1.00  0.00     0.210 C 
ENDBRANCH   9  27
TORSDOF 6
ENDMDL
MODEL 3
REMARK VINA RESULT:      -8.2      3.511      7.055
REMARK  6 active torsions:
REMARK  status: ('A' for Active; 'I' for Inactive)
REMARK    1  A    between atoms: O1_2  and  C2_3 
REMARK    2  A    between atoms: C5_6  and  N1_7 
REMARK    3  A    between atoms: N1_7  and  N2_8 
REMARK    4  A    between atoms: N2_8  and  C6_9 
REMARK    5  A    between atoms: C13_18  and  O2_19 
REMARK    6  A    between atoms: C18_24  and  O3_25 
ROOT
HETATM    1  C2  UNL     1      24.346   3.130  50.684  1.00  0.00     0.053 C 
HETATM    2  C3  UNL     1      25.419   2.406  51.003  1.00  0.00     0.059 C 
HETATM    3  C4  UNL     1      26.010   1.402  51.876  1.00  0.00     0.069 C 
HETATM    4  C5  UNL     1      25.276   0.700  52.955  1.00  0.00     0.037 C 
HETATM    5  C9  UNL     1      24.317  -0.210  53.527  1.00  0.00     0.095 C 
HETATM    6  C10 UNL     1      22.869  -0.068  53.413  1.00  0.00    -0.046 A 
HETATM    7  C11 UNL     1      22.287  -1.268  53.875  1.00  0.00     0.011 A 
HETATM    8  C12 UNL     1      20.949  -1.536  53.936  1.00  0.00     0.037 A 
HETATM    9  C13 UNL     1      20.068  -0.569  53.516  1.00  0.00     0.068 A 
HETATM   10  C15 UNL     1      20.525   0.635  53.048  1.00  0.00     0.044 A 
HETATM   11  C16 UNL     1      21.857   0.843  53.011  1.00  0.00    -0.043 A 
HETATM   12  C17 UNL     1      22.468   2.057  52.539  1.00  0.00     0.103 C 
HETATM   13  C18 UNL     1      22.020   3.096  51.684  1.00  0.00     0.050 C 
HETATM   14  C19 UNL     1      22.933   3.595  50.794  1.00  0.00     0.065 C 
ENDROOT
BRANCH   4  15
HETATM   15  N1  UNL     1      25.842   1.334  53.966  1.00  0.00    -0.181 NA
BRANCH  15  16
HETATM   16  N2  UNL     1      26.668   0.838  54.919  1.00  0.00    -0.255 N 
HETATM   17  H7  UNL     1      26.422   0.971  55.921  1.00  0.00     0.191 HD
BRANCH  16  18
HETATM   18  C6  UNL     1      27.823   0.163  54.411  1.00  0.00     0.186 A 
HETATM   19  N3  UNL     1      28.094  -0.956  54.122  1.00  0.00    -0.235 NA
HETATM   20  C7  UNL     1      29.283  -1.330  53.657  1.00  0.00     0.127 A 
HETATM   21  C8  UNL     1      30.306  -0.260  53.502  1.00  0.00     0.072 A 
HETATM   22  S1  UNL     1      29.294   1.215  54.104  1.00  0.00    -0.061 SA
ENDBRANCH  16  18
ENDBRANCH  15  16
ENDBRANCH   4  15
BRANCH   1  23
HETATM   23  O1  UNL     1      25.167   3.667  49.700  1.00  0.00    -0.360 OA
HETATM   24  C1  UNL     1      25.555   5.020  49.711  1.00  0.00     0.209 C 
ENDBRANCH   1  23
BRANCH  13  25
HETATM   25  O3  UNL     1      20.807   3.713  51.578  1.00  0.00    -0.365 OA
HETATM   26  H20 UNL     1      20.590   4.617  51.984  1.00  0.00     0.217 HD
ENDBRANCH  13  25
BRANCH   9  27
HETATM   27  O2  UNL     1      18.697  -0.710  53.524  1.00  0.00    -0.356 OA
HETATM   28  C14 UNL     1      18.021  -0.459  52.284  1.00  0.00     0.210 C 
ENDBRANCH   9  27
TORSDOF 6
ENDMDL
MODEL 4
REMARK VINA RESULT:      -7.7      3.927      6.566
REMARK  6 active torsions:
REMARK  status: ('A' for Active; 'I' for Inactive)
REMARK    1  A    between atoms: O1_2  and  C2_3 
REMARK    2  A    between atoms: C5_6  and  N1_7 
REMARK    3  A    between atoms: N1_7  and  N2_8 
REMARK    4  A    between atoms: N2_8  and  C6_9 
REMARK    5  A    between atoms: C13_18  and  O2_19 
REMARK    6  A    between atoms: C18_24  and  O3_25 
ROOT
HETATM    1  C2  UNL     1      21.611   0.218  52.120  1.00  0.00     0.053 C 
HETATM    2  C3  UNL     1      22.604   0.270  53.009  1.00  0.00     0.059 C 
HETATM    3  C4  UNL     1      23.960   0.704  53.315  1.00  0.00     0.069 C 
HETATM    4  C5  UNL     1      24.815   1.481  52.387  1.00  0.00     0.037 C 
HETATM    5  C9  UNL     1      25.242   2.630  51.632  1.00  0.00     0.095 C 
HETATM    6  C10 UNL     1      24.490   3.224  50.530  1.00  0.00    -0.046 A 
HETATM    7  C11 UNL     1      25.098   4.461  50.220  1.00  0.00     0.011 A 
HETATM    8  C12 UNL     1      24.696   5.325  49.242  1.00  0.00     0.037 A 
HETATM    9  C13 UNL     1      23.606   4.988  48.477  1.00  0.00     0.068 A 
HETATM   10  C15 UNL     1      22.940   3.810  48.694  1.00  0.00     0.044 A 
HETATM   11  C16 UNL     1      23.382   2.996  49.673  1.00  0.00    -0.043 A 
HETATM   12  C17 UNL     1      22.773   1.736  50.007  1.00  0.00     0.103 C 
HETATM   13  C18 UNL     1      21.478   1.201  49.791  1.00  0.00     0.050 C 
HETATM   14  C19 UNL     1      20.932   0.480  50.819  1.00  0.00     0.065 C 
ENDROOT
BRANCH   4  15
HETATM   15  N1  UNL     1      25.631   0.494  52.064  1.00  0.00    -0.181 NA
BRANCH  15  16
HETATM   16  N2  UNL     1      25.983  -0.588  52.800  1.00  0.00    -0.255 N 
HETATM   17  H7  UNL     1      25.243  -1.252  53.108  1.00  0.00     0.191 HD
BRANCH  16  18
HETATM   18  C6  UNL     1      27.384  -0.691  53.074  1.00  0.00     0.186 A 
HETATM   19  N3  UNL     1      28.172  -1.576  53.138  1.00  0.00    -0.235 NA
HETATM   20  C7  UNL     1      29.460  -1.395  53.420  1.00  0.00     0.127 A 
HETATM   21  C8  UNL     1      29.901   0.006  53.663  1.00  0.00     0.072 A 
HETATM   22  S1  UNL     1      28.249   0.887  53.424  1.00  0.00    -0.061 SA
ENDBRANCH  16  18
ENDBRANCH  15  16
ENDBRANCH   4  15
BRANCH   1  23
HETATM   23  O1  UNL     1      20.935  -0.475  53.116  1.00  0.00    -0.360 OA
HETATM   24  C1  UNL     1      20.533   0.147  54.314  1.00  0.00     0.209 C 
ENDBRANCH   1  23
BRANCH  13  25
HETATM   25  O3  UNL     1      20.644   1.272  48.712  1.00  0.00    -0.365 OA
HETATM   26  H20 UNL     1      20.911   1.020  47.767  1.00  0.00     0.217 HD
ENDBRANCH  13  25
BRANCH   9  27
HETATM   27  O2  UNL     1      23.098   5.768  47.462  1.00  0.00    -0.356 OA
HETATM   28  C14 UNL     1      22.104   5.160  46.624  1.00  0.00     0.210 C 
ENDBRANCH   9  27
TORSDOF 6
ENDMDL
MODEL 5
REMARK VINA RESULT:      -7.6      2.968      4.623
REMARK  6 active torsions:
REMARK  status: ('A' for Active; 'I' for Inactive)
REMARK    1  A    between atoms: O1_2  and  C2_3 
REMARK    2  A    between atoms: C5_6  and  N1_7 
REMARK    3  A    between atoms: N1_7  and  N2_8 
REMARK    4  A    between atoms: N2_8  and  C6_9 
REMARK    5  A    between atoms: C13_18  and  O2_19 
REMARK    6  A    between atoms: C18_24  and  O3_25 
ROOT
HETATM    1  C2  UNL     1      22.608   4.647  51.555  1.00  0.00     0.053 C 
HETATM    2  C3  UNL     1      21.490   4.053  51.974  1.00  0.00     0.059 C 
HETATM    3  C4  UNL     1      20.818   2.816  52.341  1.00  0.00     0.069 C 
HETATM    4  C5  UNL     1      21.474   1.487  52.366  1.00  0.00     0.037 C 
HETATM    5  C9  UNL     1      22.365   0.461  52.843  1.00  0.00     0.095 C 
HETATM    6  C10 UNL     1      23.822   0.548  52.811  1.00  0.00    -0.046 A 
HETATM    7  C11 UNL     1      24.328  -0.519  53.585  1.00  0.00     0.011 A 
HETATM    8  C12 UNL     1      25.648  -0.793  53.802  1.00  0.00     0.037 A 
HETATM    9  C13 UNL     1      26.590   0.027  53.229  1.00  0.00     0.068 A 
HETATM   10  C15 UNL     1      26.209   1.093  52.457  1.00  0.00     0.044 A 
HETATM   11  C16 UNL     1      24.891   1.315  52.277  1.00  0.00    -0.043 A 
HETATM   12  C17 UNL     1      24.357   2.398  51.496  1.00  0.00     0.103 C 
HETATM   13  C18 UNL     1      24.887   3.648  51.089  1.00  0.00     0.050 C 
HETATM   14  C19 UNL     1      24.036   4.720  51.130  1.00  0.00     0.065 C 
ENDROOT
BRANCH   4  15
HETATM   15  N1  UNL     1      20.899   1.008  51.278  1.00  0.00    -0.181 NA
BRANCH  15  16
HETATM   16  N2  UNL     1      21.479   0.605  50.122  1.00  0.00    -0.255 N 
HETATM   17  H7  UNL     1      21.805  -0.380  50.036  1.00  0.00     0.191 HD
BRANCH  16  18
HETATM   18  C6  UNL     1      21.579   1.622  49.120  1.00  0.00     0.186 A 
HETATM   19  N3  UNL     1      22.455   2.094  48.473  1.00  0.00    -0.235 NA
HETATM   20  C7  UNL     1      22.273   3.062  47.579  1.00  0.00     0.127 A 
HETATM   21  C8  UNL     1      20.879   3.556  47.405  1.00  0.00     0.072 A 
HETATM   22  S1  UNL     1      20.008   2.451  48.663  1.00  0.00    -0.061 SA
ENDBRANCH  16  18
ENDBRANCH  15  16
ENDBRANCH   4  15
BRANCH   1  23
HETATM   23  O1  UNL     1      21.854   5.812  51.616  1.00  0.00    -0.360 OA
HETATM   24  C1  UNL     1      21.115   6.279  50.513  1.00  0.00     0.209 C 
ENDBRANCH   1  23
BRANCH  13  25
HETATM   25  O3  UNL     1      26.132   3.997  50.647  1.00  0.00    -0.365 OA
HETATM   26  H20 UNL     1      26.962   3.429  50.776  1.00  0.00     0.217 HD
ENDBRANCH  13  25
BRANCH   9  27
HETATM   27  O2  UNL     1      27.951  -0.137  53.368  1.00  0.00    -0.356 OA
HETATM   28  C14 UNL     1      28.495   0.111  54.673  1.00  0.00     0.210 C 
ENDBRANCH   9  27
TORSDOF 6
ENDMDL
MODEL 6
REMARK VINA RESULT:      -7.6      3.123      5.745
REMARK  6 active torsions:
REMARK  status: ('A' for Active; 'I' for Inactive)
REMARK    1  A    between atoms: O1_2  and  C2_3 
REMARK    2  A    between atoms: C5_6  and  N1_7 
REMARK    3  A    between atoms: N1_7  and  N2_8 
REMARK    4  A    between atoms: N2_8  and  C6_9 
REMARK    5  A    between atoms: C13_18  and  O2_19 
REMARK    6  A    between atoms: C18_24  and  O3_25 
ROOT
HETATM    1  C2  UNL     1      22.260   4.251  51.777  1.00  0.00     0.053 C 
HETATM    2  C3  UNL     1      21.064   3.753  52.096  1.00  0.00     0.059 C 
HETATM    3  C4  UNL     1      20.279   2.590  52.483  1.00  0.00     0.069 C 
HETATM    4  C5  UNL     1      20.848   1.243  52.720  1.00  0.00     0.037 C 
HETATM    5  C9  UNL     1      21.609   0.231  53.407  1.00  0.00     0.095 C 
HETATM    6  C10 UNL     1      23.060   0.248  53.563  1.00  0.00    -0.046 A 
HETATM    7  C11 UNL     1      23.398  -0.758  54.495  1.00  0.00     0.011 A 
HETATM    8  C12 UNL     1      24.661  -1.068  54.912  1.00  0.00     0.037 A 
HETATM    9  C13 UNL     1      25.715  -0.354  54.396  1.00  0.00     0.068 A 
HETATM   10  C15 UNL     1      25.501   0.646  53.484  1.00  0.00     0.044 A 
HETATM   11  C16 UNL     1      24.232   0.907  53.109  1.00  0.00    -0.043 A 
HETATM   12  C17 UNL     1      23.868   1.930  52.165  1.00  0.00     0.103 C 
HETATM   13  C18 UNL     1      24.518   3.108  51.717  1.00  0.00     0.050 C 
HETATM   14  C19 UNL     1      23.732   4.215  51.543  1.00  0.00     0.065 C 
ENDROOT
BRANCH   4  15
HETATM   15  N1  UNL     1      20.392   0.684  51.614  1.00  0.00    -0.181 NA
BRANCH  15  16
HETATM   16  N2  UNL     1      19.125   0.673  51.133  1.00  0.00    -0.255 N 
HETATM   17  H7  UNL     1      18.875   1.316  50.353  1.00  0.00     0.191 HD
BRANCH  16  18
HETATM   18  C6  UNL     1      18.251  -0.257  51.780  1.00  0.00     0.186 A 
HETATM   19  N3  UNL     1      18.338  -1.009  52.693  1.00  0.00    -0.235 NA
HETATM   20  C7  UNL     1      17.340  -1.788  53.105  1.00  0.00     0.127 A 
HETATM   21  C8  UNL     1      16.059  -1.684  52.354  1.00  0.00     0.072 A 
HETATM   22  S1  UNL     1      16.558  -0.378  51.085  1.00  0.00    -0.061 SA
ENDBRANCH  16  18
ENDBRANCH  15  16
ENDBRANCH   4  15
BRANCH   1  23
HETATM   23  O1  UNL     1      21.573   5.449  51.627  1.00  0.00    -0.360 OA
HETATM   24  C1  UNL     1      22.106   6.526  50.895  1.00  0.00     0.209 C 
ENDBRANCH   1  23
BRANCH  13  25
HETATM   25  O3  UNL     1      25.827   3.354  51.416  1.00  0.00    -0.365 OA
HETATM   26  H20 UNL     1      26.283   3.051  50.562  1.00  0.00     0.217 HD
ENDBRANCH  13  25
BRANCH   9  27
HETATM   27  O2  UNL     1      27.035  -0.564  54.732  1.00  0.00    -0.356 OA
HETATM   28  C14 UNL     1      27.979   0.406  54.256  1.00  0.00     0.210 C 
ENDBRANCH   9  27
TORSDOF 6
ENDMDL
MODEL 7
REMARK VINA RESULT:      -7.4      3.892      7.008
REMARK  6 active torsions:
REMARK  status: ('A' for Active; 'I' for Inactive)
REMARK    1  A    between atoms: O1_2  and  C2_3 
REMARK    2  A    between atoms: C5_6  and  N1_7 
REMARK    3  A    between atoms: N1_7  and  N2_8 
REMARK    4  A    between atoms: N2_8  and  C6_9 
REMARK    5  A    between atoms: C13_18  and  O2_19 
REMARK    6  A    between atoms: C18_24  and  O3_25 
ROOT
HETATM    1  C2  UNL     1      24.806   0.786  53.313  1.00  0.00     0.053 C 
HETATM    2  C3  UNL     1      23.979  -0.251  53.453  1.00  0.00     0.059 C 
HETATM    3  C4  UNL     1      22.696  -0.854  53.123  1.00  0.00     0.069 C 
HETATM    4  C5  UNL     1      21.697  -0.242  52.214  1.00  0.00     0.037 C 
HETATM    5  C9  UNL     1      21.151   0.205  50.958  1.00  0.00     0.095 C 
HETATM    6  C10 UNL     1      21.707   1.287  50.151  1.00  0.00    -0.046 A 
HETATM    7  C11 UNL     1      21.058   1.257  48.897  1.00  0.00     0.011 A 
HETATM    8  C12 UNL     1      21.291   2.110  47.857  1.00  0.00     0.037 A 
HETATM    9  C13 UNL     1      22.235   3.096  48.017  1.00  0.00     0.068 A 
HETATM   10  C15 UNL     1      22.924   3.216  49.194  1.00  0.00     0.044 A 
HETATM   11  C16 UNL     1      22.653   2.345  50.187  1.00  0.00    -0.043 A 
HETATM   12  C17 UNL     1      23.306   2.356  51.469  1.00  0.00     0.103 C 
HETATM   13  C18 UNL     1      24.544   2.882  51.917  1.00  0.00     0.050 C 
HETATM   14  C19 UNL     1      25.256   2.111  52.798  1.00  0.00     0.065 C 
ENDROOT
BRANCH   4  15
HETATM   15  N1  UNL     1      20.835   0.117  53.148  1.00  0.00    -0.181 NA
BRANCH  15  16
HETATM   16  N2  UNL     1      19.974  -0.661  53.846  1.00  0.00    -0.255 N 
HETATM   17  H7  UNL     1      20.279  -1.065  54.756  1.00  0.00     0.191 HD
BRANCH  16  18
HETATM   18  C6  UNL     1      18.696  -0.839  53.226  1.00  0.00     0.186 A 
HETATM   19  N3  UNL     1      18.012  -0.202  52.494  1.00  0.00    -0.235 NA
HETATM   20  C7  UNL     1      16.826  -0.612  52.051  1.00  0.00     0.127 A 
HETATM   21  C8  UNL     1      16.362  -1.946  52.521  1.00  0.00     0.072 A 
HETATM   22  S1  UNL     1      17.835  -2.413  53.605  1.00  0.00    -0.061 SA
ENDBRANCH  16  18
ENDBRANCH  15  16
ENDBRANCH   4  15
BRANCH   1  23
HETATM   23  O1  UNL     1      25.639   0.063  54.157  1.00  0.00    -0.360 OA
HETATM   24  C1  UNL     1      26.674  -0.753  53.661  1.00  0.00     0.209 C 
ENDBRANCH   1  23
BRANCH  13  25
HETATM   25  O3  UNL     1      25.184   4.053  51.626  1.00  0.00    -0.365 OA
HETATM   26  H20 UNL     1      24.721   4.880  51.266  1.00  0.00     0.217 HD
ENDBRANCH  13  25
BRANCH   9  27
HETATM   27  O2  UNL     1      22.565   4.020  47.050  1.00  0.00    -0.356 OA
HETATM   28  C14 UNL     1      21.842   3.938  45.813  1.00  0.00     0.210 C 
ENDBRANCH   9  27
TORSDOF 6
ENDMDL
MODEL 8
REMARK VINA RESULT:      -7.1      2.461      3.561
REMARK  6 active torsions:
REMARK  status: ('A' for Active; 'I' for Inactive)
REMARK    1  A    between atoms: O1_2  and  C2_3 
REMARK    2  A    between atoms: C5_6  and  N1_7 
REMARK    3  A    between atoms: N1_7  and  N2_8 
REMARK    4  A    between atoms: N2_8  and  C6_9 
REMARK    5  A    between atoms: C13_18  and  O2_19 
REMARK    6  A    between atoms: C18_24  and  O3_25 
ROOT
HETATM    1  C2  UNL     1      21.603   2.044  49.365  1.00  0.00     0.053 C 
HETATM    2  C3  UNL     1      22.231   3.090  48.826  1.00  0.00     0.059 C 
HETATM    3  C4  UNL     1      23.327   4.044  48.912  1.00  0.00     0.069 C 
HETATM    4  C5  UNL     1      24.360   4.033  49.974  1.00  0.00     0.037 C 
HETATM    5  C9  UNL     1      25.502   3.543  50.702  1.00  0.00     0.095 C 
HETATM    6  C10 UNL     1      25.533   2.290  51.450  1.00  0.00    -0.046 A 
HETATM    7  C11 UNL     1      26.877   2.040  51.805  1.00  0.00     0.011 A 
HETATM    8  C12 UNL     1      27.329   0.966  52.517  1.00  0.00     0.037 A 
HETATM    9  C13 UNL     1      26.416   0.029  52.938  1.00  0.00     0.068 A 
HETATM   10  C15 UNL     1      25.085   0.172  52.648  1.00  0.00     0.044 A 
HETATM   11  C16 UNL     1      24.697   1.253  51.942  1.00  0.00    -0.043 A 
HETATM   12  C17 UNL     1      23.334   1.522  51.567  1.00  0.00     0.103 C 
HETATM   13  C18 UNL     1      22.190   0.696  51.427  1.00  0.00     0.050 C 
HETATM   14  C19 UNL     1      21.373   0.956  50.359  1.00  0.00     0.065 C 
ENDROOT
BRANCH   4  15
HETATM   15  N1  UNL     1      23.919   5.089  50.632  1.00  0.00    -0.181 NA
BRANCH  15  16
HETATM   16  N2  UNL     1      24.632   6.026  51.301  1.00  0.00    -0.255 N 
HETATM   17  H7  UNL     1      24.809   5.897  52.319  1.00  0.00     0.191 HD
BRANCH  16  18
HETATM   18  C6  UNL     1      25.075   7.124  50.495  1.00  0.00     0.186 A 
HETATM   19  N3  UNL     1      26.123   7.609  50.224  1.00  0.00    -0.235 NA
HETATM   20  C7  UNL     1      26.263   8.662  49.423  1.00  0.00     0.127 A 
HETATM   21  C8  UNL     1      25.015   9.238  48.853  1.00  0.00     0.072 A 
HETATM   22  S1  UNL     1      23.758   8.067  49.636  1.00  0.00    -0.061 SA
ENDBRANCH  16  18
ENDBRANCH  15  16
ENDBRANCH   4  15
BRANCH   1  23
HETATM   23  O1  UNL     1      20.739   2.177  48.286  1.00  0.00    -0.360 OA
HETATM   24  C1  UNL     1      19.595   2.996  48.343  1.00  0.00     0.209 C 
ENDBRANCH   1  23
BRANCH  13  25
HETATM   25  O3  UNL     1      21.734  -0.347  52.181  1.00  0.00    -0.365 OA
HETATM   26  H20 UNL     1      22.252  -0.766  52.946  1.00  0.00     0.217 HD
ENDBRANCH  13  25
BRANCH   9  27
HETATM   27  O2  UNL     1      26.739  -1.099  53.662  1.00  0.00    -0.356 OA
HETATM   28  C14 UNL     1      27.383  -2.159  52.941  1.00  0.00     0.210 C 
ENDBRANCH   9  27
TORSDOF 6
ENDMDL
MODEL 9
REMARK VINA RESULT:      -7.1      2.984      5.535
REMARK  6 active torsions:
REMARK  status: ('A' for Active; 'I' for Inactive)
REMARK    1  A    between atoms: O1_2  and  C2_3 
REMARK    2  A    between atoms: C5_6  and  N1_7 
REMARK    3  A    between atoms: N1_7  and  N2_8 
REMARK    4  A    between atoms: N2_8  and  C6_9 
REMARK    5  A    between atoms: C13_18  and  O2_19 
REMARK    6  A    between atoms: C18_24  and  O3_25 
ROOT
HETATM    1  C2  UNL     1      21.797   2.285  48.417  1.00  0.00     0.053 C 
HETATM    2  C3  UNL     1      23.005   2.612  48.878  1.00  0.00     0.059 C 
HETATM    3  C4  UNL     1      23.875   2.790  50.031  1.00  0.00     0.069 C 
HETATM    4  C5  UNL     1      23.468   2.522  51.431  1.00  0.00     0.037 C 
HETATM    5  C9  UNL     1      23.095   1.722  52.569  1.00  0.00     0.095 C 
HETATM    6  C10 UNL     1      21.871   0.932  52.662  1.00  0.00    -0.046 A 
HETATM    7  C11 UNL     1      21.985   0.104  53.800  1.00  0.00     0.011 A 
HETATM    8  C12 UNL     1      21.047  -0.785  54.239  1.00  0.00     0.037 A 
HETATM    9  C13 UNL     1      19.876  -0.906  53.529  1.00  0.00     0.068 A 
HETATM   10  C15 UNL     1      19.661  -0.150  52.407  1.00  0.00     0.044 A 
HETATM   11  C16 UNL     1      20.623   0.712  52.021  1.00  0.00    -0.043 A 
HETATM   12  C17 UNL     1      20.527   1.559  50.862  1.00  0.00     0.103 C 
HETATM   13  C18 UNL     1      19.750   1.492  49.679  1.00  0.00     0.050 C 
HETATM   14  C19 UNL     1      20.378   1.837  48.511  1.00  0.00     0.065 C 
ENDROOT
BRANCH   4  15
HETATM   15  N1  UNL     1      23.372   3.783  51.810  1.00  0.00    -0.181 NA
BRANCH  15  16
HETATM   16  N2  UNL     1      24.336   4.735  51.831  1.00  0.00    -0.255 N 
HETATM   17  H7  UNL     1      25.273   4.499  52.220  1.00  0.00     0.191 HD
BRANCH  16  18
HETATM   18  C6  UNL     1      23.935   5.999  51.293  1.00  0.00     0.186 A 
HETATM   19  N3  UNL     1      24.472   7.033  51.066  1.00  0.00    -0.235 NA
HETATM   20  C7  UNL     1      23.849   8.088  50.546  1.00  0.00     0.127 A 
HETATM   21  C8  UNL     1      22.401   7.926  50.245  1.00  0.00     0.072 A 
HETATM   22  S1  UNL     1      22.172   6.140  50.809  1.00  0.00    -0.061 SA
ENDBRANCH  16  18
ENDBRANCH  15  16
ENDBRANCH   4  15
BRANCH   1  23
HETATM   23  O1  UNL     1      22.348   2.551  47.170  1.00  0.00    -0.360 OA
HETATM   24  C1  UNL     1      21.846   3.569  46.337  1.00  0.00     0.209 C 
ENDBRANCH   1  23
BRANCH  13  25
HETATM   25  O3  UNL     1      18.447   1.135  49.476  1.00  0.00    -0.365 OA
HETATM   26  H20 UNL     1      17.897   0.591  50.131  1.00  0.00     0.217 HD
ENDBRANCH  13  25
BRANCH   9  27
HETATM   27  O2  UNL     1      18.850  -1.763  53.862  1.00  0.00    -0.356 OA
HETATM   28  C14 UNL     1      17.595  -1.547  53.200  1.00  0.00     0.210 C 
ENDBRANCH   9  27
TORSDOF 6
ENDMDL
