MODEL 1
REMARK VINA RESULT:      -8.6      0.000      0.000
REMARK  5 active torsions:
REMARK  status: ('A' for Active; 'I' for Inactive)
REMARK    1  A    between atoms: C3_3  and  C4_5 
REMARK    2  A    between atoms: C5_6  and  C6_7 
REMARK    3  A    between atoms: C6_7  and  N1_8 
REMARK    4  A    between atoms: N1_8  and  C7_9 
REMARK    5  A    between atoms: N4_30  and  C22_31 
ROOT
HETATM    1  C7  UNL     1      24.739   2.565  51.395  1.00  0.00     0.477 C 
HETATM    2  C8  UNL     1      23.701   1.673  51.826  1.00  0.00     0.239 C 
HETATM    3  O1  UNL     1      22.743   1.087  50.911  1.00  0.00    -0.350 OA
HETATM    4  C9  UNL     1      21.654   0.397  51.597  1.00  0.00     0.224 A 
HETATM    5  N2  UNL     1      20.544   0.038  52.254  1.00  0.00    -0.238 NA
HETATM    6  C10 UNL     1      19.597   0.924  52.660  1.00  0.00     0.225 A 
HETATM    7  N3  UNL     1      19.670   2.235  52.440  1.00  0.00    -0.263 NA
HETATM    8  C11 UNL     1      20.688   2.872  51.775  1.00  0.00     0.131 A 
HETATM    9  C12 UNL     1      20.282   4.152  51.724  1.00  0.00     0.050 A 
HETATM   10  C13 UNL     1      20.970   4.258  50.596  1.00  0.00     0.100 A 
HETATM   11  C14 UNL     1      21.725   3.593  49.729  1.00  0.00     0.118 A 
HETATM   12  C15 UNL     1      21.553   2.545  50.576  1.00  0.00     0.160 A 
HETATM   13  C16 UNL     1      21.164   1.667  51.685  1.00  0.00     0.110 A 
HETATM   14  O2  UNL     1      22.295   1.979  49.561  1.00  0.00    -0.367 OA
HETATM   15  C17 UNL     1      22.073   1.753  48.180  1.00  0.00     0.196 C 
HETATM   16  C18 UNL     1      22.445   3.077  47.465  1.00  0.00     0.201 C 
HETATM   17  O3  UNL     1      22.298   4.056  48.543  1.00  0.00    -0.347 OA
HETATM   18  O4  UNL     1      20.916   5.625  50.181  1.00  0.00    -0.349 OA
HETATM   19  C19 UNL     1      22.249   6.167  49.903  1.00  0.00     0.177 C 
HETATM   20  C20 UNL     1      23.258   6.049  50.948  1.00  0.00     0.057 C 
HETATM   21  C21 UNL     1      23.803   4.834  51.566  1.00  0.00     0.277 C 
HETATM   22  N4  UNL     1      24.450   3.862  50.783  1.00  0.00     0.124 NA
ENDROOT
BRANCH   1  23
HETATM   23  N1  UNL     1      25.702   2.820  52.505  1.00  0.00     0.122 NA
HETATM   24  H9  UNL     1      26.644   3.043  52.064  1.00  0.00     0.319 HD
BRANCH  23  25
HETATM   25  C6  UNL     1      25.900   1.764  53.403  1.00  0.00     0.300 C 
BRANCH  25  26
HETATM   26  C5  UNL     1      26.827   0.739  52.782  1.00  0.00     0.006 C 
HETATM   27  C4  UNL     1      26.989  -0.475  53.246  1.00  0.00     0.039 C 
BRANCH  27  28
HETATM   28  C3  UNL     1      27.775  -1.638  52.880  1.00  0.00     0.112 C 
HETATM   29  C2  UNL     1      29.047  -1.843  53.084  1.00  0.00     0.011 C 
HETATM   30  C1  UNL     1      30.000  -0.903  53.751  1.00  0.00     0.039 C 
HETATM   31  F1  UNL     1      26.893  -2.485  52.274  1.00  0.00    -0.206 F 
ENDBRANCH  27  28
ENDBRANCH  25  26
ENDBRANCH  23  25
ENDBRANCH   1  23
BRANCH  22  32
HETATM   32  C22 UNL     1      25.691   4.341  50.186  1.00  0.00     0.271 C 
HETATM   33  C23 UNL     1      26.453   3.342  49.404  1.00  0.00     0.037 C 
ENDBRANCH  22  32
TORSDOF 5
ENDMDL
MODEL 2
REMARK VINA RESULT:      -8.3      1.819      2.385
REMARK  5 active torsions:
REMARK  status: ('A' for Active; 'I' for Inactive)
REMARK    1  A    between atoms: C3_3  and  C4_5 
REMARK    2  A    between atoms: C5_6  and  C6_7 
REMARK    3  A    between atoms: C6_7  and  N1_8 
REMARK    4  A    between atoms: N1_8  and  C7_9 
REMARK    5  A    between atoms: N4_30  and  C22_31 
ROOT
HETATM    1  C7  UNL     1      25.208   4.022  49.674  1.00  0.00     0.477 C 
HETATM    2  C8  UNL     1      24.236   2.966  49.687  1.00  0.00     0.239 C 
HETATM    3  O1  UNL     1      23.200   2.845  48.681  1.00  0.00    -0.350 OA
HETATM    4  C9  UNL     1      22.200   1.836  49.019  1.00  0.00     0.224 A 
HETATM    5  N2  UNL     1      21.169   1.128  49.497  1.00  0.00    -0.238 NA
HETATM    6  C10 UNL     1      20.253   1.634  50.364  1.00  0.00     0.225 A 
HETATM    7  N3  UNL     1      20.279   2.886  50.818  1.00  0.00    -0.263 NA
HETATM    8  C11 UNL     1      21.213   3.833  50.477  1.00  0.00     0.131 A 
HETATM    9  C12 UNL     1      20.781   4.942  51.101  1.00  0.00     0.050 A 
HETATM   10  C13 UNL     1      21.348   5.635  50.123  1.00  0.00     0.100 A 
HETATM   11  C14 UNL     1      22.022   5.534  48.984  1.00  0.00     0.118 A 
HETATM   12  C15 UNL     1      21.956   4.197  49.209  1.00  0.00     0.160 A 
HETATM   13  C16 UNL     1      21.698   2.862  49.764  1.00  0.00     0.110 A 
HETATM   14  O2  UNL     1      22.601   4.254  47.993  1.00  0.00    -0.367 OA
HETATM   15  C17 UNL     1      22.243   4.723  46.704  1.00  0.00     0.196 C 
HETATM   16  C18 UNL     1      22.516   6.248  46.713  1.00  0.00     0.201 C 
HETATM   17  O3  UNL     1      22.462   6.557  48.143  1.00  0.00    -0.347 OA
HETATM   18  O4  UNL     1      21.227   7.022  50.447  1.00  0.00    -0.349 OA
HETATM   19  C19 UNL     1      22.515   7.717  50.370  1.00  0.00     0.177 C 
HETATM   20  C20 UNL     1      23.627   7.168  51.134  1.00  0.00     0.057 C 
HETATM   21  C21 UNL     1      24.254   5.845  51.022  1.00  0.00     0.277 C 
HETATM   22  N4  UNL     1      24.835   5.430  49.811  1.00  0.00     0.124 NA
ENDROOT
BRANCH   1  23
HETATM   23  N1  UNL     1      26.275   3.760  50.683  1.00  0.00     0.122 NA
HETATM   24  H9  UNL     1      27.140   4.300  50.379  1.00  0.00     0.319 HD
BRANCH  23  25
HETATM   25  C6  UNL     1      26.652   2.422  50.848  1.00  0.00     0.300 C 
BRANCH  25  26
HETATM   26  C5  UNL     1      27.106   2.197  52.276  1.00  0.00     0.006 C 
HETATM   27  C4  UNL     1      27.156   1.020  52.849  1.00  0.00     0.039 C 
BRANCH  27  28
HETATM   28  C3  UNL     1      27.533   0.508  54.153  1.00  0.00     0.112 C 
HETATM   29  C2  UNL     1      28.640  -0.098  54.487  1.00  0.00     0.011 C 
HETATM   30  C1  UNL     1      29.787  -0.410  53.580  1.00  0.00     0.039 C 
HETATM   31  F1  UNL     1      26.478   0.800  54.967  1.00  0.00    -0.206 F 
ENDBRANCH  27  28
ENDBRANCH  25  26
ENDBRANCH  23  25
ENDBRANCH   1  23
BRANCH  22  32
HETATM   32  C22 UNL     1      26.000   6.222  49.434  1.00  0.00     0.271 C 
HETATM   33  C23 UNL     1      25.897   6.938  48.142  1.00  0.00     0.037 C 
ENDBRANCH  22  32
TORSDOF 5
ENDMDL
MODEL 3
REMARK VINA RESULT:      -8.2      3.349      5.067
REMARK  5 active torsions:
REMARK  status: ('A' for Active; 'I' for Inactive)
REMARK    1  A    between atoms: C3_3  and  C4_5 
REMARK    2  A    between atoms: C5_6  and  C6_7 
REMARK    3  A    between atoms: C6_7  and  N1_8 
REMARK    4  A    between atoms: N1_8  and  C7_9 
REMARK    5  A    between atoms: N4_30  and  C22_31 
ROOT
HETATM    1  C7  UNL     1      26.068   5.557  49.108  1.00  0.00     0.477 C 
HETATM    2  C8  UNL     1      26.273   4.373  49.892  1.00  0.00     0.239 C 
HETATM    3  O1  UNL     1      25.435   3.198  49.769  1.00  0.00    -0.350 OA
HETATM    4  C9  UNL     1      25.689   2.210  50.814  1.00  0.00     0.224 A 
HETATM    5  N2  UNL     1      25.746   1.480  51.935  1.00  0.00    -0.238 NA
HETATM    6  C10 UNL     1      25.091   1.815  53.078  1.00  0.00     0.225 A 
HETATM    7  N3  UNL     1      24.320   2.893  53.199  1.00  0.00    -0.263 NA
HETATM    8  C11 UNL     1      24.071   3.805  52.203  1.00  0.00     0.131 A 
HETATM    9  C12 UNL     1      23.183   4.647  52.759  1.00  0.00     0.050 A 
HETATM   10  C13 UNL     1      22.707   4.849  51.539  1.00  0.00     0.100 A 
HETATM   11  C14 UNL     1      22.833   4.502  50.263  1.00  0.00     0.118 A 
HETATM   12  C15 UNL     1      23.854   3.724  50.707  1.00  0.00     0.160 A 
HETATM   13  C16 UNL     1      24.859   3.030  51.521  1.00  0.00     0.110 A 
HETATM   14  O2  UNL     1      23.821   3.421  49.363  1.00  0.00    -0.367 OA
HETATM   15  C17 UNL     1      22.863   2.824  48.505  1.00  0.00     0.196 C 
HETATM   16  C18 UNL     1      21.899   3.962  48.085  1.00  0.00     0.201 C 
HETATM   17  O3  UNL     1      22.079   4.928  49.169  1.00  0.00    -0.347 OA
HETATM   18  O4  UNL     1      21.708   5.867  51.625  1.00  0.00    -0.349 OA
HETATM   19  C19 UNL     1      21.938   6.945  50.659  1.00  0.00     0.177 C 
HETATM   20  C20 UNL     1      23.244   7.590  50.664  1.00  0.00     0.057 C 
HETATM   21  C21 UNL     1      24.564   6.994  50.420  1.00  0.00     0.277 C 
HETATM   22  N4  UNL     1      24.844   6.354  49.201  1.00  0.00     0.124 NA
ENDROOT
BRANCH   1  23
HETATM   23  N1  UNL     1      27.210   6.501  49.280  1.00  0.00     0.122 NA
HETATM   24  H9  UNL     1      26.800   7.459  49.499  1.00  0.00     0.319 HD
BRANCH  23  25
HETATM   25  C6  UNL     1      28.057   6.651  48.175  1.00  0.00     0.300 C 
BRANCH  25  26
HETATM   26  C5  UNL     1      29.085   5.536  48.172  1.00  0.00     0.006 C 
HETATM   27  C4  UNL     1      30.330   5.693  47.801  1.00  0.00     0.039 C 
BRANCH  27  28
HETATM   28  C3  UNL     1      31.504   4.847  47.694  1.00  0.00     0.112 C 
HETATM   29  C2  UNL     1      32.715   5.099  48.109  1.00  0.00     0.011 C 
HETATM   30  C1  UNL     1      33.175   6.345  48.797  1.00  0.00     0.039 C 
HETATM   31  F1  UNL     1      31.069   3.716  47.066  1.00  0.00    -0.206 F 
ENDBRANCH  27  28
ENDBRANCH  25  26
ENDBRANCH  23  25
ENDBRANCH   1  23
BRANCH  22  32
HETATM   32  C22 UNL     1      24.837   7.265  48.061  1.00  0.00     0.271 C 
HETATM   33  C23 UNL     1      23.765   7.037  47.066  1.00  0.00     0.037 C 
ENDBRANCH  22  32
TORSDOF 5
ENDMDL
MODEL 4
REMARK VINA RESULT:      -8.1      8.044     11.218
REMARK  5 active torsions:
REMARK  status: ('A' for Active; 'I' for Inactive)
REMARK    1  A    between atoms: C3_3  and  C4_5 
REMARK    2  A    between atoms: C5_6  and  C6_7 
REMARK    3  A    between atoms: C6_7  and  N1_8 
REMARK    4  A    between atoms: N1_8  and  C7_9 
REMARK    5  A    between atoms: N4_30  and  C22_31 
ROOT
HETATM    1  C7  UNL     1      30.852   7.005  48.634  1.00  0.00     0.477 C 
HETATM    2  C8  UNL     1      31.694   5.845  48.553  1.00  0.00     0.239 C 
HETATM    3  O1  UNL     1      33.139   5.930  48.499  1.00  0.00    -0.350 OA
HETATM    4  C9  UNL     1      33.769   4.647  48.195  1.00  0.00     0.224 A 
HETATM    5  N2  UNL     1      34.278   3.542  47.637  1.00  0.00    -0.238 NA
HETATM    6  C10 UNL     1      34.252   3.301  46.300  1.00  0.00     0.225 A 
HETATM    7  N3  UNL     1      33.729   4.140  45.408  1.00  0.00    -0.263 NA
HETATM    8  C11 UNL     1      33.158   5.353  45.702  1.00  0.00     0.131 A 
HETATM    9  C12 UNL     1      32.865   5.866  44.494  1.00  0.00     0.050 A 
HETATM   10  C13 UNL     1      33.031   7.065  45.035  1.00  0.00     0.100 A 
HETATM   11  C14 UNL     1      33.354   7.707  46.152  1.00  0.00     0.118 A 
HETATM   12  C15 UNL     1      33.450   6.463  46.689  1.00  0.00     0.160 A 
HETATM   13  C16 UNL     1      33.454   5.014  46.920  1.00  0.00     0.110 A 
HETATM   14  O2  UNL     1      33.822   7.266  47.746  1.00  0.00    -0.367 OA
HETATM   15  C17 UNL     1      34.892   8.166  47.976  1.00  0.00     0.196 C 
HETATM   16  C18 UNL     1      34.460   9.514  47.344  1.00  0.00     0.201 C 
HETATM   17  O3  UNL     1      33.465   9.082  46.361  1.00  0.00    -0.347 OA
HETATM   18  O4  UNL     1      32.682   8.038  44.048  1.00  0.00    -0.349 OA
HETATM   19  C19 UNL     1      31.716   9.016  44.559  1.00  0.00     0.177 C 
HETATM   20  C20 UNL     1      30.486   8.506  45.149  1.00  0.00     0.057 C 
HETATM   21  C21 UNL     1      30.321   7.627  46.314  1.00  0.00     0.277 C 
HETATM   22  N4  UNL     1      30.807   8.014  47.575  1.00  0.00     0.124 NA
ENDROOT
BRANCH   1  23
HETATM   23  N1  UNL     1      29.442   6.607  48.909  1.00  0.00     0.122 NA
HETATM   24  H9  UNL     1      29.370   6.387  49.947  1.00  0.00     0.319 HD
BRANCH  23  25
HETATM   25  C6  UNL     1      28.969   5.490  48.209  1.00  0.00     0.300 C 
BRANCH  25  26
HETATM   26  C5  UNL     1      27.520   5.240  48.576  1.00  0.00     0.006 C 
HETATM   27  C4  UNL     1      27.102   4.175  49.214  1.00  0.00     0.039 C 
BRANCH  27  28
HETATM   28  C3  UNL     1      25.826   3.675  49.689  1.00  0.00     0.112 C 
HETATM   29  C2  UNL     1      25.605   2.839  50.666  1.00  0.00     0.011 C 
HETATM   30  C1  UNL     1      26.641   2.193  51.530  1.00  0.00     0.039 C 
HETATM   31  F1  UNL     1      24.893   4.273  48.892  1.00  0.00    -0.206 F 
ENDBRANCH  27  28
ENDBRANCH  25  26
ENDBRANCH  23  25
ENDBRANCH   1  23
BRANCH  22  32
HETATM   32  C22 UNL     1      30.121   9.179  48.121  1.00  0.00     0.271 C 
HETATM   33  C23 UNL     1      30.914  10.010  49.055  1.00  0.00     0.037 C 
ENDBRANCH  22  32
TORSDOF 5
ENDMDL
MODEL 5
REMARK VINA RESULT:      -7.9      6.834      8.785
REMARK  5 active torsions:
REMARK  status: ('A' for Active; 'I' for Inactive)
REMARK    1  A    between atoms: C3_3  and  C4_5 
REMARK    2  A    between atoms: C5_6  and  C6_7 
REMARK    3  A    between atoms: C6_7  and  N1_8 
REMARK    4  A    between atoms: N1_8  and  C7_9 
REMARK    5  A    between atoms: N4_30  and  C22_31 
ROOT
HETATM    1  C7  UNL     1      30.707   7.726  47.929  1.00  0.00     0.477 C 
HETATM    2  C8  UNL     1      29.596   6.899  48.303  1.00  0.00     0.239 C 
HETATM    3  O1  UNL     1      28.346   6.888  47.569  1.00  0.00    -0.350 OA
HETATM    4  C9  UNL     1      27.293   6.145  48.257  1.00  0.00     0.224 A 
HETATM    5  N2  UNL     1      26.298   5.716  49.042  1.00  0.00    -0.238 NA
HETATM    6  C10 UNL     1      25.717   6.485  50.000  1.00  0.00     0.225 A 
HETATM    7  N3  UNL     1      26.069   7.745  50.249  1.00  0.00    -0.263 NA
HETATM    8  C11 UNL     1      27.047   8.441  49.583  1.00  0.00     0.131 A 
HETATM    9  C12 UNL     1      26.976   9.674  50.114  1.00  0.00     0.050 A 
HETATM   10  C13 UNL     1      27.408  10.131  48.947  1.00  0.00     0.100 A 
HETATM   11  C14 UNL     1      27.765   9.778  47.718  1.00  0.00     0.118 A 
HETATM   12  C15 UNL     1      27.520   8.513  48.146  1.00  0.00     0.160 A 
HETATM   13  C16 UNL     1      27.171   7.324  48.933  1.00  0.00     0.110 A 
HETATM   14  O2  UNL     1      27.858   8.312  46.825  1.00  0.00    -0.367 OA
HETATM   15  C17 UNL     1      27.293   8.709  45.587  1.00  0.00     0.196 C 
HETATM   16  C18 UNL     1      27.823  10.139  45.315  1.00  0.00     0.201 C 
HETATM   17  O3  UNL     1      28.165  10.598  46.662  1.00  0.00    -0.347 OA
HETATM   18  O4  UNL     1      27.613  11.539  49.082  1.00  0.00    -0.349 OA
HETATM   19  C19 UNL     1      28.947  11.945  48.632  1.00  0.00     0.177 C 
HETATM   20  C20 UNL     1      30.094  11.262  49.214  1.00  0.00     0.057 C 
HETATM   21  C21 UNL     1      30.435   9.835  49.166  1.00  0.00     0.277 C 
HETATM   22  N4  UNL     1      30.630   9.187  47.934  1.00  0.00     0.124 NA
ENDROOT
BRANCH   1  23
HETATM   23  N1  UNL     1      31.919   7.357  48.715  1.00  0.00     0.122 NA
HETATM   24  H9  UNL     1      32.754   7.415  48.058  1.00  0.00     0.319 HD
BRANCH  23  25
HETATM   25  C6  UNL     1      31.920   6.077  49.283  1.00  0.00     0.300 C 
BRANCH  25  26
HETATM   26  C5  UNL     1      32.667   5.122  48.373  1.00  0.00     0.006 C 
HETATM   27  C4  UNL     1      32.082   4.226  47.618  1.00  0.00     0.039 C 
BRANCH  27  28
HETATM   28  C3  UNL     1      32.514   3.209  46.677  1.00  0.00     0.112 C 
HETATM   29  C2  UNL     1      32.916   1.995  46.936  1.00  0.00     0.011 C 
HETATM   30  C1  UNL     1      33.028   1.369  48.289  1.00  0.00     0.039 C 
HETATM   31  F1  UNL     1      32.405   3.795  45.449  1.00  0.00    -0.206 F 
ENDBRANCH  27  28
ENDBRANCH  25  26
ENDBRANCH  23  25
ENDBRANCH   1  23
BRANCH  22  32
HETATM   32  C22 UNL     1      31.793   9.681  47.205  1.00  0.00     0.271 C 
HETATM   33  C23 UNL     1      31.727   9.552  45.732  1.00  0.00     0.037 C 
ENDBRANCH  22  32
TORSDOF 5
ENDMDL
MODEL 6
REMARK VINA RESULT:      -7.9      3.959      6.053
REMARK  5 active torsions:
REMARK  status: ('A' for Active; 'I' for Inactive)
REMARK    1  A    between atoms: C3_3  and  C4_5 
REMARK    2  A    between atoms: C5_6  and  C6_7 
REMARK    3  A    between atoms: C6_7  and  N1_8 
REMARK    4  A    between atoms: N1_8  and  C7_9 
REMARK    5  A    between atoms: N4_30  and  C22_31 
ROOT
HETATM    1  C7  UNL     1      26.211   5.545  48.951  1.00  0.00     0.477 C 
HETATM    2  C8  UNL     1      26.364   4.351  49.733  1.00  0.00     0.239 C 
HETATM    3  O1  UNL     1      25.451   3.230  49.636  1.00  0.00    -0.350 OA
HETATM    4  C9  UNL     1      25.672   2.230  50.678  1.00  0.00     0.224 A 
HETATM    5  N2  UNL     1      25.713   1.500  51.799  1.00  0.00    -0.238 NA
HETATM    6  C10 UNL     1      25.111   1.876  52.958  1.00  0.00     0.225 A 
HETATM    7  N3  UNL     1      24.412   3.001  53.096  1.00  0.00    -0.263 NA
HETATM    8  C11 UNL     1      24.193   3.924  52.104  1.00  0.00     0.131 A 
HETATM    9  C12 UNL     1      23.375   4.821  52.681  1.00  0.00     0.050 A 
HETATM   10  C13 UNL     1      22.880   5.050  51.473  1.00  0.00     0.100 A 
HETATM   11  C14 UNL     1      22.950   4.694  50.196  1.00  0.00     0.118 A 
HETATM   12  C15 UNL     1      23.932   3.854  50.614  1.00  0.00     0.160 A 
HETATM   13  C16 UNL     1      24.913   3.101  51.404  1.00  0.00     0.110 A 
HETATM   14  O2  UNL     1      23.844   3.552  49.273  1.00  0.00    -0.367 OA
HETATM   15  C17 UNL     1      22.828   3.015  48.443  1.00  0.00     0.196 C 
HETATM   16  C18 UNL     1      21.925   4.210  48.045  1.00  0.00     0.201 C 
HETATM   17  O3  UNL     1      22.194   5.165  49.121  1.00  0.00    -0.347 OA
HETATM   18  O4  UNL     1      21.948   6.129  51.584  1.00  0.00    -0.349 OA
HETATM   19  C19 UNL     1      22.219   7.189  50.608  1.00  0.00     0.177 C 
HETATM   20  C20 UNL     1      23.562   7.752  50.576  1.00  0.00     0.057 C 
HETATM   21  C21 UNL     1      24.835   7.074  50.299  1.00  0.00     0.277 C 
HETATM   22  N4  UNL     1      25.043   6.416  49.074  1.00  0.00     0.124 NA
ENDROOT
BRANCH   1  23
HETATM   23  N1  UNL     1      27.414   6.416  49.089  1.00  0.00     0.122 NA
HETATM   24  H9  UNL     1      27.086   7.425  49.010  1.00  0.00     0.319 HD
BRANCH  23  25
HETATM   25  C6  UNL     1      28.424   6.228  48.138  1.00  0.00     0.300 C 
BRANCH  25  26
HETATM   26  C5  UNL     1      29.660   7.001  48.554  1.00  0.00     0.006 C 
HETATM   27  C4  UNL     1      29.650   8.267  48.888  1.00  0.00     0.039 C 
BRANCH  27  28
HETATM   28  C3  UNL     1      30.635   9.243  49.316  1.00  0.00     0.112 C 
HETATM   29  C2  UNL     1      30.581  10.541  49.199  1.00  0.00     0.011 C 
HETATM   30  C1  UNL     1      29.471  11.329  48.580  1.00  0.00     0.039 C 
HETATM   31  F1  UNL     1      31.639   8.509  49.878  1.00  0.00    -0.206 F 
ENDBRANCH  27  28
ENDBRANCH  25  26
ENDBRANCH  23  25
ENDBRANCH   1  23
BRANCH  22  32
HETATM   32  C22 UNL     1      25.061   7.324  47.933  1.00  0.00     0.271 C 
HETATM   33  C23 UNL     1      23.898   7.231  47.021  1.00  0.00     0.037 C 
ENDBRANCH  22  32
TORSDOF 5
ENDMDL
MODEL 7
REMARK VINA RESULT:      -7.4      3.873      8.110
REMARK  5 active torsions:
REMARK  status: ('A' for Active; 'I' for Inactive)
REMARK    1  A    between atoms: C3_3  and  C4_5 
REMARK    2  A    between atoms: C5_6  and  C6_7 
REMARK    3  A    between atoms: C6_7  and  N1_8 
REMARK    4  A    between atoms: N1_8  and  C7_9 
REMARK    5  A    between atoms: N4_30  and  C22_31 
ROOT
HETATM    1  C7  UNL     1      18.715   3.329  51.041  1.00  0.00     0.477 C 
HETATM    2  C8  UNL     1      19.430   4.534  50.729  1.00  0.00     0.239 C 
HETATM    3  O1  UNL     1      20.394   4.615  49.651  1.00  0.00    -0.350 OA
HETATM    4  C9  UNL     1      21.153   5.863  49.664  1.00  0.00     0.224 A 
HETATM    5  N2  UNL     1      22.011   6.867  49.883  1.00  0.00    -0.238 NA
HETATM    6  C10 UNL     1      23.032   6.797  50.777  1.00  0.00     0.225 A 
HETATM    7  N3  UNL     1      23.291   5.721  51.519  1.00  0.00    -0.263 NA
HETATM    8  C11 UNL     1      22.583   4.546  51.484  1.00  0.00     0.131 A 
HETATM    9  C12 UNL     1      23.261   3.743  52.323  1.00  0.00     0.050 A 
HETATM   10  C13 UNL     1      22.844   2.725  51.583  1.00  0.00     0.100 A 
HETATM   11  C14 UNL     1      22.143   2.395  50.504  1.00  0.00     0.118 A 
HETATM   12  C15 UNL     1      21.916   3.729  50.397  1.00  0.00     0.160 A 
HETATM   13  C16 UNL     1      21.883   5.183  50.596  1.00  0.00     0.110 A 
HETATM   14  O2  UNL     1      21.278   3.236  49.280  1.00  0.00    -0.367 OA
HETATM   15  C17 UNL     1      21.707   2.546  48.119  1.00  0.00     0.196 C 
HETATM   16  C18 UNL     1      21.778   1.049  48.513  1.00  0.00     0.201 C 
HETATM   17  O3  UNL     1      21.924   1.125  49.967  1.00  0.00    -0.347 OA
HETATM   18  O4  UNL     1      23.274   1.520  52.220  1.00  0.00    -0.349 OA
HETATM   19  C19 UNL     1      22.170   0.574  52.406  1.00  0.00     0.177 C 
HETATM   20  C20 UNL     1      20.978   1.051  53.094  1.00  0.00     0.057 C 
HETATM   21  C21 UNL     1      20.072   2.142  52.714  1.00  0.00     0.277 C 
HETATM   22  N4  UNL     1      19.392   2.111  51.484  1.00  0.00     0.124 NA
ENDROOT
BRANCH   1  23
HETATM   23  N1  UNL     1      17.635   3.605  52.032  1.00  0.00     0.122 NA
HETATM   24  H9  UNL     1      17.207   2.670  52.305  1.00  0.00     0.319 HD
BRANCH  23  25
HETATM   25  C6  UNL     1      16.593   4.431  51.594  1.00  0.00     0.300 C 
BRANCH  25  26
HETATM   26  C5  UNL     1      15.275   3.693  51.722  1.00  0.00     0.006 C 
HETATM   27  C4  UNL     1      14.838   3.170  52.840  1.00  0.00     0.039 C 
BRANCH  27  28
HETATM   28  C3  UNL     1      13.661   2.433  53.260  1.00  0.00     0.112 C 
HETATM   29  C2  UNL     1      12.560   2.906  53.775  1.00  0.00     0.011 C 
HETATM   30  C1  UNL     1      12.260   4.343  54.059  1.00  0.00     0.039 C 
HETATM   31  F1  UNL     1      13.949   1.126  52.994  1.00  0.00    -0.206 F 
ENDBRANCH  27  28
ENDBRANCH  25  26
ENDBRANCH  23  25
ENDBRANCH   1  23
BRANCH  22  32
HETATM   32  C22 UNL     1      18.424   1.024  51.393  1.00  0.00     0.271 C 
HETATM   33  C23 UNL     1      18.023   0.637  50.021  1.00  0.00     0.037 C 
ENDBRANCH  22  32
TORSDOF 5
ENDMDL
MODEL 8
REMARK VINA RESULT:      -7.1      2.263      2.818
REMARK  5 active torsions:
REMARK  status: ('A' for Active; 'I' for Inactive)
REMARK    1  A    between atoms: C3_3  and  C4_5 
REMARK    2  A    between atoms: C5_6  and  C6_7 
REMARK    3  A    between atoms: C6_7  and  N1_8 
REMARK    4  A    between atoms: N1_8  and  C7_9 
REMARK    5  A    between atoms: N4_30  and  C22_31 
ROOT
HETATM    1  C7  UNL     1      23.440   3.330  50.736  1.00  0.00     0.477 C 
HETATM    2  C8  UNL     1      22.371   2.378  50.635  1.00  0.00     0.239 C 
HETATM    3  O1  UNL     1      21.676   2.111  49.392  1.00  0.00    -0.350 OA
HETATM    4  C9  UNL     1      20.490   1.277  49.575  1.00  0.00     0.224 A 
HETATM    5  N2  UNL     1      19.276   0.771  49.823  1.00  0.00    -0.238 NA
HETATM    6  C10 UNL     1      18.223   1.523  50.238  1.00  0.00     0.225 A 
HETATM    7  N3  UNL     1      18.287   2.839  50.432  1.00  0.00    -0.263 NA
HETATM    8  C11 UNL     1      19.401   3.615  50.236  1.00  0.00     0.131 A 
HETATM    9  C12 UNL     1      18.961   4.864  50.467  1.00  0.00     0.050 A 
HETATM   10  C13 UNL     1      19.884   5.279  49.611  1.00  0.00     0.100 A 
HETATM   11  C14 UNL     1      20.847   4.878  48.788  1.00  0.00     0.118 A 
HETATM   12  C15 UNL     1      20.531   3.633  49.229  1.00  0.00     0.160 A 
HETATM   13  C16 UNL     1      19.937   2.478  49.913  1.00  0.00     0.110 A 
HETATM   14  O2  UNL     1      21.511   3.371  48.296  1.00  0.00    -0.367 OA
HETATM   15  C17 UNL     1      21.622   3.566  46.896  1.00  0.00     0.196 C 
HETATM   16  C18 UNL     1      22.089   5.031  46.704  1.00  0.00     0.201 C 
HETATM   17  O3  UNL     1      21.655   5.654  47.956  1.00  0.00    -0.347 OA
HETATM   18  O4  UNL     1      19.866   6.708  49.611  1.00  0.00    -0.349 OA
HETATM   19  C19 UNL     1      21.202   7.273  49.821  1.00  0.00     0.177 C 
HETATM   20  C20 UNL     1      21.948   6.829  50.991  1.00  0.00     0.057 C 
HETATM   21  C21 UNL     1      22.390   5.472  51.337  1.00  0.00     0.277 C 
HETATM   22  N4  UNL     1      23.242   4.757  50.478  1.00  0.00     0.124 NA
ENDROOT
BRANCH   1  23
HETATM   23  N1  UNL     1      24.110   3.223  52.064  1.00  0.00     0.122 NA
HETATM   24  H9  UNL     1      24.238   4.211  52.436  1.00  0.00     0.319 HD
BRANCH  23  25
HETATM   25  C6  UNL     1      25.368   2.606  52.071  1.00  0.00     0.300 C 
BRANCH  25  26
HETATM   26  C5  UNL     1      25.217   1.158  52.491  1.00  0.00     0.006 C 
HETATM   27  C4  UNL     1      24.380   0.748  53.410  1.00  0.00     0.039 C 
BRANCH  27  28
HETATM   28  C3  UNL     1      24.022  -0.526  54.005  1.00  0.00     0.112 C 
HETATM   29  C2  UNL     1      22.839  -0.936  54.373  1.00  0.00     0.011 C 
HETATM   30  C1  UNL     1      21.562  -0.165  54.266  1.00  0.00     0.039 C 
HETATM   31  F1  UNL     1      25.195  -1.216  54.096  1.00  0.00    -0.206 F 
ENDBRANCH  27  28
ENDBRANCH  25  26
ENDBRANCH  23  25
ENDBRANCH   1  23
BRANCH  22  32
HETATM   32  C22 UNL     1      24.565   5.358  50.352  1.00  0.00     0.271 C 
HETATM   33  C23 UNL     1      25.278   5.076  49.085  1.00  0.00     0.037 C 
ENDBRANCH  22  32
TORSDOF 5
ENDMDL
MODEL 9
REMARK VINA RESULT:      -7.0      3.419      6.340
REMARK  5 active torsions:
REMARK  status: ('A' for Active; 'I' for Inactive)
REMARK    1  A    between atoms: C3_3  and  C4_5 
REMARK    2  A    between atoms: C5_6  and  C6_7 
REMARK    3  A    between atoms: C6_7  and  N1_8 
REMARK    4  A    between atoms: N1_8  and  C7_9 
REMARK    5  A    between atoms: N4_30  and  C22_31 
ROOT
HETATM    1  C7  UNL     1      18.867   0.785  52.407  1.00  0.00     0.477 C 
HETATM    2  C8  UNL     1      19.654   1.935  52.065  1.00  0.00     0.239 C 
HETATM    3  O1  UNL     1      19.126   3.284  52.103  1.00  0.00    -0.350 OA
HETATM    4  C9  UNL     1      20.031   4.262  51.505  1.00  0.00     0.224 A 
HETATM    5  N2  UNL     1      20.744   5.061  50.701  1.00  0.00    -0.238 NA
HETATM    6  C10 UNL     1      20.621   5.062  49.348  1.00  0.00     0.225 A 
HETATM    7  N3  UNL     1      19.775   4.277  48.683  1.00  0.00    -0.263 NA
HETATM    8  C11 UNL     1      18.913   3.376  49.256  1.00  0.00     0.131 A 
HETATM    9  C12 UNL     1      18.215   2.897  48.212  1.00  0.00     0.050 A 
HETATM   10  C13 UNL     1      17.208   2.711  49.054  1.00  0.00     0.100 A 
HETATM   11  C14 UNL     1      16.816   2.864  50.314  1.00  0.00     0.118 A 
HETATM   12  C15 UNL     1      18.067   3.352  50.512  1.00  0.00     0.160 A 
HETATM   13  C16 UNL     1      19.455   3.804  50.356  1.00  0.00     0.110 A 
HETATM   14  O2  UNL     1      17.497   3.502  51.758  1.00  0.00    -0.367 OA
HETATM   15  C17 UNL     1      16.409   4.256  52.264  1.00  0.00     0.196 C 
HETATM   16  C18 UNL     1      15.139   3.412  51.987  1.00  0.00     0.201 C 
HETATM   17  O3  UNL     1      15.576   2.560  50.879  1.00  0.00    -0.347 OA
HETATM   18  O4  UNL     1      16.162   2.047  48.341  1.00  0.00    -0.349 OA
HETATM   19  C19 UNL     1      15.693   0.850  49.044  1.00  0.00     0.177 C 
HETATM   20  C20 UNL     1      16.686  -0.145  49.422  1.00  0.00     0.057 C 
HETATM   21  C21 UNL     1      17.847   0.006  50.308  1.00  0.00     0.277 C 
HETATM   22  N4  UNL     1      17.678   0.398  51.648  1.00  0.00     0.124 NA
ENDROOT
BRANCH   1  23
HETATM   23  N1  UNL     1      19.729  -0.428  52.503  1.00  0.00     0.122 NA
HETATM   24  H9  UNL     1      19.167  -1.249  52.126  1.00  0.00     0.319 HD
BRANCH  23  25
HETATM   25  C6  UNL     1      20.167  -0.773  53.787  1.00  0.00     0.300 C 
BRANCH  25  26
HETATM   26  C5  UNL     1      21.547  -0.194  54.024  1.00  0.00     0.006 C 
HETATM   27  C4  UNL     1      22.523  -0.255  53.152  1.00  0.00     0.039 C 
BRANCH  27  28
HETATM   28  C3  UNL     1      23.902   0.192  53.094  1.00  0.00     0.112 C 
HETATM   29  C2  UNL     1      24.347   1.395  52.856  1.00  0.00     0.011 C 
HETATM   30  C1  UNL     1      23.516   2.607  52.580  1.00  0.00     0.039 C 
HETATM   31  F1  UNL     1      24.646  -0.924  53.348  1.00  0.00    -0.206 F 
ENDBRANCH  27  28
ENDBRANCH  25  26
ENDBRANCH  23  25
ENDBRANCH   1  23
BRANCH  22  32
HETATM   32  C22 UNL     1      16.961  -0.590  52.446  1.00  0.00     0.271 C 
HETATM   33  C23 UNL     1      15.578  -0.223  52.827  1.00  0.00     0.037 C 
ENDBRANCH  22  32
TORSDOF 5
ENDMDL
