MODEL 1
REMARK VINA RESULT:      -8.5      0.000      0.000
REMARK  6 active torsions:
REMARK  status: ('A' for Active; 'I' for Inactive)
REMARK    1  A    between atoms: C5_6  and  C6_7 
REMARK    2  A    between atoms: C6_7  and  O1_8 
REMARK    3  A    between atoms: O1_8  and  C7_9 
REMARK    4  A    between atoms: C10_12  and  N1_13 
REMARK    5  A    between atoms: N1_13  and  C11_14 
REMARK    6  A    between atoms: C13_16  and  C17_22 
ROOT
HETATM    1  C7  UNL     1      24.067   0.007  53.391  1.00  0.00     0.091 A 
HETATM    2  C8  UNL     1      24.072   0.916  52.356  1.00  0.00     0.041 A 
HETATM    3  C9  UNL     1      22.874   1.499  52.005  1.00  0.00     0.032 A 
HETATM    4  C10 UNL     1      21.664   1.247  52.608  1.00  0.00     0.030 A 
HETATM    5  C18 UNL     1      21.692   0.334  53.638  1.00  0.00     0.056 A 
HETATM    6  C19 UNL     1      22.868  -0.276  54.025  1.00  0.00     0.069 A 
HETATM    7 CL1  UNL     1      22.805  -1.424  55.347  1.00  0.00    -0.081 Cl
ENDROOT
BRANCH   4   8
HETATM    8  N1  UNL     1      20.441   1.854  52.235  1.00  0.00    -0.383 N 
HETATM    9  H8  UNL     1      20.119   2.711  52.712  1.00  0.00     0.160 HD
BRANCH   8  10
HETATM   10  C11 UNL     1      19.753   1.040  51.068  1.00  0.00     0.116 A 
HETATM   11  C12 UNL     1      18.727   0.817  51.292  1.00  0.00     0.038 A 
HETATM   12  C13 UNL     1      18.069   0.694  51.436  1.00  0.00     0.038 A 
HETATM   13  C14 UNL     1      17.014   0.528  51.671  1.00  0.00     0.095 A 
HETATM   14  C17 UNL     1      18.131   2.399  51.460  1.00  0.00     0.083 A 
HETATM   15  S1  UNL     1      15.652   1.403  50.716  1.00  0.00    -0.132 SA
HETATM   16  C15 UNL     1      15.672   3.023  51.401  1.00  0.00     0.064 C 
HETATM   17  C16 UNL     1      16.374   3.993  51.884  1.00  0.00     0.118 C 
HETATM   18  N2  UNL     1      17.707   3.540  51.848  1.00  0.00    -0.288 NA
ENDBRANCH   8  10
ENDBRANCH   4   8
BRANCH   1  19
HETATM   19  O1  UNL     1      25.190  -0.655  53.851  1.00  0.00    -0.345 OA
BRANCH  19  20
HETATM   20  C6  UNL     1      26.101  -1.138  52.884  1.00  0.00     0.214 C 
BRANCH  20  21
HETATM   21  C5  UNL     1      27.498  -0.656  53.152  1.00  0.00    -0.031 A 
HETATM   22  C4  UNL     1      28.611  -1.465  53.193  1.00  0.00     0.009 A 
HETATM   23  C3  UNL     1      29.843  -0.891  53.452  1.00  0.00     0.004 A 
HETATM   24  C2  UNL     1      30.004   0.478  53.672  1.00  0.00     0.042 A 
HETATM   25  C1  UNL     1      28.884   1.296  53.631  1.00  0.00     0.117 A 
HETATM   26  F1  UNL     1      28.962   2.644  53.837  1.00  0.00    -0.206 F 
HETATM   27  C20 UNL     1      27.655   0.715  53.372  1.00  0.00     0.051 A 
ENDBRANCH  20  21
ENDBRANCH  19  20
ENDBRANCH   1  19
TORSDOF 6
ENDMDL
MODEL 2
REMARK VINA RESULT:      -8.4      1.901      2.293
REMARK  6 active torsions:
REMARK  status: ('A' for Active; 'I' for Inactive)
REMARK    1  A    between atoms: C5_6  and  C6_7 
REMARK    2  A    between atoms: C6_7  and  O1_8 
REMARK    3  A    between atoms: O1_8  and  C7_9 
REMARK    4  A    between atoms: C10_12  and  N1_13 
REMARK    5  A    between atoms: N1_13  and  C11_14 
REMARK    6  A    between atoms: C13_16  and  C17_22 
ROOT
HETATM    1  C7  UNL     1      23.569   0.004  53.368  1.00  0.00     0.091 A 
HETATM    2  C8  UNL     1      23.085   0.617  52.234  1.00  0.00     0.041 A 
HETATM    3  C9  UNL     1      21.731   0.544  51.990  1.00  0.00     0.032 A 
HETATM    4  C10 UNL     1      20.815  -0.096  52.793  1.00  0.00     0.030 A 
HETATM    5  C18 UNL     1      21.330  -0.699  53.918  1.00  0.00     0.056 A 
HETATM    6  C19 UNL     1      22.679  -0.652  54.203  1.00  0.00     0.069 A 
HETATM    7 CL1  UNL     1      23.242  -1.449  55.660  1.00  0.00    -0.081 Cl
ENDROOT
BRANCH   4   8
HETATM    8  N1  UNL     1      19.426  -0.163  52.528  1.00  0.00    -0.383 N 
HETATM    9  H8  UNL     1      18.818  -0.775  53.093  1.00  0.00     0.160 HD
BRANCH   8  10
HETATM   10  C11 UNL     1      19.048   0.790  51.326  1.00  0.00     0.116 A 
HETATM   11  C12 UNL     1      18.248   0.385  50.735  1.00  0.00     0.038 A 
HETATM   12  C13 UNL     1      17.727   0.126  50.374  1.00  0.00     0.038 A 
HETATM   13  C14 UNL     1      16.878  -0.290  49.825  1.00  0.00     0.095 A 
HETATM   14  C17 UNL     1      17.045   0.286  51.930  1.00  0.00     0.083 A 
HETATM   15  S1  UNL     1      15.183   0.520  49.887  1.00  0.00    -0.132 SA
HETATM   16  C15 UNL     1      14.566   0.016  51.455  1.00  0.00     0.064 C 
HETATM   17  C16 UNL     1      14.822  -0.247  52.694  1.00  0.00     0.118 C 
HETATM   18  N2  UNL     1      16.208  -0.045  52.837  1.00  0.00    -0.288 NA
ENDBRANCH   8  10
ENDBRANCH   4   8
BRANCH   1  19
HETATM   19  O1  UNL     1      24.900  -0.006  53.740  1.00  0.00    -0.345 OA
BRANCH  19  20
HETATM   20  C6  UNL     1      25.813   0.679  52.905  1.00  0.00     0.214 C 
BRANCH  20  21
HETATM   21  C5  UNL     1      27.223   0.211  53.126  1.00  0.00    -0.031 A 
HETATM   22  C4  UNL     1      28.284   1.035  53.426  1.00  0.00     0.009 A 
HETATM   23  C3  UNL     1      29.535   0.471  53.605  1.00  0.00     0.004 A 
HETATM   24  C2  UNL     1      29.766  -0.900  53.493  1.00  0.00     0.042 A 
HETATM   25  C1  UNL     1      28.698  -1.733  53.190  1.00  0.00     0.117 A 
HETATM   26  F1  UNL     1      28.846  -3.085  53.064  1.00  0.00    -0.206 F 
HETATM   27  C20 UNL     1      27.450  -1.164  53.013  1.00  0.00     0.051 A 
ENDBRANCH  20  21
ENDBRANCH  19  20
ENDBRANCH   1  19
TORSDOF 6
ENDMDL
MODEL 3
REMARK VINA RESULT:      -8.2      2.064      2.442
REMARK  6 active torsions:
REMARK  status: ('A' for Active; 'I' for Inactive)
REMARK    1  A    between atoms: C5_6  and  C6_7 
REMARK    2  A    between atoms: C6_7  and  O1_8 
REMARK    3  A    between atoms: O1_8  and  C7_9 
REMARK    4  A    between atoms: C10_12  and  N1_13 
REMARK    5  A    between atoms: N1_13  and  C11_14 
REMARK    6  A    between atoms: C13_16  and  C17_22 
ROOT
HETATM    1  C7  UNL     1      23.630  -0.342  53.857  1.00  0.00     0.091 A 
HETATM    2  C8  UNL     1      22.736  -1.193  54.466  1.00  0.00     0.041 A 
HETATM    3  C9  UNL     1      21.393  -1.005  54.216  1.00  0.00     0.032 A 
HETATM    4  C10 UNL     1      20.869  -0.027  53.403  1.00  0.00     0.030 A 
HETATM    5  C18 UNL     1      21.789   0.809  52.810  1.00  0.00     0.056 A 
HETATM    6  C19 UNL     1      23.143   0.658  53.030  1.00  0.00     0.069 A 
HETATM    7 CL1  UNL     1      24.237   1.770  52.231  1.00  0.00    -0.081 Cl
ENDROOT
BRANCH   4   8
HETATM    8  N1  UNL     1      19.488   0.155  53.157  1.00  0.00    -0.383 N 
HETATM    9  H8  UNL     1      19.117   1.092  52.936  1.00  0.00     0.160 HD
BRANCH   8  10
HETATM   10  C11 UNL     1      18.720  -1.222  53.277  1.00  0.00     0.116 A 
HETATM   11  C12 UNL     1      17.671  -1.109  53.083  1.00  0.00     0.038 A 
HETATM   12  C13 UNL     1      17.005  -1.030  52.940  1.00  0.00     0.038 A 
HETATM   13  C14 UNL     1      15.951  -0.891  52.687  1.00  0.00     0.095 A 
HETATM   14  C17 UNL     1      17.747  -0.509  51.495  1.00  0.00     0.083 A 
HETATM   15  S1  UNL     1      15.227  -1.598  51.103  1.00  0.00    -0.132 SA
HETATM   16  C15 UNL     1      15.792  -0.472  49.876  1.00  0.00     0.064 C 
HETATM   17  C16 UNL     1      16.742   0.297  49.458  1.00  0.00     0.118 C 
HETATM   18  N2  UNL     1      17.766   0.177  50.417  1.00  0.00    -0.288 NA
ENDBRANCH   8  10
ENDBRANCH   4   8
BRANCH   1  19
HETATM   19  O1  UNL     1      25.001  -0.410  54.014  1.00  0.00    -0.345 OA
BRANCH  19  20
HETATM   20  C6  UNL     1      25.753  -0.932  52.936  1.00  0.00     0.214 C 
BRANCH  20  21
HETATM   21  C5  UNL     1      27.229  -0.786  53.169  1.00  0.00    -0.031 A 
HETATM   22  C4  UNL     1      28.148  -1.801  53.034  1.00  0.00     0.009 A 
HETATM   23  C3  UNL     1      29.483  -1.530  53.280  1.00  0.00     0.004 A 
HETATM   24  C2  UNL     1      29.936  -0.267  53.662  1.00  0.00     0.042 A 
HETATM   25  C1  UNL     1      29.012   0.759  53.800  1.00  0.00     0.117 A 
HETATM   26  F1  UNL     1      29.378   2.022  54.170  1.00  0.00    -0.206 F 
HETATM   27  C20 UNL     1      27.679   0.482  53.551  1.00  0.00     0.051 A 
ENDBRANCH  20  21
ENDBRANCH  19  20
ENDBRANCH   1  19
TORSDOF 6
ENDMDL
MODEL 4
REMARK VINA RESULT:      -8.1      6.971      8.971
REMARK  6 active torsions:
REMARK  status: ('A' for Active; 'I' for Inactive)
REMARK    1  A    between atoms: C5_6  and  C6_7 
REMARK    2  A    between atoms: C6_7  and  O1_8 
REMARK    3  A    between atoms: O1_8  and  C7_9 
REMARK    4  A    between atoms: C10_12  and  N1_13 
REMARK    5  A    between atoms: N1_13  and  C11_14 
REMARK    6  A    between atoms: C13_16  and  C17_22 
ROOT
HETATM    1  C7  UNL     1      25.282   3.106  50.902  1.00  0.00     0.091 A 
HETATM    2  C8  UNL     1      26.387   2.844  50.124  1.00  0.00     0.041 A 
HETATM    3  C9  UNL     1      26.877   3.862  49.335  1.00  0.00     0.032 A 
HETATM    4  C10 UNL     1      26.347   5.129  49.259  1.00  0.00     0.030 A 
HETATM    5  C18 UNL     1      25.242   5.360  50.047  1.00  0.00     0.056 A 
HETATM    6  C19 UNL     1      24.717   4.371  50.854  1.00  0.00     0.069 A 
HETATM    7 CL1  UNL     1      23.308   4.758  51.822  1.00  0.00    -0.081 Cl
ENDROOT
BRANCH   4   8
HETATM    8  N1  UNL     1      26.861   6.165  48.442  1.00  0.00    -0.383 N 
HETATM    9  H8  UNL     1      26.237   6.908  48.089  1.00  0.00     0.160 HD
BRANCH   8  10
HETATM   10  C11 UNL     1      28.412   5.967  48.212  1.00  0.00     0.116 A 
HETATM   11  C12 UNL     1      28.824   6.747  47.601  1.00  0.00     0.038 A 
HETATM   12  C13 UNL     1      29.081   7.258  47.224  1.00  0.00     0.038 A 
HETATM   13  C14 UNL     1      29.479   8.094  46.642  1.00  0.00     0.095 A 
HETATM   14  C17 UNL     1      28.446   8.089  48.572  1.00  0.00     0.083 A 
HETATM   15  S1  UNL     1      30.620   9.369  47.420  1.00  0.00    -0.132 SA
HETATM   16  C15 UNL     1      29.510  10.381  48.335  1.00  0.00     0.064 C 
HETATM   17  C16 UNL     1      28.441  10.450  49.057  1.00  0.00     0.118 C 
HETATM   18  N2  UNL     1      27.959   9.129  49.132  1.00  0.00    -0.288 NA
ENDBRANCH   8  10
ENDBRANCH   4   8
BRANCH   1  19
HETATM   19  O1  UNL     1      24.683   2.185  51.740  1.00  0.00    -0.345 OA
BRANCH  19  20
HETATM   20  C6  UNL     1      25.238   2.023  53.030  1.00  0.00     0.214 C 
BRANCH  20  21
HETATM   21  C5  UNL     1      26.246   0.911  53.063  1.00  0.00    -0.031 A 
HETATM   22  C4  UNL     1      25.996  -0.385  52.672  1.00  0.00     0.009 A 
HETATM   23  C3  UNL     1      27.017  -1.315  52.754  1.00  0.00     0.004 A 
HETATM   24  C2  UNL     1      28.293  -0.993  53.217  1.00  0.00     0.042 A 
HETATM   25  C1  UNL     1      28.549   0.313  53.612  1.00  0.00     0.117 A 
HETATM   26  F1  UNL     1      29.772   0.704  54.077  1.00  0.00    -0.206 F 
HETATM   27  C20 UNL     1      27.523   1.238  53.528  1.00  0.00     0.051 A 
ENDBRANCH  20  21
ENDBRANCH  19  20
ENDBRANCH   1  19
TORSDOF 6
ENDMDL
MODEL 5
REMARK VINA RESULT:      -8.1      7.173      9.797
REMARK  6 active torsions:
REMARK  status: ('A' for Active; 'I' for Inactive)
REMARK    1  A    between atoms: C5_6  and  C6_7 
REMARK    2  A    between atoms: C6_7  and  O1_8 
REMARK    3  A    between atoms: O1_8  and  C7_9 
REMARK    4  A    between atoms: C10_12  and  N1_13 
REMARK    5  A    between atoms: N1_13  and  C11_14 
REMARK    6  A    between atoms: C13_16  and  C17_22 
ROOT
HETATM    1  C7  UNL     1      24.930   3.106  50.459  1.00  0.00     0.091 A 
HETATM    2  C8  UNL     1      26.116   2.893  49.794  1.00  0.00     0.041 A 
HETATM    3  C9  UNL     1      26.823   3.997  49.366  1.00  0.00     0.032 A 
HETATM    4  C10 UNL     1      26.436   5.304  49.549  1.00  0.00     0.030 A 
HETATM    5  C18 UNL     1      25.245   5.484  50.216  1.00  0.00     0.056 A 
HETATM    6  C19 UNL     1      24.504   4.409  50.663  1.00  0.00     0.069 A 
HETATM    7 CL1  UNL     1      23.000   4.737  51.503  1.00  0.00    -0.081 Cl
ENDROOT
BRANCH   4   8
HETATM    8  N1  UNL     1      27.172   6.427  49.102  1.00  0.00    -0.383 N 
HETATM    9  H8  UNL     1      26.843   7.383  49.312  1.00  0.00     0.160 HD
BRANCH   8  10
HETATM   10  C11 UNL     1      28.457   5.964  48.308  1.00  0.00     0.116 A 
HETATM   11  C12 UNL     1      28.765   6.698  47.588  1.00  0.00     0.038 A 
HETATM   12  C13 UNL     1      28.962   7.180  47.143  1.00  0.00     0.038 A 
HETATM   13  C14 UNL     1      29.279   7.969  46.456  1.00  0.00     0.095 A 
HETATM   14  C17 UNL     1      29.046   8.009  48.632  1.00  0.00     0.083 A 
HETATM   15  S1  UNL     1      30.856   8.947  46.753  1.00  0.00    -0.132 SA
HETATM   16  C15 UNL     1      30.386  10.074  48.018  1.00  0.00     0.064 C 
HETATM   17  C16 UNL     1      29.694  10.285  49.088  1.00  0.00     0.118 C 
HETATM   18  N2  UNL     1      29.018   9.075  49.336  1.00  0.00    -0.288 NA
ENDBRANCH   8  10
ENDBRANCH   4   8
BRANCH   1  19
HETATM   19  O1  UNL     1      24.117   2.099  50.944  1.00  0.00    -0.345 OA
BRANCH  19  20
HETATM   20  C6  UNL     1      24.536   1.437  52.122  1.00  0.00     0.214 C 
BRANCH  20  21
HETATM   21  C5  UNL     1      23.372   0.869  52.881  1.00  0.00    -0.031 A 
HETATM   22  C4  UNL     1      22.074   1.315  52.774  1.00  0.00     0.009 A 
HETATM   23  C3  UNL     1      21.094   0.701  53.533  1.00  0.00     0.004 A 
HETATM   24  C2  UNL     1      21.367  -0.353  54.406  1.00  0.00     0.042 A 
HETATM   25  C1  UNL     1      22.675  -0.804  54.517  1.00  0.00     0.117 A 
HETATM   26  F1  UNL     1      23.020  -1.830  55.349  1.00  0.00    -0.206 F 
HETATM   27  C20 UNL     1      23.650  -0.186  53.754  1.00  0.00     0.051 A 
ENDBRANCH  20  21
ENDBRANCH  19  20
ENDBRANCH   1  19
TORSDOF 6
ENDMDL
MODEL 6
REMARK VINA RESULT:      -8.1      2.438      3.022
REMARK  6 active torsions:
REMARK  status: ('A' for Active; 'I' for Inactive)
REMARK    1  A    between atoms: C5_6  and  C6_7 
REMARK    2  A    between atoms: C6_7  and  O1_8 
REMARK    3  A    between atoms: O1_8  and  C7_9 
REMARK    4  A    between atoms: C10_12  and  N1_13 
REMARK    5  A    between atoms: N1_13  and  C11_14 
REMARK    6  A    between atoms: C13_16  and  C17_22 
ROOT
HETATM    1  C7  UNL     1      24.213   1.896  51.969  1.00  0.00     0.091 A 
HETATM    2  C8  UNL     1      23.774   1.052  52.965  1.00  0.00     0.041 A 
HETATM    3  C9  UNL     1      22.542   0.455  52.806  1.00  0.00     0.032 A 
HETATM    4  C10 UNL     1      21.708   0.634  51.727  1.00  0.00     0.030 A 
HETATM    5  C18 UNL     1      22.175   1.484  50.749  1.00  0.00     0.056 A 
HETATM    6  C19 UNL     1      23.403   2.104  50.865  1.00  0.00     0.069 A 
HETATM    7 CL1  UNL     1      23.913   3.169  49.569  1.00  0.00    -0.081 Cl
ENDROOT
BRANCH   4   8
HETATM    8  N1  UNL     1      20.445   0.014  51.578  1.00  0.00    -0.383 N 
HETATM    9  H8  UNL     1      20.342  -1.001  51.736  1.00  0.00     0.160 HD
BRANCH   8  10
HETATM   10  C11 UNL     1      19.351   1.079  51.169  1.00  0.00     0.116 A 
HETATM   11  C12 UNL     1      18.510   0.618  50.687  1.00  0.00     0.038 A 
HETATM   12  C13 UNL     1      17.971   0.313  50.396  1.00  0.00     0.038 A 
HETATM   13  C14 UNL     1      17.107  -0.192  49.955  1.00  0.00     0.095 A 
HETATM   14  C17 UNL     1      18.013  -0.423  51.935  1.00  0.00     0.083 A 
HETATM   15  S1  UNL     1      15.461  -0.278  50.859  1.00  0.00    -0.132 SA
HETATM   16  C15 UNL     1      15.736  -1.538  52.055  1.00  0.00     0.064 C 
HETATM   17  C16 UNL     1      16.561  -2.102  52.873  1.00  0.00     0.118 C 
HETATM   18  N2  UNL     1      17.768  -1.391  52.732  1.00  0.00    -0.288 NA
ENDBRANCH   8  10
ENDBRANCH   4   8
BRANCH   1  19
HETATM   19  O1  UNL     1      25.423   2.563  51.992  1.00  0.00    -0.345 OA
BRANCH  19  20
HETATM   20  C6  UNL     1      26.536   1.910  51.414  1.00  0.00     0.214 C 
BRANCH  20  21
HETATM   21  C5  UNL     1      27.376   1.224  52.452  1.00  0.00    -0.031 A 
HETATM   22  C4  UNL     1      27.362  -0.129  52.702  1.00  0.00     0.009 A 
HETATM   23  C3  UNL     1      28.188  -0.633  53.691  1.00  0.00     0.004 A 
HETATM   24  C2  UNL     1      29.037   0.175  54.447  1.00  0.00     0.042 A 
HETATM   25  C1  UNL     1      29.053   1.541  54.198  1.00  0.00     0.117 A 
HETATM   26  F1  UNL     1      29.857   2.397  54.896  1.00  0.00    -0.206 F 
HETATM   27  C20 UNL     1      28.225   2.038  53.207  1.00  0.00     0.051 A 
ENDBRANCH  20  21
ENDBRANCH  19  20
ENDBRANCH   1  19
TORSDOF 6
ENDMDL
MODEL 7
REMARK VINA RESULT:      -8.0      7.385     10.002
REMARK  6 active torsions:
REMARK  status: ('A' for Active; 'I' for Inactive)
REMARK    1  A    between atoms: C5_6  and  C6_7 
REMARK    2  A    between atoms: C6_7  and  O1_8 
REMARK    3  A    between atoms: O1_8  and  C7_9 
REMARK    4  A    between atoms: C10_12  and  N1_13 
REMARK    5  A    between atoms: N1_13  and  C11_14 
REMARK    6  A    between atoms: C13_16  and  C17_22 
ROOT
HETATM    1  C7  UNL     1      24.939   3.980  50.394  1.00  0.00     0.091 A 
HETATM    2  C8  UNL     1      26.080   3.369  49.927  1.00  0.00     0.041 A 
HETATM    3  C9  UNL     1      26.968   4.131  49.198  1.00  0.00     0.032 A 
HETATM    4  C10 UNL     1      26.805   5.463  48.897  1.00  0.00     0.030 A 
HETATM    5  C18 UNL     1      25.654   6.046  49.378  1.00  0.00     0.056 A 
HETATM    6  C19 UNL     1      24.737   5.322  50.112  1.00  0.00     0.069 A 
HETATM    7 CL1  UNL     1      23.300   6.149  50.682  1.00  0.00    -0.081 Cl
ENDROOT
BRANCH   4   8
HETATM    8  N1  UNL     1      27.726   6.233  48.147  1.00  0.00    -0.383 N 
HETATM    9  H8  UNL     1      27.408   7.070  47.634  1.00  0.00     0.160 HD
BRANCH   8  10
HETATM   10  C11 UNL     1      29.176   5.612  48.249  1.00  0.00     0.116 A 
HETATM   11  C12 UNL     1      29.901   6.211  47.730  1.00  0.00     0.038 A 
HETATM   12  C13 UNL     1      30.358   6.608  47.411  1.00  0.00     0.038 A 
HETATM   13  C14 UNL     1      31.079   7.266  46.918  1.00  0.00     0.095 A 
HETATM   14  C17 UNL     1      29.721   7.667  48.588  1.00  0.00     0.083 A 
HETATM   15  S1  UNL     1      32.348   8.238  47.907  1.00  0.00    -0.132 SA
HETATM   16  C15 UNL     1      31.402   9.569  48.560  1.00  0.00     0.064 C 
HETATM   17  C16 UNL     1      30.272   9.969  49.041  1.00  0.00     0.118 C 
HETATM   18  N2  UNL     1      29.439   8.834  49.025  1.00  0.00    -0.288 NA
ENDBRANCH   8  10
ENDBRANCH   4   8
BRANCH   1  19
HETATM   19  O1  UNL     1      23.962   3.343  51.136  1.00  0.00    -0.345 OA
BRANCH  19  20
HETATM   20  C6  UNL     1      24.104   3.354  52.543  1.00  0.00     0.214 C 
BRANCH  20  21
HETATM   21  C5  UNL     1      24.554   2.019  53.064  1.00  0.00    -0.031 A 
HETATM   22  C4  UNL     1      25.775   1.778  53.651  1.00  0.00     0.009 A 
HETATM   23  C3  UNL     1      26.063   0.497  54.088  1.00  0.00     0.004 A 
HETATM   24  C2  UNL     1      25.164  -0.563  53.958  1.00  0.00     0.042 A 
HETATM   25  C1  UNL     1      23.932  -0.323  53.366  1.00  0.00     0.117 A 
HETATM   26  F1  UNL     1      23.001  -1.308  53.204  1.00  0.00    -0.206 F 
HETATM   27  C20 UNL     1      23.650   0.961  52.932  1.00  0.00     0.051 A 
ENDBRANCH  20  21
ENDBRANCH  19  20
ENDBRANCH   1  19
TORSDOF 6
ENDMDL
MODEL 8
REMARK VINA RESULT:      -8.0      8.038     10.053
REMARK  6 active torsions:
REMARK  status: ('A' for Active; 'I' for Inactive)
REMARK    1  A    between atoms: C5_6  and  C6_7 
REMARK    2  A    between atoms: C6_7  and  O1_8 
REMARK    3  A    between atoms: O1_8  and  C7_9 
REMARK    4  A    between atoms: C10_12  and  N1_13 
REMARK    5  A    between atoms: N1_13  and  C11_14 
REMARK    6  A    between atoms: C13_16  and  C17_22 
ROOT
HETATM    1  C7  UNL     1      26.150   4.203  49.717  1.00  0.00     0.091 A 
HETATM    2  C8  UNL     1      27.211   4.527  48.902  1.00  0.00     0.041 A 
HETATM    3  C9  UNL     1      27.363   5.847  48.536  1.00  0.00     0.032 A 
HETATM    4  C10 UNL     1      26.535   6.876  48.921  1.00  0.00     0.030 A 
HETATM    5  C18 UNL     1      25.484   6.520  49.736  1.00  0.00     0.056 A 
HETATM    6  C19 UNL     1      25.292   5.211  50.128  1.00  0.00     0.069 A 
HETATM    7 CL1  UNL     1      23.925   4.853  51.166  1.00  0.00    -0.081 Cl
ENDROOT
BRANCH   4   8
HETATM    8  N1  UNL     1      26.705   8.227  48.536  1.00  0.00    -0.383 N 
HETATM    9  H8  UNL     1      26.450   8.533  47.584  1.00  0.00     0.160 HD
BRANCH   8  10
HETATM   10  C11 UNL     1      27.297   9.072  49.734  1.00  0.00     0.116 A 
HETATM   11  C12 UNL     1      28.339   9.284  49.592  1.00  0.00     0.038 A 
HETATM   12  C13 UNL     1      29.000   9.429  49.485  1.00  0.00     0.038 A 
HETATM   13  C14 UNL     1      30.047   9.671  49.286  1.00  0.00     0.095 A 
HETATM   14  C17 UNL     1      28.249  10.146  48.130  1.00  0.00     0.083 A 
HETATM   15  S1  UNL     1      30.585  11.430  48.897  1.00  0.00    -0.132 SA
HETATM   16  C15 UNL     1      30.098  11.627  47.219  1.00  0.00     0.064 C 
HETATM   17  C16 UNL     1      29.231  11.364  46.298  1.00  0.00     0.118 C 
HETATM   18  N2  UNL     1      28.257  10.563  46.923  1.00  0.00    -0.288 NA
ENDBRANCH   8  10
ENDBRANCH   4   8
BRANCH   1  19
HETATM   19  O1  UNL     1      25.873   2.925  50.163  1.00  0.00    -0.345 OA
BRANCH  19  20
HETATM   20  C6  UNL     1      26.676   2.413  51.209  1.00  0.00     0.214 C 
BRANCH  20  21
HETATM   21  C5  UNL     1      25.961   1.343  51.983  1.00  0.00    -0.031 A 
HETATM   22  C4  UNL     1      24.720   1.490  52.558  1.00  0.00     0.009 A 
HETATM   23  C3  UNL     1      24.174   0.421  53.246  1.00  0.00     0.004 A 
HETATM   24  C2  UNL     1      24.831  -0.803  53.381  1.00  0.00     0.042 A 
HETATM   25  C1  UNL     1      26.084  -0.953  52.803  1.00  0.00     0.117 A 
HETATM   26  F1  UNL     1      26.789  -2.119  52.892  1.00  0.00    -0.206 F 
HETATM   27  C20 UNL     1      26.624   0.119  52.116  1.00  0.00     0.051 A 
ENDBRANCH  20  21
ENDBRANCH  19  20
ENDBRANCH   1  19
TORSDOF 6
ENDMDL
MODEL 9
REMARK VINA RESULT:      -7.8      6.933      9.570
REMARK  6 active torsions:
REMARK  status: ('A' for Active; 'I' for Inactive)
REMARK    1  A    between atoms: C5_6  and  C6_7 
REMARK    2  A    between atoms: C6_7  and  O1_8 
REMARK    3  A    between atoms: O1_8  and  C7_9 
REMARK    4  A    between atoms: C10_12  and  N1_13 
REMARK    5  A    between atoms: N1_13  and  C11_14 
REMARK    6  A    between atoms: C13_16  and  C17_22 
ROOT
HETATM    1  C7  UNL     1      24.484   2.890  50.328  1.00  0.00     0.091 A 
HETATM    2  C8  UNL     1      24.101   3.973  49.570  1.00  0.00     0.041 A 
HETATM    3  C9  UNL     1      25.084   4.835  49.134  1.00  0.00     0.032 A 
HETATM    4  C10 UNL     1      26.428   4.701  49.398  1.00  0.00     0.030 A 
HETATM    5  C18 UNL     1      26.779   3.609  50.158  1.00  0.00     0.056 A 
HETATM    6  C19 UNL     1      25.828   2.719  50.616  1.00  0.00     0.069 A 
HETATM    7 CL1  UNL     1      26.370   1.357  51.578  1.00  0.00    -0.081 Cl
ENDROOT
BRANCH   4   8
HETATM    8  N1  UNL     1      27.426   5.596  48.943  1.00  0.00    -0.383 N 
HETATM    9  H8  UNL     1      28.423   5.339  49.006  1.00  0.00     0.160 HD
BRANCH   8  10
HETATM   10  C11 UNL     1      26.768   6.919  48.383  1.00  0.00     0.116 A 
HETATM   11  C12 UNL     1      27.115   7.788  48.909  1.00  0.00     0.038 A 
HETATM   12  C13 UNL     1      27.355   8.338  49.240  1.00  0.00     0.038 A 
HETATM   13  C14 UNL     1      27.766   9.206  49.761  1.00  0.00     0.095 A 
HETATM   14  C17 UNL     1      28.778   7.664  48.582  1.00  0.00     0.083 A 
HETATM   15  S1  UNL     1      28.909  10.417  48.888  1.00  0.00    -0.132 SA
HETATM   16  C15 UNL     1      30.443   9.558  48.862  1.00  0.00     0.064 C 
HETATM   17  C16 UNL     1      31.057   8.427  48.750  1.00  0.00     0.118 C 
HETATM   18  N2  UNL     1      30.040   7.468  48.581  1.00  0.00    -0.288 NA
ENDBRANCH   8  10
ENDBRANCH   4   8
BRANCH   1  19
HETATM   19  O1  UNL     1      23.611   1.945  50.833  1.00  0.00    -0.345 OA
BRANCH  19  20
HETATM   20  C6  UNL     1      22.938   2.259  52.037  1.00  0.00     0.214 C 
BRANCH  20  21
HETATM   21  C5  UNL     1      22.576   1.022  52.807  1.00  0.00    -0.031 A 
HETATM   22  C4  UNL     1      23.476   0.222  53.472  1.00  0.00     0.009 A 
HETATM   23  C3  UNL     1      23.007  -0.893  54.145  1.00  0.00     0.004 A 
HETATM   24  C2  UNL     1      21.656  -1.240  54.176  1.00  0.00     0.042 A 
HETATM   25  C1  UNL     1      20.745  -0.435  53.505  1.00  0.00     0.117 A 
HETATM   26  F1  UNL     1      19.408  -0.709  53.490  1.00  0.00    -0.206 F 
HETATM   27  C20 UNL     1      21.221   0.679  52.835  1.00  0.00     0.051 A 
ENDBRANCH  20  21
ENDBRANCH  19  20
ENDBRANCH   1  19
TORSDOF 6
ENDMDL
