MODEL 1
REMARK VINA RESULT:      -8.7      0.000      0.000
REMARK  6 active torsions:
REMARK  status: ('A' for Active; 'I' for Inactive)
REMARK    1  A    between atoms: N1_1  and  C1_2 
REMARK    2  A    between atoms: N2_5  and  C4_6 
REMARK    3  A    between atoms: C4_6  and  C5_7 
REMARK    4  A    between atoms: C7_9  and  C8_10 
REMARK    5  A    between atoms: C10_16  and  N6_17 
REMARK    6  A    between atoms: N6_17  and  C11_18 
ROOT
HETATM    1  C5  UNL     1      24.569   1.350  53.025  1.00  0.00    -0.006 A 
HETATM    2  C6  UNL     1      23.761   0.355  53.600  1.00  0.00     0.039 A 
HETATM    3  C7  UNL     1      22.527   0.297  52.993  1.00  0.00     0.051 A 
HETATM    4  N3  UNL     1      22.559   1.234  52.059  1.00  0.00    -0.232 N 
HETATM    5  N4  UNL     1      21.641   1.615  51.191  1.00  0.00    -0.160 NA
HETATM    6  C9  UNL     1      21.860   2.607  50.317  1.00  0.00     0.258 A 
HETATM    7  N5  UNL     1      23.065   3.257  50.311  1.00  0.00    -0.221 NA
HETATM    8  C10 UNL     1      24.011   2.889  51.183  1.00  0.00     0.155 A 
HETATM    9  C16 UNL     1      23.735   1.861  52.059  1.00  0.00     0.112 A 
ENDROOT
BRANCH   1  10
HETATM   10  C4  UNL     1      25.960   1.576  53.464  1.00  0.00     0.158 C 
BRANCH  10  11
HETATM   11  N2  UNL     1      26.881   0.538  53.263  1.00  0.00    -0.408 N 
HETATM   12  C3  UNL     1      27.627  -0.018  54.307  1.00  0.00     0.119 C 
HETATM   13  C2  UNL     1      28.844  -0.752  53.762  1.00  0.00     0.055 C 
HETATM   14  C1  UNL     1      28.425  -1.843  52.805  1.00  0.00     0.221 C 
HETATM   15  C18 UNL     1      26.985  -1.671  52.370  1.00  0.00     0.055 C 
HETATM   16  C17 UNL     1      26.767  -0.210  52.055  1.00  0.00     0.119 C 
BRANCH  14  17
HETATM   17  N1  UNL     1      28.653  -3.160  53.366  1.00  0.00     0.083 N 
HETATM   18  H1  UNL     1      27.789  -3.724  53.208  1.00  0.00     0.313 HD
HETATM   19  H2  UNL     1      28.772  -3.041  54.396  1.00  0.00     0.313 HD
ENDBRANCH  14  17
ENDBRANCH  10  11
ENDBRANCH   1  10
BRANCH   3  20
HETATM   20  C8  UNL     1      21.367  -0.592  53.266  1.00  0.00     0.173 C 
HETATM   21 CL1  UNL     1      21.710  -1.630  54.660  1.00  0.00    -0.124 Cl
ENDBRANCH   3  20
BRANCH   8  22
HETATM   22  N6  UNL     1      25.247   3.627  51.145  1.00  0.00    -0.363 N 
HETATM   23  H14 UNL     1      26.042   3.808  51.771  1.00  0.00     0.162 HD
BRANCH  22  24
HETATM   24  C11 UNL     1      25.448   4.321  49.896  1.00  0.00     0.130 C 
HETATM   25  C12 UNL     1      26.809   4.011  49.330  1.00  0.00    -0.002 C 
HETATM   26  C13 UNL     1      27.579   4.876  48.659  1.00  0.00    -0.003 C 
HETATM   27  C14 UNL     1      26.960   6.208  48.516  1.00  0.00     0.195 C 
HETATM   28  O1  UNL     1      26.403   6.542  49.754  1.00  0.00    -0.385 OA
HETATM   29  C15 UNL     1      25.261   5.816  50.040  1.00  0.00     0.197 C 
ENDBRANCH  22  24
ENDBRANCH   8  22
TORSDOF 6
ENDMDL
MODEL 2
REMARK VINA RESULT:      -8.6      2.622      5.800
REMARK  6 active torsions:
REMARK  status: ('A' for Active; 'I' for Inactive)
REMARK    1  A    between atoms: N1_1  and  C1_2 
REMARK    2  A    between atoms: N2_5  and  C4_6 
REMARK    3  A    between atoms: C4_6  and  C5_7 
REMARK    4  A    between atoms: C7_9  and  C8_10 
REMARK    5  A    between atoms: C10_16  and  N6_17 
REMARK    6  A    between atoms: N6_17  and  C11_18 
ROOT
HETATM    1  C5  UNL     1      23.297   0.732  52.510  1.00  0.00    -0.006 A 
HETATM    2  C6  UNL     1      21.893   0.758  52.558  1.00  0.00     0.039 A 
HETATM    3  C7  UNL     1      21.413   0.017  53.614  1.00  0.00     0.051 A 
HETATM    4  N3  UNL     1      22.490  -0.463  54.214  1.00  0.00    -0.232 N 
HETATM    5  N4  UNL     1      22.609  -1.243  55.273  1.00  0.00    -0.160 NA
HETATM    6  C9  UNL     1      23.805  -1.637  55.731  1.00  0.00     0.258 A 
HETATM    7  N5  UNL     1      24.948  -1.232  55.095  1.00  0.00    -0.221 NA
HETATM    8  C10 UNL     1      24.851  -0.442  54.020  1.00  0.00     0.155 A 
HETATM    9  C16 UNL     1      23.597  -0.062  53.591  1.00  0.00     0.112 A 
ENDROOT
BRANCH   1  10
HETATM   10  C4  UNL     1      24.057   1.495  51.501  1.00  0.00     0.158 C 
BRANCH  10  11
HETATM   11  N2  UNL     1      23.872   2.885  51.461  1.00  0.00    -0.408 N 
HETATM   12  C3  UNL     1      23.843   3.672  52.615  1.00  0.00     0.119 C 
HETATM   13  C2  UNL     1      23.173   5.010  52.333  1.00  0.00     0.055 C 
HETATM   14  C1  UNL     1      23.900   5.750  51.235  1.00  0.00     0.221 C 
HETATM   15  C18 UNL     1      24.838   4.832  50.479  1.00  0.00     0.055 C 
HETATM   16  C17 UNL     1      24.106   3.537  50.215  1.00  0.00     0.119 C 
BRANCH  14  17
HETATM   17  N1  UNL     1      24.600   6.911  51.749  1.00  0.00     0.083 N 
HETATM   18  H1  UNL     1      24.663   7.609  50.975  1.00  0.00     0.313 HD
HETATM   19  H2  UNL     1      25.571   6.608  51.985  1.00  0.00     0.313 HD
ENDBRANCH  14  17
ENDBRANCH  10  11
ENDBRANCH   1  10
BRANCH   3  20
HETATM   20  C8  UNL     1      20.014  -0.234  54.049  1.00  0.00     0.173 C 
HETATM   21 CL1  UNL     1      18.978  -0.513  52.639  1.00  0.00    -0.124 Cl
ENDBRANCH   3  20
BRANCH   8  22
HETATM   22  N6  UNL     1      26.087  -0.069  53.380  1.00  0.00    -0.363 N 
HETATM   23  H14 UNL     1      26.558  -0.241  52.482  1.00  0.00     0.162 HD
BRANCH  22  24
HETATM   24  C11 UNL     1      26.916   0.773  54.207  1.00  0.00     0.130 C 
HETATM   25  C12 UNL     1      27.351   1.999  53.448  1.00  0.00    -0.002 C 
HETATM   26  C13 UNL     1      28.542   2.598  53.570  1.00  0.00    -0.003 C 
HETATM   27  C14 UNL     1      29.425   1.931  54.547  1.00  0.00     0.195 C 
HETATM   28  O1  UNL     1      29.325   0.555  54.325  1.00  0.00    -0.385 OA
HETATM   29  C15 UNL     1      28.117   0.030  54.750  1.00  0.00     0.197 C 
ENDBRANCH  22  24
ENDBRANCH   8  22
TORSDOF 6
ENDMDL
MODEL 3
REMARK VINA RESULT:      -8.0      1.185      1.558
REMARK  6 active torsions:
REMARK  status: ('A' for Active; 'I' for Inactive)
REMARK    1  A    between atoms: N1_1  and  C1_2 
REMARK    2  A    between atoms: N2_5  and  C4_6 
REMARK    3  A    between atoms: C4_6  and  C5_7 
REMARK    4  A    between atoms: C7_9  and  C8_10 
REMARK    5  A    between atoms: C10_16  and  N6_17 
REMARK    6  A    between atoms: N6_17  and  C11_18 
ROOT
HETATM    1  C5  UNL     1      24.056   1.892  52.639  1.00  0.00    -0.006 A 
HETATM    2  C6  UNL     1      23.372   0.707  52.963  1.00  0.00     0.039 A 
HETATM    3  C7  UNL     1      22.009   0.876  52.875  1.00  0.00     0.051 A 
HETATM    4  N3  UNL     1      21.840   2.135  52.507  1.00  0.00    -0.232 N 
HETATM    5  N4  UNL     1      20.739   2.827  52.285  1.00  0.00    -0.160 NA
HETATM    6  C9  UNL     1      20.772   4.118  51.924  1.00  0.00     0.258 A 
HETATM    7  N5  UNL     1      21.976   4.754  51.777  1.00  0.00    -0.221 NA
HETATM    8  C10 UNL     1      23.106   4.073  51.997  1.00  0.00     0.155 A 
HETATM    9  C16 UNL     1      23.016   2.747  52.364  1.00  0.00     0.112 A 
ENDROOT
BRANCH   1  10
HETATM   10  C4  UNL     1      25.530   1.956  52.605  1.00  0.00     0.158 C 
BRANCH  10  11
HETATM   11  N2  UNL     1      26.240   0.801  52.964  1.00  0.00    -0.408 N 
HETATM   12  C3  UNL     1      26.691  -0.127  52.020  1.00  0.00     0.119 C 
HETATM   13  C2  UNL     1      26.988  -1.464  52.685  1.00  0.00     0.055 C 
HETATM   14  C1  UNL     1      28.028  -1.301  53.769  1.00  0.00     0.221 C 
HETATM   15  C18 UNL     1      28.209   0.155  54.144  1.00  0.00     0.055 C 
HETATM   16  C17 UNL     1      26.838   0.779  54.257  1.00  0.00     0.119 C 
BRANCH  14  17
HETATM   17  N1  UNL     1      29.289  -1.909  53.394  1.00  0.00     0.083 N 
HETATM   18  H1  UNL     1      29.488  -1.637  52.406  1.00  0.00     0.313 HD
HETATM   19  H2  UNL     1      29.152  -2.944  53.418  1.00  0.00     0.313 HD
ENDBRANCH  14  17
ENDBRANCH  10  11
ENDBRANCH   1  10
BRANCH   3  20
HETATM   20  C8  UNL     1      20.907  -0.092  53.121  1.00  0.00     0.173 C 
HETATM   21 CL1  UNL     1      21.265  -1.070  54.555  1.00  0.00    -0.124 Cl
ENDBRANCH   3  20
BRANCH   8  22
HETATM   22  N6  UNL     1      24.339   4.804  51.851  1.00  0.00    -0.363 N 
HETATM   23  H14 UNL     1      25.110   5.119  52.454  1.00  0.00     0.162 HD
BRANCH  22  24
HETATM   24  C11 UNL     1      24.581   5.230  50.494  1.00  0.00     0.130 C 
HETATM   25  C12 UNL     1      25.700   4.431  49.880  1.00  0.00    -0.002 C 
HETATM   26  C13 UNL     1      26.606   4.910  49.018  1.00  0.00    -0.003 C 
HETATM   27  C14 UNL     1      26.407   6.341  48.711  1.00  0.00     0.195 C 
HETATM   28  O1  UNL     1      26.140   6.992  49.918  1.00  0.00    -0.385 OA
HETATM   29  C15 UNL     1      24.876   6.712  50.408  1.00  0.00     0.197 C 
ENDBRANCH  22  24
ENDBRANCH   8  22
TORSDOF 6
ENDMDL
MODEL 4
REMARK VINA RESULT:      -7.9      3.432      7.078
REMARK  6 active torsions:
REMARK  status: ('A' for Active; 'I' for Inactive)
REMARK    1  A    between atoms: N1_1  and  C1_2 
REMARK    2  A    between atoms: N2_5  and  C4_6 
REMARK    3  A    between atoms: C4_6  and  C5_7 
REMARK    4  A    between atoms: C7_9  and  C8_10 
REMARK    5  A    between atoms: C10_16  and  N6_17 
REMARK    6  A    between atoms: N6_17  and  C11_18 
ROOT
HETATM    1  C5  UNL     1      23.571   1.054  52.044  1.00  0.00    -0.006 A 
HETATM    2  C6  UNL     1      24.959   0.840  51.979  1.00  0.00     0.039 A 
HETATM    3  C7  UNL     1      25.388   0.021  52.998  1.00  0.00     0.051 A 
HETATM    4  N3  UNL     1      24.298  -0.272  53.688  1.00  0.00    -0.232 N 
HETATM    5  N4  UNL     1      24.136  -1.012  54.768  1.00  0.00    -0.160 NA
HETATM    6  C9  UNL     1      22.934  -1.183  55.336  1.00  0.00     0.258 A 
HETATM    7  N5  UNL     1      21.831  -0.579  54.795  1.00  0.00    -0.221 NA
HETATM    8  C10 UNL     1      21.971   0.176  53.700  1.00  0.00     0.155 A 
HETATM    9  C16 UNL     1      23.229   0.318  53.154  1.00  0.00     0.112 A 
ENDROOT
BRANCH   1  10
HETATM   10  C4  UNL     1      22.857   1.854  51.031  1.00  0.00     0.158 C 
BRANCH  10  11
HETATM   11  N2  UNL     1      22.995   3.249  51.087  1.00  0.00    -0.408 N 
HETATM   12  C3  UNL     1      22.761   3.980  52.255  1.00  0.00     0.119 C 
HETATM   13  C2  UNL     1      22.518   5.447  51.928  1.00  0.00     0.055 C 
HETATM   14  C1  UNL     1      23.702   6.033  51.194  1.00  0.00     0.221 C 
HETATM   15  C18 UNL     1      24.616   4.947  50.667  1.00  0.00     0.055 C 
HETATM   16  C17 UNL     1      23.752   3.871  50.052  1.00  0.00     0.119 C 
BRANCH  14  17
HETATM   17  N1  UNL     1      24.426   6.978  52.020  1.00  0.00     0.083 N 
HETATM   18  H1  UNL     1      25.393   6.605  52.151  1.00  0.00     0.313 HD
HETATM   19  H2  UNL     1      23.961   6.991  52.955  1.00  0.00     0.313 HD
ENDBRANCH  14  17
ENDBRANCH  10  11
ENDBRANCH   1  10
BRANCH   3  20
HETATM   20  C8  UNL     1      26.754  -0.472  53.318  1.00  0.00     0.173 C 
HETATM   21 CL1  UNL     1      26.995  -2.087  52.632  1.00  0.00    -0.124 Cl
ENDBRANCH   3  20
BRANCH   8  22
HETATM   22  N6  UNL     1      20.778   0.805  53.193  1.00  0.00    -0.363 N 
HETATM   23  H14 UNL     1      20.318   1.722  53.257  1.00  0.00     0.162 HD
BRANCH  22  24
HETATM   24  C11 UNL     1      19.988  -0.075  52.366  1.00  0.00     0.130 C 
HETATM   25  C12 UNL     1      19.491   0.650  51.144  1.00  0.00    -0.002 C 
HETATM   26  C13 UNL     1      18.301   0.454  50.562  1.00  0.00    -0.003 C 
HETATM   27  C14 UNL     1      17.487  -0.570  51.248  1.00  0.00     0.195 C 
HETATM   28  O1  UNL     1      17.593  -0.334  52.621  1.00  0.00    -0.385 OA
HETATM   29  C15 UNL     1      18.831  -0.684  53.130  1.00  0.00     0.197 C 
ENDBRANCH  22  24
ENDBRANCH   8  22
TORSDOF 6
ENDMDL
MODEL 5
REMARK VINA RESULT:      -7.4      2.987      5.747
REMARK  6 active torsions:
REMARK  status: ('A' for Active; 'I' for Inactive)
REMARK    1  A    between atoms: N1_1  and  C1_2 
REMARK    2  A    between atoms: N2_5  and  C4_6 
REMARK    3  A    between atoms: C4_6  and  C5_7 
REMARK    4  A    between atoms: C7_9  and  C8_10 
REMARK    5  A    between atoms: C10_16  and  N6_17 
REMARK    6  A    between atoms: N6_17  and  C11_18 
ROOT
HETATM    1  C5  UNL     1      23.570   3.270  51.672  1.00  0.00    -0.006 A 
HETATM    2  C6  UNL     1      22.615   3.748  50.757  1.00  0.00     0.039 A 
HETATM    3  C7  UNL     1      23.203   4.135  49.575  1.00  0.00     0.051 A 
HETATM    4  N3  UNL     1      24.496   3.908  49.742  1.00  0.00    -0.232 N 
HETATM    5  N4  UNL     1      25.517   4.106  48.930  1.00  0.00    -0.160 NA
HETATM    6  C9  UNL     1      26.775   3.818  49.289  1.00  0.00     0.258 A 
HETATM    7  N5  UNL     1      27.029   3.304  50.533  1.00  0.00    -0.221 NA
HETATM    8  C10 UNL     1      26.010   3.095  51.373  1.00  0.00     0.155 A 
HETATM    9  C16 UNL     1      24.734   3.406  50.953  1.00  0.00     0.112 A 
ENDROOT
BRANCH   1  10
HETATM   10  C4  UNL     1      23.186   2.743  52.995  1.00  0.00     0.158 C 
BRANCH  10  11
HETATM   11  N2  UNL     1      22.491   1.526  53.034  1.00  0.00    -0.408 N 
HETATM   12  C3  UNL     1      23.094   0.328  53.428  1.00  0.00     0.119 C 
HETATM   13  C2  UNL     1      22.287  -0.865  52.933  1.00  0.00     0.055 C 
HETATM   14  C1  UNL     1      20.874  -0.812  53.466  1.00  0.00     0.221 C 
HETATM   15  C18 UNL     1      20.546   0.559  54.019  1.00  0.00     0.055 C 
HETATM   16  C17 UNL     1      21.067   1.589  53.045  1.00  0.00     0.119 C 
BRANCH  14  17
HETATM   17  N1  UNL     1      20.638  -1.848  54.452  1.00  0.00     0.083 N 
HETATM   18  H1  UNL     1      20.657  -2.766  53.955  1.00  0.00     0.313 HD
HETATM   19  H2  UNL     1      19.672  -1.707  54.824  1.00  0.00     0.313 HD
ENDBRANCH  14  17
ENDBRANCH  10  11
ENDBRANCH   1  10
BRANCH   3  20
HETATM   20  C8  UNL     1      22.591   4.692  48.340  1.00  0.00     0.173 C 
HETATM   21 CL1  UNL     1      20.847   4.906  48.567  1.00  0.00    -0.124 Cl
ENDBRANCH   3  20
BRANCH   8  22
HETATM   22  N6  UNL     1      26.343   2.576  52.675  1.00  0.00    -0.363 N 
HETATM   23  H14 UNL     1      25.947   2.595  53.624  1.00  0.00     0.162 HD
BRANCH  22  24
HETATM   24  C11 UNL     1      27.574   1.823  52.681  1.00  0.00     0.130 C 
HETATM   25  C12 UNL     1      27.293   0.348  52.793  1.00  0.00    -0.002 C 
HETATM   26  C13 UNL     1      28.045  -0.531  53.465  1.00  0.00    -0.003 C 
HETATM   27  C14 UNL     1      29.218   0.091  54.112  1.00  0.00     0.195 C 
HETATM   28  O1  UNL     1      28.783   1.278  54.708  1.00  0.00    -0.385 OA
HETATM   29  C15 UNL     1      28.509   2.271  53.784  1.00  0.00     0.197 C 
ENDBRANCH  22  24
ENDBRANCH   8  22
TORSDOF 6
ENDMDL
MODEL 6
REMARK VINA RESULT:      -7.4      3.181      6.553
REMARK  6 active torsions:
REMARK  status: ('A' for Active; 'I' for Inactive)
REMARK    1  A    between atoms: N1_1  and  C1_2 
REMARK    2  A    between atoms: N2_5  and  C4_6 
REMARK    3  A    between atoms: C4_6  and  C5_7 
REMARK    4  A    between atoms: C7_9  and  C8_10 
REMARK    5  A    between atoms: C10_16  and  N6_17 
REMARK    6  A    between atoms: N6_17  and  C11_18 
ROOT
HETATM    1  C5  UNL     1      23.599   3.796  51.572  1.00  0.00    -0.006 A 
HETATM    2  C6  UNL     1      23.023   5.031  51.229  1.00  0.00     0.039 A 
HETATM    3  C7  UNL     1      23.814   5.726  50.343  1.00  0.00     0.051 A 
HETATM    4  N3  UNL     1      24.863   4.947  50.134  1.00  0.00    -0.232 N 
HETATM    5  N4  UNL     1      25.931   5.126  49.381  1.00  0.00    -0.160 NA
HETATM    6  C9  UNL     1      26.908   4.211  49.307  1.00  0.00     0.258 A 
HETATM    7  N5  UNL     1      26.813   3.051  50.028  1.00  0.00    -0.221 NA
HETATM    8  C10 UNL     1      25.739   2.848  50.799  1.00  0.00     0.155 A 
HETATM    9  C16 UNL     1      24.762   3.819  50.838  1.00  0.00     0.112 A 
ENDROOT
BRANCH   1  10
HETATM   10  C4  UNL     1      22.919   2.839  52.465  1.00  0.00     0.158 C 
BRANCH  10  11
HETATM   11  N2  UNL     1      21.856   2.095  51.934  1.00  0.00    -0.408 N 
HETATM   12  C3  UNL     1      20.519   2.460  52.115  1.00  0.00     0.119 C 
HETATM   13  C2  UNL     1      19.601   1.272  51.863  1.00  0.00     0.055 C 
HETATM   14  C1  UNL     1      19.794   0.735  50.464  1.00  0.00     0.221 C 
HETATM   15  C18 UNL     1      21.068   1.266  49.841  1.00  0.00     0.055 C 
HETATM   16  C17 UNL     1      22.161   1.184  50.881  1.00  0.00     0.119 C 
BRANCH  14  17
HETATM   17  N1  UNL     1      18.644   1.010  49.625  1.00  0.00     0.083 N 
HETATM   18  H1  UNL     1      18.562   2.047  49.533  1.00  0.00     0.313 HD
HETATM   19  H2  UNL     1      17.799   0.668  50.136  1.00  0.00     0.313 HD
ENDBRANCH  14  17
ENDBRANCH  10  11
ENDBRANCH   1  10
BRANCH   3  20
HETATM   20  C8  UNL     1      23.605   7.057  49.715  1.00  0.00     0.173 C 
HETATM   21 CL1  UNL     1      22.129   7.805  50.347  1.00  0.00    -0.124 Cl
ENDBRANCH   3  20
BRANCH   8  22
HETATM   22  N6  UNL     1      25.708   1.620  51.553  1.00  0.00    -0.363 N 
HETATM   23  H14 UNL     1      25.051   0.846  51.716  1.00  0.00     0.162 HD
BRANCH  22  24
HETATM   24  C11 UNL     1      26.920   1.391  52.302  1.00  0.00     0.130 C 
HETATM   25  C12 UNL     1      27.194  -0.084  52.427  1.00  0.00    -0.002 C 
HETATM   26  C13 UNL     1      27.735  -0.679  53.497  1.00  0.00    -0.003 C 
HETATM   27  C14 UNL     1      28.049   0.269  54.585  1.00  0.00     0.195 C 
HETATM   28  O1  UNL     1      26.960   1.134  54.710  1.00  0.00    -0.385 OA
HETATM   29  C15 UNL     1      26.875   2.041  53.668  1.00  0.00     0.197 C 
ENDBRANCH  22  24
ENDBRANCH   8  22
TORSDOF 6
ENDMDL
MODEL 7
REMARK VINA RESULT:      -7.3      3.379      5.689
REMARK  6 active torsions:
REMARK  status: ('A' for Active; 'I' for Inactive)
REMARK    1  A    between atoms: N1_1  and  C1_2 
REMARK    2  A    between atoms: N2_5  and  C4_6 
REMARK    3  A    between atoms: C4_6  and  C5_7 
REMARK    4  A    between atoms: C7_9  and  C8_10 
REMARK    5  A    between atoms: C10_16  and  N6_17 
REMARK    6  A    between atoms: N6_17  and  C11_18 
ROOT
HETATM    1  C5  UNL     1      24.647   2.792  51.115  1.00  0.00    -0.006 A 
HETATM    2  C6  UNL     1      25.705   3.331  50.363  1.00  0.00     0.039 A 
HETATM    3  C7  UNL     1      25.437   4.624  49.975  1.00  0.00     0.051 A 
HETATM    4  N3  UNL     1      24.239   4.891  50.470  1.00  0.00    -0.232 N 
HETATM    5  N4  UNL     1      23.498   5.980  50.392  1.00  0.00    -0.160 NA
HETATM    6  C9  UNL     1      22.287   6.057  50.960  1.00  0.00     0.258 A 
HETATM    7  N5  UNL     1      21.786   4.982  51.644  1.00  0.00    -0.221 NA
HETATM    8  C10 UNL     1      22.518   3.867  51.736  1.00  0.00     0.155 A 
HETATM    9  C16 UNL     1      23.759   3.841  51.136  1.00  0.00     0.112 A 
ENDROOT
BRANCH   1  10
HETATM   10  C4  UNL     1      24.714   1.437  51.695  1.00  0.00     0.158 C 
BRANCH  10  11
HETATM   11  N2  UNL     1      25.859   1.101  52.433  1.00  0.00    -0.408 N 
HETATM   12  C3  UNL     1      26.813   0.192  51.967  1.00  0.00     0.119 C 
HETATM   13  C2  UNL     1      27.658  -0.334  53.119  1.00  0.00     0.055 C 
HETATM   14  C1  UNL     1      28.350   0.803  53.835  1.00  0.00     0.221 C 
HETATM   15  C18 UNL     1      27.742   2.139  53.464  1.00  0.00     0.055 C 
HETATM   16  C17 UNL     1      26.239   1.986  53.484  1.00  0.00     0.119 C 
BRANCH  14  17
HETATM   17  N1  UNL     1      29.780   0.790  53.595  1.00  0.00     0.083 N 
HETATM   18  H1  UNL     1      29.957   1.326  52.717  1.00  0.00     0.313 HD
HETATM   19  H2  UNL     1      30.056  -0.202  53.425  1.00  0.00     0.313 HD
ENDBRANCH  14  17
ENDBRANCH  10  11
ENDBRANCH   1  10
BRANCH   3  20
HETATM   20  C8  UNL     1      26.258   5.574  49.179  1.00  0.00     0.173 C 
HETATM   21 CL1  UNL     1      27.742   4.780  48.625  1.00  0.00    -0.124 Cl
ENDBRANCH   3  20
BRANCH   8  22
HETATM   22  N6  UNL     1      21.926   2.762  52.448  1.00  0.00    -0.363 N 
HETATM   23  H14 UNL     1      21.936   2.383  53.403  1.00  0.00     0.162 HD
BRANCH  22  24
HETATM   24  C11 UNL     1      21.087   1.940  51.610  1.00  0.00     0.130 C 
HETATM   25  C12 UNL     1      19.647   2.367  51.719  1.00  0.00    -0.002 C 
HETATM   26  C13 UNL     1      18.594   1.543  51.682  1.00  0.00    -0.003 C 
HETATM   27  C14 UNL     1      18.978   0.126  51.521  1.00  0.00     0.195 C 
HETATM   28  O1  UNL     1      20.056  -0.113  52.377  1.00  0.00    -0.385 OA
HETATM   29  C15 UNL     1      21.231   0.468  51.933  1.00  0.00     0.197 C 
ENDBRANCH  22  24
ENDBRANCH   8  22
TORSDOF 6
ENDMDL
MODEL 8
REMARK VINA RESULT:      -7.2      3.113      6.257
REMARK  6 active torsions:
REMARK  status: ('A' for Active; 'I' for Inactive)
REMARK    1  A    between atoms: N1_1  and  C1_2 
REMARK    2  A    between atoms: N2_5  and  C4_6 
REMARK    3  A    between atoms: C4_6  and  C5_7 
REMARK    4  A    between atoms: C7_9  and  C8_10 
REMARK    5  A    between atoms: C10_16  and  N6_17 
REMARK    6  A    between atoms: N6_17  and  C11_18 
ROOT
HETATM    1  C5  UNL     1      22.634   0.826  51.968  1.00  0.00    -0.006 A 
HETATM    2  C6  UNL     1      21.238   0.675  52.008  1.00  0.00     0.039 A 
HETATM    3  C7  UNL     1      20.845  -0.080  53.089  1.00  0.00     0.051 A 
HETATM    4  N3  UNL     1      21.968  -0.397  53.714  1.00  0.00    -0.232 N 
HETATM    5  N4  UNL     1      22.174  -1.115  54.802  1.00  0.00    -0.160 NA
HETATM    6  C9  UNL     1      23.406  -1.337  55.281  1.00  0.00     0.258 A 
HETATM    7  N5  UNL     1      24.494  -0.814  54.636  1.00  0.00    -0.221 NA
HETATM    8  C10 UNL     1      24.309  -0.084  53.530  1.00  0.00     0.155 A 
HETATM    9  C16 UNL     1      23.022   0.117  53.081  1.00  0.00     0.112 A 
ENDROOT
BRANCH   1  10
HETATM   10  C4  UNL     1      23.302   1.640  50.934  1.00  0.00     0.158 C 
BRANCH  10  11
HETATM   11  N2  UNL     1      22.488   2.359  50.046  1.00  0.00    -0.408 N 
HETATM   12  C3  UNL     1      22.328   3.745  50.129  1.00  0.00     0.119 C 
HETATM   13  C2  UNL     1      21.071   4.182  49.389  1.00  0.00     0.055 C 
HETATM   14  C1  UNL     1      21.134   3.767  47.938  1.00  0.00     0.221 C 
HETATM   15  C18 UNL     1      22.219   2.736  47.707  1.00  0.00     0.055 C 
HETATM   16  C17 UNL     1      22.137   1.719  48.822  1.00  0.00     0.119 C 
BRANCH  14  17
HETATM   17  N1  UNL     1      21.300   4.911  47.063  1.00  0.00     0.083 N 
HETATM   18  H1  UNL     1      20.405   5.041  46.541  1.00  0.00     0.313 HD
HETATM   19  H2  UNL     1      22.041   4.665  46.369  1.00  0.00     0.313 HD
ENDBRANCH  14  17
ENDBRANCH  10  11
ENDBRANCH   1  10
BRANCH   3  20
HETATM   20  C8  UNL     1      19.485  -0.489  53.527  1.00  0.00     0.173 C 
HETATM   21 CL1  UNL     1      18.398  -0.582  52.131  1.00  0.00    -0.124 Cl
ENDBRANCH   3  20
BRANCH   8  22
HETATM   22  N6  UNL     1      25.494   0.417  52.882  1.00  0.00    -0.363 N 
HETATM   23  H14 UNL     1      25.802   0.634  51.925  1.00  0.00     0.162 HD
BRANCH  22  24
HETATM   24  C11 UNL     1      26.565   0.695  53.808  1.00  0.00     0.130 C 
HETATM   25  C12 UNL     1      27.153   2.057  53.546  1.00  0.00    -0.002 C 
HETATM   26  C13 UNL     1      28.447   2.375  53.674  1.00  0.00    -0.003 C 
HETATM   27  C14 UNL     1      29.279   1.236  54.110  1.00  0.00     0.195 C 
HETATM   28  O1  UNL     1      28.877   0.121  53.370  1.00  0.00    -0.385 OA
HETATM   29  C15 UNL     1      27.643  -0.367  53.765  1.00  0.00     0.197 C 
ENDBRANCH  22  24
ENDBRANCH   8  22
TORSDOF 6
ENDMDL
MODEL 9
REMARK VINA RESULT:      -7.2      2.662      3.716
REMARK  6 active torsions:
REMARK  status: ('A' for Active; 'I' for Inactive)
REMARK    1  A    between atoms: N1_1  and  C1_2 
REMARK    2  A    between atoms: N2_5  and  C4_6 
REMARK    3  A    between atoms: C4_6  and  C5_7 
REMARK    4  A    between atoms: C7_9  and  C8_10 
REMARK    5  A    between atoms: C10_16  and  N6_17 
REMARK    6  A    between atoms: N6_17  and  C11_18 
ROOT
HETATM    1  C5  UNL     1      24.734   3.302  50.105  1.00  0.00    -0.006 A 
HETATM    2  C6  UNL     1      23.666   2.390  50.054  1.00  0.00     0.039 A 
HETATM    3  C7  UNL     1      22.638   2.865  49.272  1.00  0.00     0.051 A 
HETATM    4  N3  UNL     1      23.049   4.048  48.844  1.00  0.00    -0.232 N 
HETATM    5  N4  UNL     1      22.455   4.938  48.072  1.00  0.00    -0.160 NA
HETATM    6  C9  UNL     1      23.038   6.102  47.753  1.00  0.00     0.258 A 
HETATM    7  N5  UNL     1      24.285   6.395  48.235  1.00  0.00    -0.221 NA
HETATM    8  C10 UNL     1      24.907   5.508  49.020  1.00  0.00     0.155 A 
HETATM    9  C16 UNL     1      24.265   4.324  49.316  1.00  0.00     0.112 A 
ENDROOT
BRANCH   1  10
HETATM   10  C4  UNL     1      25.982   3.001  50.834  1.00  0.00     0.158 C 
BRANCH  10  11
HETATM   11  N2  UNL     1      25.935   2.006  51.821  1.00  0.00    -0.408 N 
HETATM   12  C3  UNL     1      26.678   0.825  51.732  1.00  0.00     0.119 C 
HETATM   13  C2  UNL     1      26.095  -0.243  52.648  1.00  0.00     0.055 C 
HETATM   14  C1  UNL     1      26.076   0.236  54.081  1.00  0.00     0.221 C 
HETATM   15  C18 UNL     1      26.282   1.733  54.165  1.00  0.00     0.055 C 
HETATM   16  C17 UNL     1      25.428   2.379  53.100  1.00  0.00     0.119 C 
BRANCH  14  17
HETATM   17  N1  UNL     1      27.044  -0.476  54.893  1.00  0.00     0.083 N 
HETATM   18  H1  UNL     1      26.952  -1.492  54.674  1.00  0.00     0.313 HD
HETATM   19  H2  UNL     1      26.770  -0.339  55.892  1.00  0.00     0.313 HD
ENDBRANCH  14  17
ENDBRANCH  10  11
ENDBRANCH   1  10
BRANCH   3  20
HETATM   20  C8  UNL     1      21.328   2.248  48.935  1.00  0.00     0.173 C 
HETATM   21 CL1  UNL     1      20.053   2.929  49.959  1.00  0.00    -0.124 Cl
ENDBRANCH   3  20
BRANCH   8  22
HETATM   22  N6  UNL     1      26.207   5.884  49.516  1.00  0.00    -0.363 N 
HETATM   23  H14 UNL     1      26.668   5.993  50.428  1.00  0.00     0.162 HD
BRANCH  22  24
HETATM   24  C11 UNL     1      27.136   6.209  48.462  1.00  0.00     0.130 C 
HETATM   25  C12 UNL     1      28.260   5.207  48.417  1.00  0.00    -0.002 C 
HETATM   26  C13 UNL     1      29.533   5.490  48.116  1.00  0.00    -0.003 C 
HETATM   27  C14 UNL     1      29.751   6.920  47.823  1.00  0.00     0.195 C 
HETATM   28  O1  UNL     1      29.054   7.653  48.787  1.00  0.00    -0.385 OA
HETATM   29  C15 UNL     1      27.683   7.614  48.601  1.00  0.00     0.197 C 
ENDBRANCH  22  24
ENDBRANCH   8  22
TORSDOF 6
ENDMDL
