MODEL 1
REMARK VINA RESULT:      -8.8      0.000      0.000
REMARK  5 active torsions:
REMARK  status: ('A' for Active; 'I' for Inactive)
REMARK    1  A    between atoms: O1_2  and  C2_3 
REMARK       I    between atoms: N1_9  and  C8_10 
REMARK       I    between atoms: C8_10  and  N2_12 
REMARK    2  A    between atoms: N2_12  and  C9_13 
REMARK    3  A    between atoms: C12_16  and  O3_17 
REMARK    4  A    between atoms: O3_17  and  C13_18 
REMARK    5  A    between atoms: C17_24  and  O4_25 
ROOT
HETATM    1  C9  UNL     1      25.814   4.807  49.876  1.00  0.00     0.036 A 
HETATM    2  C10 UNL     1      25.714   6.154  49.591  1.00  0.00     0.032 A 
HETATM    3  C11 UNL     1      26.687   6.794  48.816  1.00  0.00     0.039 A 
HETATM    4  C12 UNL     1      27.753   6.066  48.337  1.00  0.00     0.078 A 
HETATM    5  C22 UNL     1      27.841   4.713  48.632  1.00  0.00     0.039 A 
HETATM    6  C23 UNL     1      26.889   4.050  49.398  1.00  0.00     0.032 A 
ENDROOT
BRANCH   1   7
HETATM    7  N2  UNL     1      24.812   4.178  50.666  1.00  0.00    -0.308 N 
HETATM    8  C8  UNL     1      23.874   3.332  50.026  1.00  0.00     0.333 C 
HETATM    9  N1  UNL     1      22.777   2.571  50.503  1.00  0.00    -0.255 N 
HETATM   10  O2  UNL     1      24.108   3.276  48.790  1.00  0.00    -0.246 OA
HETATM   11  C2  UNL     1      22.372   2.567  51.864  1.00  0.00     0.148 C 
HETATM   12  C7  UNL     1      22.141   1.830  49.437  1.00  0.00     0.100 C 
HETATM   13  C3  UNL     1      21.819   1.534  52.482  1.00  0.00     0.030 C 
HETATM   14  C4  UNL     1      21.478   0.158  51.965  1.00  0.00     0.035 C 
HETATM   15  C5  UNL     1      20.564   0.352  50.800  1.00  0.00     0.032 C 
HETATM   16  C6  UNL     1      21.194   0.881  49.583  1.00  0.00    -0.009 C 
HETATM   17  H11 UNL     1      24.672   4.256  51.696  1.00  0.00     0.170 HD
BRANCH  11  18
HETATM   18  O1  UNL     1      22.626   3.785  52.482  1.00  0.00    -0.341 OA
HETATM   19  C1  UNL     1      21.793   4.920  52.384  1.00  0.00     0.211 C 
ENDBRANCH  11  18
ENDBRANCH   1   7
BRANCH   4  20
HETATM   20  O3  UNL     1      28.786   6.558  47.563  1.00  0.00    -0.291 OA
BRANCH  20  21
HETATM   21  C13 UNL     1      29.920   7.084  48.165  1.00  0.00     0.183 A 
HETATM   22  N3  UNL     1      29.958   8.283  48.796  1.00  0.00    -0.217 NA
HETATM   23  C14 UNL     1      31.115   8.731  49.365  1.00  0.00     0.236 A 
HETATM   24  N4  UNL     1      32.247   8.001  49.319  1.00  0.00    -0.241 NA
HETATM   25  C15 UNL     1      32.276   6.800  48.707  1.00  0.00     0.075 A 
HETATM   26  C16 UNL     1      33.403   6.015  48.631  1.00  0.00     0.069 A 
HETATM   27  C21 UNL     1      31.094   6.365  48.137  1.00  0.00     0.046 A 
HETATM   28  C17 UNL     1      33.428   4.786  48.005  1.00  0.00     0.070 A 
HETATM   29  C19 UNL     1      32.254   4.337  47.429  1.00  0.00     0.038 A 
HETATM   30  C20 UNL     1      31.108   5.124  47.501  1.00  0.00     0.021 A 
BRANCH  28  31
HETATM   31  O4  UNL     1      34.550   3.987  47.919  1.00  0.00    -0.356 OA
HETATM   32  C18 UNL     1      35.000   3.432  46.713  1.00  0.00     0.210 C 
ENDBRANCH  28  31
ENDBRANCH  20  21
ENDBRANCH   4  20
TORSDOF 5
ENDMDL
MODEL 2
REMARK VINA RESULT:      -8.4      3.487      9.116
REMARK  5 active torsions:
REMARK  status: ('A' for Active; 'I' for Inactive)
REMARK    1  A    between atoms: O1_2  and  C2_3 
REMARK       I    between atoms: N1_9  and  C8_10 
REMARK       I    between atoms: C8_10  and  N2_12 
REMARK    2  A    between atoms: N2_12  and  C9_13 
REMARK    3  A    between atoms: C12_16  and  O3_17 
REMARK    4  A    between atoms: O3_17  and  C13_18 
REMARK    5  A    between atoms: C17_24  and  O4_25 
ROOT
HETATM    1  C9  UNL     1      26.094   6.096  49.718  1.00  0.00     0.036 A 
HETATM    2  C10 UNL     1      24.867   6.047  50.348  1.00  0.00     0.032 A 
HETATM    3  C11 UNL     1      24.162   4.843  50.446  1.00  0.00     0.039 A 
HETATM    4  C12 UNL     1      24.704   3.700  49.904  1.00  0.00     0.078 A 
HETATM    5  C22 UNL     1      25.938   3.763  49.272  1.00  0.00     0.039 A 
HETATM    6  C23 UNL     1      26.662   4.945  49.161  1.00  0.00     0.032 A 
ENDROOT
BRANCH   1   7
HETATM    7  N2  UNL     1      26.792   7.333  49.631  1.00  0.00    -0.308 N 
HETATM    8  C8  UNL     1      26.615   8.134  48.477  1.00  0.00     0.333 C 
HETATM    9  N1  UNL     1      27.146   9.387  48.080  1.00  0.00    -0.255 N 
HETATM   10  O2  UNL     1      25.815   7.578  47.678  1.00  0.00    -0.246 OA
HETATM   11  C2  UNL     1      28.087  10.111  48.860  1.00  0.00     0.148 C 
HETATM   12  C7  UNL     1      26.618   9.807  46.802  1.00  0.00     0.100 C 
HETATM   13  C3  UNL     1      28.175  11.432  48.899  1.00  0.00     0.030 C 
HETATM   14  C4  UNL     1      27.367  12.483  48.179  1.00  0.00     0.035 C 
HETATM   15  C5  UNL     1      27.500  12.203  46.719  1.00  0.00     0.032 C 
HETATM   16  C6  UNL     1      26.780  11.019  46.233  1.00  0.00    -0.009 C 
HETATM   17  H11 UNL     1      27.439   7.749  50.335  1.00  0.00     0.170 HD
BRANCH  11  18
HETATM   18  O1  UNL     1      28.913   9.264  49.589  1.00  0.00    -0.341 OA
HETATM   19  C1  UNL     1      30.219   8.894  49.201  1.00  0.00     0.211 C 
ENDBRANCH  11  18
ENDBRANCH   1   7
BRANCH   4  20
HETATM   20  O3  UNL     1      24.128   2.443  49.923  1.00  0.00    -0.291 OA
BRANCH  20  21
HETATM   21  C13 UNL     1      23.661   1.908  51.114  1.00  0.00     0.183 A 
HETATM   22  N3  UNL     1      22.369   1.972  51.521  1.00  0.00    -0.217 NA
HETATM   23  C14 UNL     1      21.988   1.420  52.709  1.00  0.00     0.236 A 
HETATM   24  N4  UNL     1      22.876   0.798  53.510  1.00  0.00    -0.241 NA
HETATM   25  C15 UNL     1      24.175   0.700  53.164  1.00  0.00     0.075 A 
HETATM   26  C16 UNL     1      25.123   0.077  53.943  1.00  0.00     0.069 A 
HETATM   27  C21 UNL     1      24.540   1.266  51.957  1.00  0.00     0.046 A 
HETATM   28  C17 UNL     1      26.451  -0.022  53.585  1.00  0.00     0.070 A 
HETATM   29  C19 UNL     1      26.833   0.539  52.380  1.00  0.00     0.038 A 
HETATM   30  C20 UNL     1      25.881   1.172  51.585  1.00  0.00     0.021 A 
BRANCH  28  31
HETATM   31  O4  UNL     1      27.414  -0.643  54.355  1.00  0.00    -0.356 OA
HETATM   32  C18 UNL     1      28.623  -0.027  54.705  1.00  0.00     0.210 C 
ENDBRANCH  28  31
ENDBRANCH  20  21
ENDBRANCH   4  20
TORSDOF 5
ENDMDL
MODEL 3
REMARK VINA RESULT:      -8.2      3.606      9.779
REMARK  5 active torsions:
REMARK  status: ('A' for Active; 'I' for Inactive)
REMARK    1  A    between atoms: O1_2  and  C2_3 
REMARK       I    between atoms: N1_9  and  C8_10 
REMARK       I    between atoms: C8_10  and  N2_12 
REMARK    2  A    between atoms: N2_12  and  C9_13 
REMARK    3  A    between atoms: C12_16  and  O3_17 
REMARK    4  A    between atoms: O3_17  and  C13_18 
REMARK    5  A    between atoms: C17_24  and  O4_25 
ROOT
HETATM    1  C9  UNL     1      27.139   7.487  49.133  1.00  0.00     0.036 A 
HETATM    2  C10 UNL     1      27.871   6.511  48.487  1.00  0.00     0.032 A 
HETATM    3  C11 UNL     1      27.478   5.169  48.544  1.00  0.00     0.039 A 
HETATM    4  C12 UNL     1      26.350   4.827  49.255  1.00  0.00     0.078 A 
HETATM    5  C22 UNL     1      25.624   5.818  49.900  1.00  0.00     0.039 A 
HETATM    6  C23 UNL     1      25.990   7.160  49.860  1.00  0.00     0.032 A 
ENDROOT
BRANCH   1   7
HETATM    7  N2  UNL     1      27.558   8.844  49.060  1.00  0.00    -0.308 N 
HETATM    8  C8  UNL     1      26.998   9.675  48.059  1.00  0.00     0.333 C 
HETATM    9  N1  UNL     1      27.189  11.037  47.716  1.00  0.00    -0.255 N 
HETATM   10  O2  UNL     1      26.171   9.026  47.365  1.00  0.00    -0.246 OA
HETATM   11  C2  UNL     1      28.116  11.880  48.385  1.00  0.00     0.148 C 
HETATM   12  C7  UNL     1      26.340  11.433  46.615  1.00  0.00     0.100 C 
HETATM   13  C3  UNL     1      27.959  13.184  48.557  1.00  0.00     0.030 C 
HETATM   14  C4  UNL     1      26.836  14.095  48.127  1.00  0.00     0.035 C 
HETATM   15  C5  UNL     1      26.717  13.960  46.646  1.00  0.00     0.032 C 
HETATM   16  C6  UNL     1      26.149  12.691  46.169  1.00  0.00    -0.009 C 
HETATM   17  H11 UNL     1      28.245   9.332  49.674  1.00  0.00     0.170 HD
BRANCH  11  18
HETATM   18  O1  UNL     1      29.219  11.173  48.844  1.00  0.00    -0.341 OA
HETATM   19  C1  UNL     1      30.476  11.146  48.202  1.00  0.00     0.211 C 
ENDBRANCH  11  18
ENDBRANCH   1   7
BRANCH   4  20
HETATM   20  O3  UNL     1      25.842   3.550  49.401  1.00  0.00    -0.291 OA
BRANCH  20  21
HETATM   21  C13 UNL     1      25.981   2.878  50.607  1.00  0.00     0.183 A 
HETATM   22  N3  UNL     1      27.159   2.730  51.263  1.00  0.00    -0.217 NA
HETATM   23  C14 UNL     1      27.212   2.053  52.446  1.00  0.00     0.236 A 
HETATM   24  N4  UNL     1      26.106   1.516  52.998  1.00  0.00    -0.241 NA
HETATM   25  C15 UNL     1      24.905   1.628  52.397  1.00  0.00     0.075 A 
HETATM   26  C16 UNL     1      23.745   1.099  52.915  1.00  0.00     0.069 A 
HETATM   27  C21 UNL     1      24.872   2.316  51.199  1.00  0.00     0.046 A 
HETATM   28  C17 UNL     1      22.518   1.216  52.297  1.00  0.00     0.070 A 
HETATM   29  C19 UNL     1      22.468   1.902  51.097  1.00  0.00     0.038 A 
HETATM   30  C20 UNL     1      23.636   2.441  50.565  1.00  0.00     0.021 A 
BRANCH  28  31
HETATM   31  O4  UNL     1      21.346   0.691  52.803  1.00  0.00    -0.356 OA
HETATM   32  C18 UNL     1      21.240   0.176  54.102  1.00  0.00     0.210 C 
ENDBRANCH  28  31
ENDBRANCH  20  21
ENDBRANCH   4  20
TORSDOF 5
ENDMDL
MODEL 4
REMARK VINA RESULT:      -8.2      2.073      9.847
REMARK  5 active torsions:
REMARK  status: ('A' for Active; 'I' for Inactive)
REMARK    1  A    between atoms: O1_2  and  C2_3 
REMARK       I    between atoms: N1_9  and  C8_10 
REMARK       I    between atoms: C8_10  and  N2_12 
REMARK    2  A    between atoms: N2_12  and  C9_13 
REMARK    3  A    between atoms: C12_16  and  O3_17 
REMARK    4  A    between atoms: O3_17  and  C13_18 
REMARK    5  A    between atoms: C17_24  and  O4_25 
ROOT
HETATM    1  C9  UNL     1      27.969   6.096  48.313  1.00  0.00     0.036 A 
HETATM    2  C10 UNL     1      27.229   7.171  48.761  1.00  0.00     0.032 A 
HETATM    3  C11 UNL     1      26.077   6.974  49.530  1.00  0.00     0.039 A 
HETATM    4  C12 UNL     1      25.684   5.691  49.837  1.00  0.00     0.078 A 
HETATM    5  C22 UNL     1      26.438   4.619  49.380  1.00  0.00     0.039 A 
HETATM    6  C23 UNL     1      27.587   4.785  48.615  1.00  0.00     0.032 A 
ENDROOT
BRANCH   1   7
HETATM    7  N2  UNL     1      29.137   6.322  47.532  1.00  0.00    -0.308 N 
HETATM    8  C8  UNL     1      30.387   5.890  48.039  1.00  0.00     0.333 C 
HETATM    9  N1  UNL     1      31.710   5.957  47.534  1.00  0.00    -0.255 N 
HETATM   10  O2  UNL     1      30.237   5.343  49.164  1.00  0.00    -0.246 OA
HETATM   11  C2  UNL     1      32.035   6.578  46.298  1.00  0.00     0.148 C 
HETATM   12  C7  UNL     1      32.654   5.331  48.431  1.00  0.00     0.100 C 
HETATM   13  C3  UNL     1      33.026   6.201  45.504  1.00  0.00     0.030 C 
HETATM   14  C4  UNL     1      34.029   5.086  45.661  1.00  0.00     0.035 C 
HETATM   15  C5  UNL     1      34.738   5.326  46.953  1.00  0.00     0.032 C 
HETATM   16  C6  UNL     1      33.950   5.067  48.166  1.00  0.00    -0.009 C 
HETATM   17  H11 UNL     1      29.199   6.775  46.596  1.00  0.00     0.170 HD
BRANCH  11  18
HETATM   18  O1  UNL     1      31.184   7.639  46.014  1.00  0.00    -0.341 OA
HETATM   19  C1  UNL     1      31.490   8.996  46.255  1.00  0.00     0.211 C 
ENDBRANCH  11  18
ENDBRANCH   1   7
BRANCH   4  20
HETATM   20  O3  UNL     1      24.575   5.341  50.584  1.00  0.00    -0.291 OA
BRANCH  20  21
HETATM   21  C13 UNL     1      23.790   4.262  50.204  1.00  0.00     0.183 A 
HETATM   22  N3  UNL     1      23.087   4.206  49.046  1.00  0.00    -0.217 NA
HETATM   23  C14 UNL     1      22.337   3.106  48.744  1.00  0.00     0.236 A 
HETATM   24  N4  UNL     1      22.272   2.050  49.578  1.00  0.00    -0.241 NA
HETATM   25  C15 UNL     1      22.947   2.044  50.745  1.00  0.00     0.075 A 
HETATM   26  C16 UNL     1      22.916   0.994  51.634  1.00  0.00     0.069 A 
HETATM   27  C21 UNL     1      23.700   3.166  51.032  1.00  0.00     0.046 A 
HETATM   28  C17 UNL     1      23.610   0.991  52.826  1.00  0.00     0.070 A 
HETATM   29  C19 UNL     1      24.368   2.107  53.129  1.00  0.00     0.038 A 
HETATM   30  C20 UNL     1      24.406   3.175  52.236  1.00  0.00     0.021 A 
BRANCH  28  31
HETATM   31  O4  UNL     1      23.589  -0.054  53.728  1.00  0.00    -0.356 OA
HETATM   32  C18 UNL     1      24.753  -0.655  54.224  1.00  0.00     0.210 C 
ENDBRANCH  28  31
ENDBRANCH  20  21
ENDBRANCH   4  20
TORSDOF 5
ENDMDL
MODEL 5
REMARK VINA RESULT:      -8.2      2.037      2.918
REMARK  5 active torsions:
REMARK  status: ('A' for Active; 'I' for Inactive)
REMARK    1  A    between atoms: O1_2  and  C2_3 
REMARK       I    between atoms: N1_9  and  C8_10 
REMARK       I    between atoms: C8_10  and  N2_12 
REMARK    2  A    between atoms: N2_12  and  C9_13 
REMARK    3  A    between atoms: C12_16  and  O3_17 
REMARK    4  A    between atoms: O3_17  and  C13_18 
REMARK    5  A    between atoms: C17_24  and  O4_25 
ROOT
HETATM    1  C9  UNL     1      25.546   3.417  50.726  1.00  0.00     0.036 A 
HETATM    2  C10 UNL     1      24.935   4.652  50.795  1.00  0.00     0.032 A 
HETATM    3  C11 UNL     1      25.338   5.697  49.957  1.00  0.00     0.039 A 
HETATM    4  C12 UNL     1      26.357   5.483  49.057  1.00  0.00     0.078 A 
HETATM    5  C22 UNL     1      26.964   4.236  48.998  1.00  0.00     0.039 A 
HETATM    6  C23 UNL     1      26.583   3.179  49.817  1.00  0.00     0.032 A 
ENDROOT
BRANCH   1   7
HETATM    7  N2  UNL     1      25.119   2.369  51.588  1.00  0.00    -0.308 N 
HETATM    8  C8  UNL     1      23.747   2.286  51.927  1.00  0.00     0.333 C 
HETATM    9  N1  UNL     1      23.004   1.393  52.740  1.00  0.00    -0.255 N 
HETATM   10  O2  UNL     1      23.101   3.212  51.367  1.00  0.00    -0.246 OA
HETATM   11  C2  UNL     1      23.604   0.327  53.463  1.00  0.00     0.148 C 
HETATM   12  C7  UNL     1      21.596   1.716  52.738  1.00  0.00     0.100 C 
HETATM   13  C3  UNL     1      23.012  -0.828  53.729  1.00  0.00     0.030 C 
HETATM   14  C4  UNL     1      21.631  -1.320  53.373  1.00  0.00     0.035 C 
HETATM   15  C5  UNL     1      20.664  -0.335  53.943  1.00  0.00     0.032 C 
HETATM   16  C6  UNL     1      20.605   0.964  53.258  1.00  0.00    -0.009 C 
HETATM   17  H11 UNL     1      25.703   1.621  52.017  1.00  0.00     0.170 HD
BRANCH  11  18
HETATM   18  O1  UNL     1      24.897   0.637  53.864  1.00  0.00    -0.341 OA
HETATM   19  C1  UNL     1      25.922  -0.314  54.063  1.00  0.00     0.211 C 
ENDBRANCH  11  18
ENDBRANCH   1   7
BRANCH   4  20
HETATM   20  O3  UNL     1      26.862   6.414  48.169  1.00  0.00    -0.291 OA
BRANCH  20  21
HETATM   21  C13 UNL     1      27.656   7.455  48.627  1.00  0.00     0.183 A 
HETATM   22  N3  UNL     1      27.179   8.544  49.280  1.00  0.00    -0.217 NA
HETATM   23  C14 UNL     1      28.027   9.527  49.699  1.00  0.00     0.236 A 
HETATM   24  N4  UNL     1      29.355   9.449  49.480  1.00  0.00    -0.241 NA
HETATM   25  C15 UNL     1      29.892   8.394  48.836  1.00  0.00     0.075 A 
HETATM   26  C16 UNL     1      31.239   8.263  48.585  1.00  0.00     0.069 A 
HETATM   27  C21 UNL     1      29.016   7.409  48.419  1.00  0.00     0.046 A 
HETATM   28  C17 UNL     1      31.784   7.182  47.926  1.00  0.00     0.070 A 
HETATM   29  C19 UNL     1      30.921   6.187  47.503  1.00  0.00     0.038 A 
HETATM   30  C20 UNL     1      29.557   6.310  47.752  1.00  0.00     0.021 A 
BRANCH  28  31
HETATM   31  O4  UNL     1      33.132   7.036  47.666  1.00  0.00    -0.356 OA
HETATM   32  C18 UNL     1      33.990   6.291  48.487  1.00  0.00     0.210 C 
ENDBRANCH  28  31
ENDBRANCH  20  21
ENDBRANCH   4  20
TORSDOF 5
ENDMDL
MODEL 6
REMARK VINA RESULT:      -8.2      2.056      2.933
REMARK  5 active torsions:
REMARK  status: ('A' for Active; 'I' for Inactive)
REMARK    1  A    between atoms: O1_2  and  C2_3 
REMARK       I    between atoms: N1_9  and  C8_10 
REMARK       I    between atoms: C8_10  and  N2_12 
REMARK    2  A    between atoms: N2_12  and  C9_13 
REMARK    3  A    between atoms: C12_16  and  O3_17 
REMARK    4  A    between atoms: O3_17  and  C13_18 
REMARK    5  A    between atoms: C17_24  and  O4_25 
ROOT
HETATM    1  C9  UNL     1      25.387   4.899  49.685  1.00  0.00     0.036 A 
HETATM    2  C10 UNL     1      26.515   4.588  48.954  1.00  0.00     0.032 A 
HETATM    3  C11 UNL     1      27.424   5.585  48.584  1.00  0.00     0.039 A 
HETATM    4  C12 UNL     1      27.182   6.888  48.957  1.00  0.00     0.078 A 
HETATM    5  C22 UNL     1      26.043   7.187  49.691  1.00  0.00     0.039 A 
HETATM    6  C23 UNL     1      25.123   6.216  50.073  1.00  0.00     0.032 A 
ENDROOT
BRANCH   1   7
HETATM    7  N2  UNL     1      24.477   3.867  50.049  1.00  0.00    -0.308 N 
HETATM    8  C8  UNL     1      24.888   2.904  51.003  1.00  0.00     0.333 C 
HETATM    9  N1  UNL     1      24.249   1.775  51.573  1.00  0.00    -0.255 N 
HETATM   10  O2  UNL     1      26.063   3.147  51.390  1.00  0.00    -0.246 OA
HETATM   11  C2  UNL     1      22.941   1.359  51.205  1.00  0.00     0.148 C 
HETATM   12  C7  UNL     1      25.093   1.121  52.547  1.00  0.00     0.100 C 
HETATM   13  C3  UNL     1      22.084   0.762  52.019  1.00  0.00     0.030 C 
HETATM   14  C4  UNL     1      22.228   0.375  53.470  1.00  0.00     0.035 C 
HETATM   15  C5  UNL     1      23.418  -0.521  53.560  1.00  0.00     0.032 C 
HETATM   16  C6  UNL     1      24.721   0.138  53.391  1.00  0.00    -0.009 C 
HETATM   17  H11 UNL     1      23.506   3.722  49.699  1.00  0.00     0.170 HD
BRANCH  11  18
HETATM   18  O1  UNL     1      22.661   1.653  49.877  1.00  0.00    -0.341 OA
HETATM   19  C1  UNL     1      21.542   1.163  49.168  1.00  0.00     0.211 C 
ENDBRANCH  11  18
ENDBRANCH   1   7
BRANCH   4  20
HETATM   20  O3  UNL     1      27.984   7.975  48.666  1.00  0.00    -0.291 OA
BRANCH  20  21
HETATM   21  C13 UNL     1      28.793   7.963  47.539  1.00  0.00     0.183 A 
HETATM   22  N3  UNL     1      28.336   8.144  46.275  1.00  0.00    -0.217 NA
HETATM   23  C14 UNL     1      29.198   8.118  45.217  1.00  0.00     0.236 A 
HETATM   24  N4  UNL     1      30.518   7.916  45.392  1.00  0.00    -0.241 NA
HETATM   25  C15 UNL     1      31.035   7.729  46.623  1.00  0.00     0.075 A 
HETATM   26  C16 UNL     1      32.375   7.518  46.858  1.00  0.00     0.069 A 
HETATM   27  C21 UNL     1      30.147   7.758  47.681  1.00  0.00     0.046 A 
HETATM   28  C17 UNL     1      32.900   7.329  48.119  1.00  0.00     0.070 A 
HETATM   29  C19 UNL     1      32.024   7.355  49.189  1.00  0.00     0.038 A 
HETATM   30  C20 UNL     1      30.668   7.568  48.961  1.00  0.00     0.021 A 
BRANCH  28  31
HETATM   31  O4  UNL     1      34.241   7.115  48.373  1.00  0.00    -0.356 OA
HETATM   32  C18 UNL     1      34.757   5.864  48.736  1.00  0.00     0.210 C 
ENDBRANCH  28  31
ENDBRANCH  20  21
ENDBRANCH   4  20
TORSDOF 5
ENDMDL
MODEL 7
REMARK VINA RESULT:      -8.2      2.429     10.182
REMARK  5 active torsions:
REMARK  status: ('A' for Active; 'I' for Inactive)
REMARK    1  A    between atoms: O1_2  and  C2_3 
REMARK       I    between atoms: N1_9  and  C8_10 
REMARK       I    between atoms: C8_10  and  N2_12 
REMARK    2  A    between atoms: N2_12  and  C9_13 
REMARK    3  A    between atoms: C12_16  and  O3_17 
REMARK    4  A    between atoms: O3_17  and  C13_18 
REMARK    5  A    between atoms: C17_24  and  O4_25 
ROOT
HETATM    1  C9  UNL     1      25.439   5.145  49.288  1.00  0.00     0.036 A 
HETATM    2  C10 UNL     1      25.741   4.118  50.160  1.00  0.00     0.032 A 
HETATM    3  C11 UNL     1      24.831   3.078  50.380  1.00  0.00     0.039 A 
HETATM    4  C12 UNL     1      23.625   3.087  49.719  1.00  0.00     0.078 A 
HETATM    5  C22 UNL     1      23.333   4.126  48.846  1.00  0.00     0.039 A 
HETATM    6  C23 UNL     1      24.218   5.172  48.606  1.00  0.00     0.032 A 
ENDROOT
BRANCH   1   7
HETATM    7  N2  UNL     1      26.379   6.192  49.080  1.00  0.00    -0.308 N 
HETATM    8  C8  UNL     1      27.684   5.856  48.642  1.00  0.00     0.333 C 
HETATM    9  N1  UNL     1      28.833   6.631  48.347  1.00  0.00    -0.255 N 
HETATM   10  O2  UNL     1      27.789   4.608  48.501  1.00  0.00    -0.246 OA
HETATM   11  C2  UNL     1      28.873   8.043  48.496  1.00  0.00     0.148 C 
HETATM   12  C7  UNL     1      29.929   5.805  47.894  1.00  0.00     0.100 C 
HETATM   13  C3  UNL     1      29.597   8.859  47.745  1.00  0.00     0.030 C 
HETATM   14  C4  UNL     1      30.525   8.558  46.595  1.00  0.00     0.035 C 
HETATM   15  C5  UNL     1      31.558   7.613  47.113  1.00  0.00     0.032 C 
HETATM   16  C6  UNL     1      31.091   6.243  47.367  1.00  0.00    -0.009 C 
HETATM   17  H11 UNL     1      26.230   7.215  49.206  1.00  0.00     0.170 HD
BRANCH  11  18
HETATM   18  O1  UNL     1      28.055   8.475  49.533  1.00  0.00    -0.341 OA
HETATM   19  C1  UNL     1      27.283   9.657  49.501  1.00  0.00     0.211 C 
ENDBRANCH  11  18
ENDBRANCH   1   7
BRANCH   4  20
HETATM   20  O3  UNL     1      22.631   2.133  49.834  1.00  0.00    -0.291 OA
BRANCH  20  21
HETATM   21  C13 UNL     1      21.640   2.272  50.795  1.00  0.00     0.183 A 
HETATM   22  N3  UNL     1      20.630   3.175  50.719  1.00  0.00    -0.217 NA
HETATM   23  C14 UNL     1      19.692   3.249  51.707  1.00  0.00     0.236 A 
HETATM   24  N4  UNL     1      19.737   2.435  52.780  1.00  0.00    -0.241 NA
HETATM   25  C15 UNL     1      20.715   1.517  52.916  1.00  0.00     0.075 A 
HETATM   26  C16 UNL     1      20.809   0.662  53.990  1.00  0.00     0.069 A 
HETATM   27  C21 UNL     1      21.655   1.458  51.905  1.00  0.00     0.046 A 
HETATM   28  C17 UNL     1      21.810  -0.277  54.124  1.00  0.00     0.070 A 
HETATM   29  C19 UNL     1      22.760  -0.349  53.121  1.00  0.00     0.038 A 
HETATM   30  C20 UNL     1      22.673   0.512  52.030  1.00  0.00     0.021 A 
BRANCH  28  31
HETATM   31  O4  UNL     1      21.919  -1.141  55.195  1.00  0.00    -0.356 OA
HETATM   32  C18 UNL     1      23.150  -1.620  55.665  1.00  0.00     0.210 C 
ENDBRANCH  28  31
ENDBRANCH  20  21
ENDBRANCH   4  20
TORSDOF 5
ENDMDL
MODEL 8
REMARK VINA RESULT:      -8.1      3.387     10.054
REMARK  5 active torsions:
REMARK  status: ('A' for Active; 'I' for Inactive)
REMARK    1  A    between atoms: O1_2  and  C2_3 
REMARK       I    between atoms: N1_9  and  C8_10 
REMARK       I    between atoms: C8_10  and  N2_12 
REMARK    2  A    between atoms: N2_12  and  C9_13 
REMARK    3  A    between atoms: C12_16  and  O3_17 
REMARK    4  A    between atoms: O3_17  and  C13_18 
REMARK    5  A    between atoms: C17_24  and  O4_25 
ROOT
HETATM    1  C9  UNL     1      27.283   6.362  48.266  1.00  0.00     0.036 A 
HETATM    2  C10 UNL     1      27.854   5.120  48.460  1.00  0.00     0.032 A 
HETATM    3  C11 UNL     1      27.165   4.117  49.150  1.00  0.00     0.039 A 
HETATM    4  C12 UNL     1      25.906   4.380  49.640  1.00  0.00     0.078 A 
HETATM    5  C22 UNL     1      25.344   5.632  49.439  1.00  0.00     0.039 A 
HETATM    6  C23 UNL     1      26.004   6.648  48.756  1.00  0.00     0.032 A 
ENDROOT
BRANCH   1   7
HETATM    7  N2  UNL     1      28.002   7.366  47.560  1.00  0.00    -0.308 N 
HETATM    8  C8  UNL     1      28.600   8.418  48.296  1.00  0.00     0.333 C 
HETATM    9  N1  UNL     1      29.365   9.549  47.917  1.00  0.00    -0.255 N 
HETATM   10  O2  UNL     1      28.378   8.270  49.528  1.00  0.00    -0.246 OA
HETATM   11  C2  UNL     1      29.661   9.864  46.564  1.00  0.00     0.148 C 
HETATM   12  C7  UNL     1      29.782  10.319  49.067  1.00  0.00     0.100 C 
HETATM   13  C3  UNL     1      30.765  10.471  46.156  1.00  0.00     0.030 C 
HETATM   14  C4  UNL     1      31.949  10.972  46.946  1.00  0.00     0.035 C 
HETATM   15  C5  UNL     1      31.416  11.937  47.953  1.00  0.00     0.032 C 
HETATM   16  C6  UNL     1      30.663  11.340  49.064  1.00  0.00    -0.009 C 
HETATM   17  H11 UNL     1      28.161   7.431  46.532  1.00  0.00     0.170 HD
BRANCH  11  18
HETATM   18  O1  UNL     1      28.647   9.457  45.706  1.00  0.00    -0.341 OA
HETATM   19  C1  UNL     1      27.629  10.303  45.213  1.00  0.00     0.211 C 
ENDBRANCH  11  18
ENDBRANCH   1   7
BRANCH   4  20
HETATM   20  O3  UNL     1      25.109   3.493  50.338  1.00  0.00    -0.291 OA
BRANCH  20  21
HETATM   21  C13 UNL     1      25.672   2.632  51.269  1.00  0.00     0.183 A 
HETATM   22  N3  UNL     1      26.982   2.644  51.618  1.00  0.00    -0.217 NA
HETATM   23  C14 UNL     1      27.460   1.762  52.543  1.00  0.00     0.236 A 
HETATM   24  N4  UNL     1      26.653   0.860  53.136  1.00  0.00    -0.241 NA
HETATM   25  C15 UNL     1      25.341   0.796  52.832  1.00  0.00     0.075 A 
HETATM   26  C16 UNL     1      24.473  -0.104  53.406  1.00  0.00     0.069 A 
HETATM   27  C21 UNL     1      24.877   1.697  51.893  1.00  0.00     0.046 A 
HETATM   28  C17 UNL     1      23.131  -0.165  53.093  1.00  0.00     0.070 A 
HETATM   29  C19 UNL     1      22.650   0.730  52.154  1.00  0.00     0.038 A 
HETATM   30  C20 UNL     1      23.521   1.645  51.569  1.00  0.00     0.021 A 
BRANCH  28  31
HETATM   31  O4  UNL     1      22.247  -1.062  53.658  1.00  0.00    -0.356 OA
HETATM   32  C18 UNL     1      20.921  -0.732  53.970  1.00  0.00     0.210 C 
ENDBRANCH  28  31
ENDBRANCH  20  21
ENDBRANCH   4  20
TORSDOF 5
ENDMDL
MODEL 9
REMARK VINA RESULT:      -8.1      4.128      8.866
REMARK  5 active torsions:
REMARK  status: ('A' for Active; 'I' for Inactive)
REMARK    1  A    between atoms: O1_2  and  C2_3 
REMARK       I    between atoms: N1_9  and  C8_10 
REMARK       I    between atoms: C8_10  and  N2_12 
REMARK    2  A    between atoms: N2_12  and  C9_13 
REMARK    3  A    between atoms: C12_16  and  O3_17 
REMARK    4  A    between atoms: O3_17  and  C13_18 
REMARK    5  A    between atoms: C17_24  and  O4_25 
ROOT
HETATM    1  C9  UNL     1      24.188   5.786  49.577  1.00  0.00     0.036 A 
HETATM    2  C10 UNL     1      24.313   4.417  49.458  1.00  0.00     0.032 A 
HETATM    3  C11 UNL     1      24.183   3.587  50.578  1.00  0.00     0.039 A 
HETATM    4  C12 UNL     1      23.931   4.152  51.807  1.00  0.00     0.078 A 
HETATM    5  C22 UNL     1      23.809   5.530  51.913  1.00  0.00     0.039 A 
HETATM    6  C23 UNL     1      23.931   6.378  50.818  1.00  0.00     0.032 A 
ENDROOT
BRANCH   1   7
HETATM    7  N2  UNL     1      24.323   6.609  48.424  1.00  0.00    -0.308 N 
HETATM    8  C8  UNL     1      25.616   7.054  48.054  1.00  0.00     0.333 C 
HETATM    9  N1  UNL     1      26.092   7.863  46.993  1.00  0.00    -0.255 N 
HETATM   10  O2  UNL     1      26.477   6.612  48.861  1.00  0.00    -0.246 OA
HETATM   11  C2  UNL     1      25.234   8.460  46.031  1.00  0.00     0.148 C 
HETATM   12  C7  UNL     1      27.530   7.999  47.031  1.00  0.00     0.100 C 
HETATM   13  C3  UNL     1      25.565   8.695  44.770  1.00  0.00     0.030 C 
HETATM   14  C4  UNL     1      26.853   8.422  44.034  1.00  0.00     0.035 C 
HETATM   15  C5  UNL     1      27.933   9.135  44.778  1.00  0.00     0.032 C 
HETATM   16  C6  UNL     1      28.304   8.547  46.073  1.00  0.00    -0.009 C 
HETATM   17  H11 UNL     1      23.568   6.936  47.785  1.00  0.00     0.170 HD
BRANCH  11  18
HETATM   18  O1  UNL     1      23.992   8.772  46.570  1.00  0.00    -0.341 OA
HETATM   19  C1  UNL     1      22.779   8.752  45.848  1.00  0.00     0.211 C 
ENDBRANCH  11  18
ENDBRANCH   1   7
BRANCH   4  20
HETATM   20  O3  UNL     1      23.779   3.465  52.997  1.00  0.00    -0.291 OA
BRANCH  20  21
HETATM   21  C13 UNL     1      23.672   2.082  52.994  1.00  0.00     0.183 A 
HETATM   22  N3  UNL     1      22.534   1.409  52.690  1.00  0.00    -0.217 NA
HETATM   23  C14 UNL     1      22.510   0.044  52.711  1.00  0.00     0.236 A 
HETATM   24  N4  UNL     1      23.606  -0.672  53.030  1.00  0.00    -0.241 NA
HETATM   25  C15 UNL     1      24.767  -0.064  53.343  1.00  0.00     0.075 A 
HETATM   26  C16 UNL     1      25.915  -0.746  53.677  1.00  0.00     0.069 A 
HETATM   27  C21 UNL     1      24.771   1.318  53.317  1.00  0.00     0.046 A 
HETATM   28  C17 UNL     1      27.101  -0.120  53.996  1.00  0.00     0.070 A 
HETATM   29  C19 UNL     1      27.122   1.263  53.975  1.00  0.00     0.038 A 
HETATM   30  C20 UNL     1      25.966   1.962  53.638  1.00  0.00     0.021 A 
BRANCH  28  31
HETATM   31  O4  UNL     1      28.261  -0.789  54.334  1.00  0.00    -0.356 OA
HETATM   32  C18 UNL     1      29.380  -0.846  53.492  1.00  0.00     0.210 C 
ENDBRANCH  28  31
ENDBRANCH  20  21
ENDBRANCH   4  20
TORSDOF 5
ENDMDL
