MODEL 1
REMARK VINA RESULT:      -8.2      0.000      0.000
REMARK  5 active torsions:
REMARK  status: ('A' for Active; 'I' for Inactive)
REMARK    1  A    between atoms: N1_1  and  C1_2 
REMARK    2  A    between atoms: C6_7  and  S1_8 
REMARK    3  A    between atoms: S1_8  and  C7_9 
REMARK    4  A    between atoms: C11_14  and  O1_15 
REMARK    5  A    between atoms: C17_21  and  N3_22 
ROOT
HETATM    1  C7  UNL     1      25.757   0.666  52.645  1.00  0.00     0.116 C 
HETATM    2  C8  UNL     1      26.816   0.334  51.629  1.00  0.00     0.099 C 
HETATM    3  C9  UNL     1      26.974  -0.840  52.509  1.00  0.00     0.014 C 
HETATM    4  N2  UNL     1      25.697  -0.758  52.744  1.00  0.00    -0.275 NA
HETATM    5  C10 UNL     1      28.084  -1.749  52.964  1.00  0.00     0.090 C 
HETATM    6  C11 UNL     1      28.971  -1.055  54.006  1.00  0.00     0.154 C 
HETATM    7  C12 UNL     1      28.273   0.217  54.331  1.00  0.00    -0.018 C 
HETATM    8  C13 UNL     1      29.097   1.202  54.031  1.00  0.00     0.007 C 
HETATM    9  C14 UNL     1      28.447   2.450  53.571  1.00  0.00    -0.003 C 
HETATM   10  C15 UNL     1      27.128   2.497  53.493  1.00  0.00    -0.016 C 
HETATM   11  C16 UNL     1      26.227   1.376  53.857  1.00  0.00     0.086 C 
HETATM   12  C17 UNL     1      26.917   0.505  54.883  1.00  0.00     0.260 C 
ENDROOT
BRANCH   1  13
HETATM   13  S1  UNL     1      24.375   1.499  51.870  1.00  0.00    -0.120 SA
BRANCH  13  14
HETATM   14  C6  UNL     1      22.963   1.757  52.962  1.00  0.00     0.122 C 
HETATM   15  C1  UNL     1      21.851   2.264  52.109  1.00  0.00     0.031 C 
HETATM   16  C2  UNL     1      21.315   1.490  51.209  1.00  0.00    -0.000 C 
HETATM   17  C3  UNL     1      21.298   0.203  51.411  1.00  0.00     0.014 C 
HETATM   18  C4  UNL     1      21.717  -0.353  52.693  1.00  0.00    -0.002 C 
HETATM   19  C5  UNL     1      22.519   0.410  53.425  1.00  0.00    -0.005 C 
BRANCH  15  20
HETATM   20  N1  UNL     1      21.341   3.587  52.242  1.00  0.00    -0.400 N 
HETATM   21  H1  UNL     1      21.117   4.603  52.310  1.00  0.00     0.156 HD
HETATM   22  H2  UNL     1      20.317   3.525  52.455  1.00  0.00     0.156 HD
ENDBRANCH  15  20
ENDBRANCH  13  14
ENDBRANCH   1  13
BRANCH  12  23
HETATM   23  N3  UNL     1      26.187  -0.680  55.193  1.00  0.00     0.087 N 
HETATM   24  H18 UNL     1      25.861  -0.675  56.205  1.00  0.00     0.313 HD
HETATM   25  H19 UNL     1      25.276  -0.692  54.646  1.00  0.00     0.313 HD
ENDBRANCH  12  23
BRANCH   6  26
HETATM   26  O1  UNL     1      30.228  -0.757  53.460  1.00  0.00    -0.391 OA
HETATM   27  H12 UNL     1      30.215  -0.814  52.468  1.00  0.00     0.210 HD
ENDBRANCH   6  26
TORSDOF 5
ENDMDL
MODEL 2
REMARK VINA RESULT:      -8.1      2.077      2.418
REMARK  5 active torsions:
REMARK  status: ('A' for Active; 'I' for Inactive)
REMARK    1  A    between atoms: N1_1  and  C1_2 
REMARK    2  A    between atoms: C6_7  and  S1_8 
REMARK    3  A    between atoms: S1_8  and  C7_9 
REMARK    4  A    between atoms: C11_14  and  O1_15 
REMARK    5  A    between atoms: C17_21  and  N3_22 
ROOT
HETATM    1  C7  UNL     1      25.626   0.732  52.743  1.00  0.00     0.116 C 
HETATM    2  C8  UNL     1      26.610   0.389  51.658  1.00  0.00     0.099 C 
HETATM    3  C9  UNL     1      26.781  -0.809  52.500  1.00  0.00     0.014 C 
HETATM    4  N2  UNL     1      25.524  -0.692  52.814  1.00  0.00    -0.275 NA
HETATM    5  C10 UNL     1      27.885  -1.765  52.867  1.00  0.00     0.090 C 
HETATM    6  C11 UNL     1      28.856  -1.126  53.869  1.00  0.00     0.154 C 
HETATM    7  C12 UNL     1      28.222   0.160  54.264  1.00  0.00    -0.018 C 
HETATM    8  C13 UNL     1      29.060   1.124  53.935  1.00  0.00     0.007 C 
HETATM    9  C14 UNL     1      28.426   2.404  53.544  1.00  0.00    -0.003 C 
HETATM   10  C15 UNL     1      27.108   2.496  53.547  1.00  0.00    -0.016 C 
HETATM   11  C16 UNL     1      26.192   1.396  53.940  1.00  0.00     0.086 C 
HETATM   12  C17 UNL     1      26.912   0.479  54.903  1.00  0.00     0.260 C 
ENDROOT
BRANCH   1  13
HETATM   13  S1  UNL     1      24.230   1.628  52.072  1.00  0.00    -0.120 SA
BRANCH  13  14
HETATM   14  C6  UNL     1      24.519   3.395  51.863  1.00  0.00     0.122 C 
HETATM   15  C1  UNL     1      25.175   3.567  50.536  1.00  0.00     0.031 C 
HETATM   16  C2  UNL     1      24.513   3.306  49.444  1.00  0.00    -0.000 C 
HETATM   17  C3  UNL     1      23.220   3.468  49.435  1.00  0.00     0.014 C 
HETATM   18  C4  UNL     1      22.541   4.088  50.567  1.00  0.00    -0.002 C 
HETATM   19  C5  UNL     1      23.182   4.043  51.728  1.00  0.00    -0.005 C 
BRANCH  15  20
HETATM   20  N1  UNL     1      26.521   4.015  50.411  1.00  0.00    -0.400 N 
HETATM   21  H1  UNL     1      27.445   4.489  50.315  1.00  0.00     0.156 HD
HETATM   22  H2  UNL     1      27.148   3.176  50.418  1.00  0.00     0.156 HD
ENDBRANCH  15  20
ENDBRANCH  13  14
ENDBRANCH   1  13
BRANCH  12  23
HETATM   23  N3  UNL     1      26.162  -0.689  55.230  1.00  0.00     0.087 N 
HETATM   24  H18 UNL     1      25.117  -0.500  55.177  1.00  0.00     0.313 HD
HETATM   25  H19 UNL     1      26.312  -1.431  54.484  1.00  0.00     0.313 HD
ENDBRANCH  12  23
BRANCH   6  26
HETATM   26  O1  UNL     1      30.087  -0.856  53.254  1.00  0.00    -0.391 OA
HETATM   27  H12 UNL     1      30.756  -1.563  53.456  1.00  0.00     0.210 HD
ENDBRANCH   6  26
TORSDOF 5
ENDMDL
MODEL 3
REMARK VINA RESULT:      -7.3      1.915      2.974
REMARK  5 active torsions:
REMARK  status: ('A' for Active; 'I' for Inactive)
REMARK    1  A    between atoms: N1_1  and  C1_2 
REMARK    2  A    between atoms: C6_7  and  S1_8 
REMARK    3  A    between atoms: S1_8  and  C7_9 
REMARK    4  A    between atoms: C11_14  and  O1_15 
REMARK    5  A    between atoms: C17_21  and  N3_22 
ROOT
HETATM    1  C7  UNL     1      24.778   1.227  52.825  1.00  0.00     0.116 C 
HETATM    2  C8  UNL     1      25.316   2.331  53.695  1.00  0.00     0.099 C 
HETATM    3  C9  UNL     1      26.475   2.170  52.796  1.00  0.00     0.014 C 
HETATM    4  N2  UNL     1      25.627   1.853  51.861  1.00  0.00    -0.275 NA
HETATM    5  C10 UNL     1      27.973   2.297  52.876  1.00  0.00     0.090 C 
HETATM    6  C11 UNL     1      28.588   1.099  53.611  1.00  0.00     0.154 C 
HETATM    7  C12 UNL     1      27.467   0.139  53.804  1.00  0.00    -0.018 C 
HETATM    8  C13 UNL     1      27.336  -0.049  55.103  1.00  0.00     0.007 C 
HETATM    9  C14 UNL     1      25.956  -0.317  55.565  1.00  0.00    -0.003 C 
HETATM   10  C15 UNL     1      24.976  -0.348  54.678  1.00  0.00    -0.016 C 
HETATM   11  C16 UNL     1      25.160  -0.149  53.219  1.00  0.00     0.086 C 
HETATM   12  C17 UNL     1      26.566  -0.558  52.842  1.00  0.00     0.260 C 
ENDROOT
BRANCH   1  13
HETATM   13  S1  UNL     1      23.011   1.399  52.605  1.00  0.00    -0.120 SA
BRANCH  13  14
HETATM   14  C6  UNL     1      22.169  -0.134  52.165  1.00  0.00     0.122 C 
HETATM   15  C1  UNL     1      21.285  -0.482  53.313  1.00  0.00     0.031 C 
HETATM   16  C2  UNL     1      20.264   0.273  53.601  1.00  0.00    -0.000 C 
HETATM   17  C3  UNL     1      19.673   0.929  52.642  1.00  0.00     0.014 C 
HETATM   18  C4  UNL     1      20.037   0.697  51.249  1.00  0.00    -0.002 C 
HETATM   19  C5  UNL     1      21.244   0.184  51.039  1.00  0.00    -0.005 C 
BRANCH  15  20
HETATM   20  N1  UNL     1      21.518  -1.629  54.124  1.00  0.00    -0.400 N 
HETATM   21  H1  UNL     1      21.617  -2.387  54.834  1.00  0.00     0.156 HD
HETATM   22  H2  UNL     1      22.006  -2.350  53.542  1.00  0.00     0.156 HD
ENDBRANCH  15  20
ENDBRANCH  13  14
ENDBRANCH   1  13
BRANCH  12  23
HETATM   23  N3  UNL     1      26.887  -0.271  51.482  1.00  0.00     0.087 N 
HETATM   24  H18 UNL     1      26.028  -0.355  50.861  1.00  0.00     0.313 HD
HETATM   25  H19 UNL     1      27.155   0.753  51.387  1.00  0.00     0.313 HD
ENDBRANCH  12  23
BRANCH   6  26
HETATM   26  O1  UNL     1      29.072   1.491  54.868  1.00  0.00    -0.391 OA
HETATM   27  H12 UNL     1      28.329   1.703  55.493  1.00  0.00     0.210 HD
ENDBRANCH   6  26
TORSDOF 5
ENDMDL
MODEL 4
REMARK VINA RESULT:      -7.2      3.675      6.797
REMARK  5 active torsions:
REMARK  status: ('A' for Active; 'I' for Inactive)
REMARK    1  A    between atoms: N1_1  and  C1_2 
REMARK    2  A    between atoms: C6_7  and  S1_8 
REMARK    3  A    between atoms: S1_8  and  C7_9 
REMARK    4  A    between atoms: C11_14  and  O1_15 
REMARK    5  A    between atoms: C17_21  and  N3_22 
ROOT
HETATM    1  C7  UNL     1      23.930   2.973  51.435  1.00  0.00     0.116 C 
HETATM    2  C8  UNL     1      23.525   2.891  49.988  1.00  0.00     0.099 C 
HETATM    3  C9  UNL     1      24.033   4.276  50.000  1.00  0.00     0.014 C 
HETATM    4  N2  UNL     1      24.888   3.889  50.901  1.00  0.00    -0.275 NA
HETATM    5  C10 UNL     1      23.732   5.579  49.308  1.00  0.00     0.090 C 
HETATM    6  C11 UNL     1      22.456   6.219  49.872  1.00  0.00     0.154 C 
HETATM    7  C12 UNL     1      22.091   5.391  51.053  1.00  0.00    -0.018 C 
HETATM    8  C13 UNL     1      20.886   4.905  50.829  1.00  0.00     0.007 C 
HETATM    9  C14 UNL     1      20.626   3.571  51.417  1.00  0.00    -0.003 C 
HETATM   10  C15 UNL     1      21.583   2.973  52.104  1.00  0.00    -0.016 C 
HETATM   11  C16 UNL     1      22.925   3.557  52.353  1.00  0.00     0.086 C 
HETATM   12  C17 UNL     1      22.819   5.065  52.313  1.00  0.00     0.260 C 
ENDROOT
BRANCH   1  13
HETATM   13  S1  UNL     1      24.533   1.391  52.014  1.00  0.00    -0.120 SA
BRANCH  13  14
HETATM   14  C6  UNL     1      26.329   1.284  52.131  1.00  0.00     0.122 C 
HETATM   15  C1  UNL     1      26.681   1.546  53.555  1.00  0.00     0.031 C 
HETATM   16  C2  UNL     1      26.333   0.697  54.479  1.00  0.00    -0.000 C 
HETATM   17  C3  UNL     1      26.230  -0.566  54.171  1.00  0.00     0.014 C 
HETATM   18  C4  UNL     1      26.656  -1.048  52.862  1.00  0.00    -0.002 C 
HETATM   19  C5  UNL     1      26.697  -0.142  51.892  1.00  0.00    -0.005 C 
BRANCH  15  20
HETATM   20  N1  UNL     1      27.396   2.711  53.953  1.00  0.00    -0.400 N 
HETATM   21  H1  UNL     1      27.777   3.631  54.267  1.00  0.00     0.156 HD
HETATM   22  H2  UNL     1      28.422   2.507  53.888  1.00  0.00     0.156 HD
ENDBRANCH  15  20
ENDBRANCH  13  14
ENDBRANCH   1  13
BRANCH  12  23
HETATM   23  N3  UNL     1      24.084   5.718  52.402  1.00  0.00     0.087 N 
HETATM   24  H18 UNL     1      24.762   5.339  51.676  1.00  0.00     0.313 HD
HETATM   25  H19 UNL     1      23.979   6.738  52.126  1.00  0.00     0.313 HD
ENDBRANCH  12  23
BRANCH   6  26
HETATM   26  O1  UNL     1      21.418   6.152  48.931  1.00  0.00    -0.391 OA
HETATM   27  H12 UNL     1      21.384   5.261  48.491  1.00  0.00     0.210 HD
ENDBRANCH   6  26
TORSDOF 5
ENDMDL
MODEL 5
REMARK VINA RESULT:      -7.1      3.786      6.581
REMARK  5 active torsions:
REMARK  status: ('A' for Active; 'I' for Inactive)
REMARK    1  A    between atoms: N1_1  and  C1_2 
REMARK    2  A    between atoms: C6_7  and  S1_8 
REMARK    3  A    between atoms: S1_8  and  C7_9 
REMARK    4  A    between atoms: C11_14  and  O1_15 
REMARK    5  A    between atoms: C17_21  and  N3_22 
ROOT
HETATM    1  C7  UNL     1      23.823   2.820  51.321  1.00  0.00     0.116 C 
HETATM    2  C8  UNL     1      24.146   4.031  52.155  1.00  0.00     0.099 C 
HETATM    3  C9  UNL     1      22.841   4.467  51.624  1.00  0.00     0.014 C 
HETATM    4  N2  UNL     1      22.487   3.215  51.637  1.00  0.00    -0.275 NA
HETATM    5  C10 UNL     1      22.175   5.757  51.227  1.00  0.00     0.090 C 
HETATM    6  C11 UNL     1      22.704   6.256  49.876  1.00  0.00     0.154 C 
HETATM    7  C12 UNL     1      23.555   5.153  49.356  1.00  0.00    -0.018 C 
HETATM    8  C13 UNL     1      24.770   5.641  49.197  1.00  0.00     0.007 C 
HETATM    9  C14 UNL     1      25.870   4.674  49.411  1.00  0.00    -0.003 C 
HETATM   10  C15 UNL     1      25.576   3.427  49.737  1.00  0.00    -0.016 C 
HETATM   11  C16 UNL     1      24.196   2.905  49.890  1.00  0.00     0.086 C 
HETATM   12  C17 UNL     1      23.262   3.727  49.031  1.00  0.00     0.260 C 
ENDROOT
BRANCH   1  13
HETATM   13  S1  UNL     1      24.450   1.333  52.094  1.00  0.00    -0.120 SA
BRANCH  13  14
HETATM   14  C6  UNL     1      26.250   1.248  52.177  1.00  0.00     0.122 C 
HETATM   15  C1  UNL     1      26.625   1.521  53.593  1.00  0.00     0.031 C 
HETATM   16  C2  UNL     1      26.305   0.671  54.527  1.00  0.00    -0.000 C 
HETATM   17  C3  UNL     1      26.211  -0.594  54.226  1.00  0.00     0.014 C 
HETATM   18  C4  UNL     1      26.618  -1.076  52.911  1.00  0.00    -0.002 C 
HETATM   19  C5  UNL     1      26.630  -0.174  51.937  1.00  0.00    -0.005 C 
BRANCH  15  20
HETATM   20  N1  UNL     1      27.333   2.696  53.973  1.00  0.00    -0.400 N 
HETATM   21  H1  UNL     1      27.773   3.545  54.389  1.00  0.00     0.156 HD
HETATM   22  H2  UNL     1      27.953   2.979  53.177  1.00  0.00     0.156 HD
ENDBRANCH  15  20
ENDBRANCH  13  14
ENDBRANCH   1  13
BRANCH  12  23
HETATM   23  N3  UNL     1      21.888   3.392  49.218  1.00  0.00     0.087 N 
HETATM   24  H18 UNL     1      21.399   4.110  49.830  1.00  0.00     0.313 HD
HETATM   25  H19 UNL     1      21.372   3.471  48.292  1.00  0.00     0.313 HD
ENDBRANCH  12  23
BRANCH   6  26
HETATM   26  O1  UNL     1      23.498   7.399  50.052  1.00  0.00    -0.391 OA
HETATM   27  H12 UNL     1      23.545   7.939  49.219  1.00  0.00     0.210 HD
ENDBRANCH   6  26
TORSDOF 5
ENDMDL
MODEL 6
REMARK VINA RESULT:      -7.1      3.286      6.693
REMARK  5 active torsions:
REMARK  status: ('A' for Active; 'I' for Inactive)
REMARK    1  A    between atoms: N1_1  and  C1_2 
REMARK    2  A    between atoms: C6_7  and  S1_8 
REMARK    3  A    between atoms: S1_8  and  C7_9 
REMARK    4  A    between atoms: C11_14  and  O1_15 
REMARK    5  A    between atoms: C17_21  and  N3_22 
ROOT
HETATM    1  C7  UNL     1      24.840   2.877  51.561  1.00  0.00     0.116 C 
HETATM    2  C8  UNL     1      24.173   2.511  50.262  1.00  0.00     0.099 C 
HETATM    3  C9  UNL     1      24.061   3.979  50.165  1.00  0.00     0.014 C 
HETATM    4  N2  UNL     1      25.186   4.045  50.816  1.00  0.00    -0.275 NA
HETATM    5  C10 UNL     1      23.102   4.988  49.592  1.00  0.00     0.090 C 
HETATM    6  C11 UNL     1      21.850   5.116  50.468  1.00  0.00     0.154 C 
HETATM    7  C12 UNL     1      22.144   4.322  51.691  1.00  0.00    -0.018 C 
HETATM    8  C13 UNL     1      21.225   3.379  51.773  1.00  0.00     0.007 C 
HETATM    9  C14 UNL     1      21.676   2.111  52.388  1.00  0.00    -0.003 C 
HETATM   10  C15 UNL     1      22.927   2.006  52.802  1.00  0.00    -0.016 C 
HETATM   11  C16 UNL     1      23.933   3.094  52.711  1.00  0.00     0.086 C 
HETATM   12  C17 UNL     1      23.217   4.426  52.722  1.00  0.00     0.260 C 
ENDROOT
BRANCH   1  13
HETATM   13  S1  UNL     1      26.152   1.723  51.946  1.00  0.00    -0.120 SA
BRANCH  13  14
HETATM   14  C6  UNL     1      26.592   1.662  53.694  1.00  0.00     0.122 C 
HETATM   15  C1  UNL     1      26.741   0.222  54.047  1.00  0.00     0.031 C 
HETATM   16  C2  UNL     1      27.714  -0.477  53.535  1.00  0.00    -0.000 C 
HETATM   17  C3  UNL     1      28.829   0.123  53.225  1.00  0.00     0.014 C 
HETATM   18  C4  UNL     1      29.051   1.516  53.597  1.00  0.00    -0.002 C 
HETATM   19  C5  UNL     1      27.961   2.241  53.818  1.00  0.00    -0.005 C 
BRANCH  15  20
HETATM   20  N1  UNL     1      25.846  -0.432  54.940  1.00  0.00    -0.400 N 
HETATM   21  H1  UNL     1      25.269  -0.836  55.710  1.00  0.00     0.156 HD
HETATM   22  H2  UNL     1      25.192  -1.025  54.375  1.00  0.00     0.156 HD
ENDBRANCH  15  20
ENDBRANCH  13  14
ENDBRANCH   1  13
BRANCH  12  23
HETATM   23  N3  UNL     1      24.089   5.532  52.497  1.00  0.00     0.087 N 
HETATM   24  H18 UNL     1      24.048   5.852  51.484  1.00  0.00     0.313 HD
HETATM   25  H19 UNL     1      23.736   6.379  53.033  1.00  0.00     0.313 HD
ENDBRANCH  12  23
BRANCH   6  26
HETATM   26  O1  UNL     1      20.738   4.559  49.820  1.00  0.00    -0.391 OA
HETATM   27  H12 UNL     1      20.861   4.549  48.834  1.00  0.00     0.210 HD
ENDBRANCH   6  26
TORSDOF 5
ENDMDL
MODEL 7
REMARK VINA RESULT:      -6.9      2.994      6.642
REMARK  5 active torsions:
REMARK  status: ('A' for Active; 'I' for Inactive)
REMARK    1  A    between atoms: N1_1  and  C1_2 
REMARK    2  A    between atoms: C6_7  and  S1_8 
REMARK    3  A    between atoms: S1_8  and  C7_9 
REMARK    4  A    between atoms: C11_14  and  O1_15 
REMARK    5  A    between atoms: C17_21  and  N3_22 
ROOT
HETATM    1  C7  UNL     1      24.029   2.709  52.174  1.00  0.00     0.116 C 
HETATM    2  C8  UNL     1      24.424   2.376  50.761  1.00  0.00     0.099 C 
HETATM    3  C9  UNL     1      23.644   3.598  50.492  1.00  0.00     0.014 C 
HETATM    4  N2  UNL     1      24.050   4.037  51.648  1.00  0.00    -0.275 NA
HETATM    5  C10 UNL     1      22.761   4.138  49.399  1.00  0.00     0.090 C 
HETATM    6  C11 UNL     1      21.383   3.463  49.421  1.00  0.00     0.154 C 
HETATM    7  C12 UNL     1      21.365   2.648  50.665  1.00  0.00    -0.018 C 
HETATM    8  C13 UNL     1      21.175   1.393  50.306  1.00  0.00     0.007 C 
HETATM    9  C14 UNL     1      21.821   0.384  51.175  1.00  0.00    -0.003 C 
HETATM   10  C15 UNL     1      22.523   0.789  52.219  1.00  0.00    -0.016 C 
HETATM   11  C16 UNL     1      22.703   2.210  52.607  1.00  0.00     0.086 C 
HETATM   12  C17 UNL     1      21.522   3.010  52.104  1.00  0.00     0.260 C 
ENDROOT
BRANCH   1  13
HETATM   13  S1  UNL     1      25.327   2.253  53.319  1.00  0.00    -0.120 SA
BRANCH  13  14
HETATM   14  C6  UNL     1      26.909   1.891  52.533  1.00  0.00     0.122 C 
HETATM   15  C1  UNL     1      27.880   1.623  53.632  1.00  0.00     0.031 C 
HETATM   16  C2  UNL     1      27.741   0.566  54.380  1.00  0.00    -0.000 C 
HETATM   17  C3  UNL     1      27.190  -0.501  53.872  1.00  0.00     0.014 C 
HETATM   18  C4  UNL     1      26.886  -0.572  52.447  1.00  0.00    -0.002 C 
HETATM   19  C5  UNL     1      26.755   0.590  51.820  1.00  0.00    -0.005 C 
BRANCH  15  20
HETATM   20  N1  UNL     1      28.975   2.493  53.901  1.00  0.00    -0.400 N 
HETATM   21  H1  UNL     1      29.799   3.130  53.940  1.00  0.00     0.156 HD
HETATM   22  H2  UNL     1      29.026   2.647  54.936  1.00  0.00     0.156 HD
ENDBRANCH  15  20
ENDBRANCH  13  14
ENDBRANCH   1  13
BRANCH  12  23
HETATM   23  N3  UNL     1      21.669   4.414  52.305  1.00  0.00     0.087 N 
HETATM   24  H18 UNL     1      20.887   4.797  52.915  1.00  0.00     0.313 HD
HETATM   25  H19 UNL     1      22.541   4.602  52.883  1.00  0.00     0.313 HD
ENDBRANCH  12  23
BRANCH   6  26
HETATM   26  O1  UNL     1      21.237   2.611  48.317  1.00  0.00    -0.391 OA
HETATM   27  H12 UNL     1      21.739   1.763  48.445  1.00  0.00     0.210 HD
ENDBRANCH   6  26
TORSDOF 5
ENDMDL
MODEL 8
REMARK VINA RESULT:      -6.8      4.268      6.482
REMARK  5 active torsions:
REMARK  status: ('A' for Active; 'I' for Inactive)
REMARK    1  A    between atoms: N1_1  and  C1_2 
REMARK    2  A    between atoms: C6_7  and  S1_8 
REMARK    3  A    between atoms: S1_8  and  C7_9 
REMARK    4  A    between atoms: C11_14  and  O1_15 
REMARK    5  A    between atoms: C17_21  and  N3_22 
ROOT
HETATM    1  C7  UNL     1      22.921   4.552  50.655  1.00  0.00     0.116 C 
HETATM    2  C8  UNL     1      23.860   5.030  51.730  1.00  0.00     0.099 C 
HETATM    3  C9  UNL     1      23.591   6.325  51.076  1.00  0.00     0.014 C 
HETATM    4  N2  UNL     1      22.400   5.873  50.811  1.00  0.00    -0.275 NA
HETATM    5  C10 UNL     1      24.325   7.611  50.807  1.00  0.00     0.090 C 
HETATM    6  C11 UNL     1      25.341   7.437  49.670  1.00  0.00     0.154 C 
HETATM    7  C12 UNL     1      25.078   6.083  49.113  1.00  0.00    -0.018 C 
HETATM    8  C13 UNL     1      26.189   5.385  49.245  1.00  0.00     0.007 C 
HETATM    9  C14 UNL     1      26.000   3.934  49.464  1.00  0.00    -0.003 C 
HETATM   10  C15 UNL     1      24.772   3.445  49.513  1.00  0.00    -0.016 C 
HETATM   11  C16 UNL     1      23.541   4.257  49.343  1.00  0.00     0.086 C 
HETATM   12  C17 UNL     1      23.865   5.469  48.499  1.00  0.00     0.260 C 
ENDROOT
BRANCH   1  13
HETATM   13  S1  UNL     1      21.920   3.193  51.249  1.00  0.00    -0.120 SA
BRANCH  13  14
HETATM   14  C6  UNL     1      22.603   1.562  50.891  1.00  0.00     0.122 C 
HETATM   15  C1  UNL     1      23.344   1.132  52.110  1.00  0.00     0.031 C 
HETATM   16  C2  UNL     1      22.695   0.879  53.211  1.00  0.00    -0.000 C 
HETATM   17  C3  UNL     1      21.471   0.436  53.136  1.00  0.00     0.014 C 
HETATM   18  C4  UNL     1      20.892   0.069  51.849  1.00  0.00    -0.002 C 
HETATM   19  C5  UNL     1      21.451   0.622  50.779  1.00  0.00    -0.005 C 
BRANCH  15  20
HETATM   20  N1  UNL     1      24.760   0.983  52.120  1.00  0.00    -0.400 N 
HETATM   21  H1  UNL     1      25.789   0.922  52.279  1.00  0.00     0.156 HD
HETATM   22  H2  UNL     1      25.063   0.657  51.172  1.00  0.00     0.156 HD
ENDBRANCH  15  20
ENDBRANCH  13  14
ENDBRANCH   1  13
BRANCH  12  23
HETATM   23  N3  UNL     1      22.777   6.385  48.395  1.00  0.00     0.087 N 
HETATM   24  H18 UNL     1      22.276   6.280  47.464  1.00  0.00     0.313 HD
HETATM   25  H19 UNL     1      22.027   6.131  49.104  1.00  0.00     0.313 HD
ENDBRANCH  12  23
BRANCH   6  26
HETATM   26  O1  UNL     1      26.650   7.475  50.172  1.00  0.00    -0.391 OA
HETATM   27  H12 UNL     1      27.026   6.561  50.273  1.00  0.00     0.210 HD
ENDBRANCH   6  26
TORSDOF 5
ENDMDL
MODEL 9
REMARK VINA RESULT:      -6.8      4.199      7.184
REMARK  5 active torsions:
REMARK  status: ('A' for Active; 'I' for Inactive)
REMARK    1  A    between atoms: N1_1  and  C1_2 
REMARK    2  A    between atoms: C6_7  and  S1_8 
REMARK    3  A    between atoms: S1_8  and  C7_9 
REMARK    4  A    between atoms: C11_14  and  O1_15 
REMARK    5  A    between atoms: C17_21  and  N3_22 
ROOT
HETATM    1  C7  UNL     1      21.821   2.210  50.380  1.00  0.00     0.116 C 
HETATM    2  C8  UNL     1      21.389   0.928  49.719  1.00  0.00     0.099 C 
HETATM    3  C9  UNL     1      20.062   1.548  49.893  1.00  0.00     0.014 C 
HETATM    4  N2  UNL     1      20.647   2.699  49.730  1.00  0.00    -0.275 NA
HETATM    5  C10 UNL     1      18.648   1.100  50.150  1.00  0.00     0.090 C 
HETATM    6  C11 UNL     1      18.461   0.682  51.614  1.00  0.00     0.154 C 
HETATM    7  C12 UNL     1      19.724   1.069  52.297  1.00  0.00    -0.018 C 
HETATM    8  C13 UNL     1      20.247  -0.032  52.802  1.00  0.00     0.007 C 
HETATM    9  C14 UNL     1      21.726  -0.060  52.854  1.00  0.00    -0.003 C 
HETATM   10  C15 UNL     1      22.405   0.982  52.407  1.00  0.00    -0.016 C 
HETATM   11  C16 UNL     1      21.784   2.215  51.861  1.00  0.00     0.086 C 
HETATM   12  C17 UNL     1      20.410   2.382  52.468  1.00  0.00     0.260 C 
ENDROOT
BRANCH   1  13
HETATM   13  S1  UNL     1      23.404   2.748  49.743  1.00  0.00    -0.120 SA
BRANCH  13  14
HETATM   14  C6  UNL     1      24.300   3.864  50.841  1.00  0.00     0.122 C 
HETATM   15  C1  UNL     1      25.498   3.120  51.321  1.00  0.00     0.031 C 
HETATM   16  C2  UNL     1      26.445   2.801  50.486  1.00  0.00    -0.000 C 
HETATM   17  C3  UNL     1      26.661   3.566  49.453  1.00  0.00     0.014 C 
HETATM   18  C4  UNL     1      25.972   4.845  49.318  1.00  0.00    -0.002 C 
HETATM   19  C5  UNL     1      24.837   4.969  49.995  1.00  0.00    -0.005 C 
BRANCH  15  20
HETATM   20  N1  UNL     1      25.652   2.738  52.684  1.00  0.00    -0.400 N 
HETATM   21  H1  UNL     1      25.757   2.613  53.714  1.00  0.00     0.156 HD
HETATM   22  H2  UNL     1      25.733   1.694  52.726  1.00  0.00     0.156 HD
ENDBRANCH  15  20
ENDBRANCH  13  14
ENDBRANCH   1  13
BRANCH  12  23
HETATM   23  N3  UNL     1      19.675   3.465  51.900  1.00  0.00     0.087 N 
HETATM   24  H18 UNL     1      19.070   3.134  51.091  1.00  0.00     0.313 HD
HETATM   25  H19 UNL     1      18.963   3.821  52.604  1.00  0.00     0.313 HD
ENDBRANCH  12  23
BRANCH   6  26
HETATM   26  O1  UNL     1      18.299  -0.708  51.710  1.00  0.00    -0.391 OA
HETATM   27  H12 UNL     1      18.195  -1.124  50.813  1.00  0.00     0.210 HD
ENDBRANCH   6  26
TORSDOF 5
ENDMDL
