MODEL 1
REMARK VINA RESULT:      -7.3      0.000      0.000
REMARK  7 active torsions:
REMARK  status: ('A' for Active; 'I' for Inactive)
REMARK    1  A    between atoms: O1_1  and  C1_2 
REMARK    2  A    between atoms: C2_4  and  N2_5 
REMARK    3  A    between atoms: N2_5  and  C3_6 
REMARK    4  A    between atoms: C3_6  and  C4_7 
REMARK    5  A    between atoms: C4_7  and  N3_8 
REMARK    6  A    between atoms: C9_15  and  N5_16 
REMARK    7  A    between atoms: N5_16  and  C10_17 
ROOT
HETATM    1  C1  UNL     1      23.911   4.570  52.866  1.00  0.00     0.300 A 
HETATM    2  N1  UNL     1      23.899   3.222  53.048  1.00  0.00    -0.018 NA
HETATM    3  C2  UNL     1      24.066   2.374  51.989  1.00  0.00     0.742 A 
HETATM    4  N4  UNL     1      24.244   2.953  50.768  1.00  0.00     0.130 NA
HETATM    5  C9  UNL     1      24.261   4.273  50.581  1.00  0.00     0.746 A 
HETATM    6  N6  UNL     1      24.093   5.073  51.640  1.00  0.00    -0.017 NA
ENDROOT
BRANCH   3   7
HETATM    7  N2  UNL     1      24.060   0.969  52.175  1.00  0.00    -0.220 N 
HETATM    8  H2  UNL     1      23.397   0.405  51.598  1.00  0.00     0.177 HD
BRANCH   7   9
HETATM    9  C3  UNL     1      25.008   0.476  53.193  1.00  0.00     0.157 C 
BRANCH   9  10
HETATM   10  C4  UNL     1      26.211   0.047  52.389  1.00  0.00     0.137 C 
BRANCH  10  11
HETATM   11  N3  UNL     1      27.420   0.670  52.702  1.00  0.00    -0.407 N 
HETATM   12  C5  UNL     1      28.404  -0.207  53.326  1.00  0.00     0.143 C 
HETATM   13  C6  UNL     1      28.340   0.224  54.811  1.00  0.00     0.187 C 
HETATM   14  O2  UNL     1      28.874   1.485  54.968  1.00  0.00    -0.388 OA
HETATM   15  C7  UNL     1      28.843   2.237  53.786  1.00  0.00     0.187 C 
HETATM   16  C8  UNL     1      27.469   2.003  53.146  1.00  0.00     0.143 C 
ENDBRANCH  10  11
ENDBRANCH   9  10
ENDBRANCH   7   9
ENDBRANCH   3   7
BRANCH   1  17
HETATM   17  O1  UNL     1      23.740   5.474  53.926  1.00  0.00    -0.329 OA
HETATM   18  H1  UNL     1      23.780   6.481  53.725  1.00  0.00     0.221 HD
ENDBRANCH   1  17
BRANCH   5  19
HETATM   19  N5  UNL     1      24.468   4.657  49.212  1.00  0.00    -0.188 N 
HETATM   20  H15 UNL     1      23.757   4.505  48.492  1.00  0.00     0.184 HD
BRANCH  19  21
HETATM   21  C10 UNL     1      25.702   5.254  48.863  1.00  0.00     0.049 A 
HETATM   22  C11 UNL     1      26.859   4.509  48.944  1.00  0.00     0.032 A 
HETATM   23  C12 UNL     1      28.076   5.066  48.600  1.00  0.00     0.026 A 
HETATM   24  C13 UNL     1      28.049   6.386  48.183  1.00  0.00     0.034 A 
HETATM   25 CL1  UNL     1      29.602   7.076  47.721  1.00  0.00    -0.084 Cl
HETATM   26  C14 UNL     1      26.947   7.173  48.084  1.00  0.00     0.026 A 
HETATM   27  C15 UNL     1      25.761   6.571  48.437  1.00  0.00     0.032 A 
ENDBRANCH  19  21
ENDBRANCH   5  19
TORSDOF 7
ENDMDL
MODEL 2
REMARK VINA RESULT:      -7.3      2.555      4.939
REMARK  7 active torsions:
REMARK  status: ('A' for Active; 'I' for Inactive)
REMARK    1  A    between atoms: O1_1  and  C1_2 
REMARK    2  A    between atoms: C2_4  and  N2_5 
REMARK    3  A    between atoms: N2_5  and  C3_6 
REMARK    4  A    between atoms: C3_6  and  C4_7 
REMARK    5  A    between atoms: C4_7  and  N3_8 
REMARK    6  A    between atoms: C9_15  and  N5_16 
REMARK    7  A    between atoms: N5_16  and  C10_17 
ROOT
HETATM    1  C1  UNL     1      28.608   1.952  53.963  1.00  0.00     0.300 A 
HETATM    2  N1  UNL     1      27.878   1.129  54.764  1.00  0.00    -0.018 NA
HETATM    3  C2  UNL     1      26.742   0.530  54.297  1.00  0.00     0.742 A 
HETATM    4  N4  UNL     1      26.396   0.804  53.006  1.00  0.00     0.130 NA
HETATM    5  C9  UNL     1      27.107   1.605  52.214  1.00  0.00     0.746 A 
HETATM    6  N6  UNL     1      28.215   2.174  52.705  1.00  0.00    -0.017 NA
ENDROOT
BRANCH   3   7
HETATM    7  N2  UNL     1      25.982  -0.333  55.125  1.00  0.00    -0.220 N 
HETATM    8  H2  UNL     1      26.144  -0.284  56.157  1.00  0.00     0.177 HD
BRANCH   7   9
HETATM    9  C3  UNL     1      25.046  -1.217  54.404  1.00  0.00     0.157 C 
BRANCH   9  10
HETATM   10  C4  UNL     1      23.727  -0.994  55.104  1.00  0.00     0.137 C 
BRANCH  10  11
HETATM   11  N3  UNL     1      22.616  -0.795  54.284  1.00  0.00    -0.407 N 
HETATM   12  C5  UNL     1      22.935  -0.308  52.947  1.00  0.00     0.143 C 
HETATM   13  C6  UNL     1      22.546   1.187  53.036  1.00  0.00     0.187 C 
HETATM   14  O2  UNL     1      21.178   1.324  53.120  1.00  0.00    -0.388 OA
HETATM   15  C7  UNL     1      20.548   0.176  53.620  1.00  0.00     0.187 C 
HETATM   16  C8  UNL     1      21.397  -0.318  54.798  1.00  0.00     0.143 C 
ENDBRANCH  10  11
ENDBRANCH   9  10
ENDBRANCH   7   9
ENDBRANCH   3   7
BRANCH   1  17
HETATM   17  O1  UNL     1      29.779   2.587  54.406  1.00  0.00    -0.329 OA
HETATM   18  H1  UNL     1      29.813   2.938  55.372  1.00  0.00     0.221 HD
ENDBRANCH   1  17
BRANCH   5  19
HETATM   19  N5  UNL     1      26.559   1.743  50.894  1.00  0.00    -0.188 N 
HETATM   20  H15 UNL     1      26.492   0.952  50.248  1.00  0.00     0.184 HD
BRANCH  19  21
HETATM   21  C10 UNL     1      26.109   3.021  50.485  1.00  0.00     0.049 A 
HETATM   22  C11 UNL     1      24.961   3.542  51.042  1.00  0.00     0.032 A 
HETATM   23  C12 UNL     1      24.506   4.791  50.665  1.00  0.00     0.026 A 
HETATM   24  C13 UNL     1      25.261   5.459  49.717  1.00  0.00     0.034 A 
HETATM   25 CL1  UNL     1      24.686   7.061  49.266  1.00  0.00    -0.084 Cl
HETATM   26  C14 UNL     1      26.397   5.001  49.130  1.00  0.00     0.026 A 
HETATM   27  C15 UNL     1      26.808   3.753  49.539  1.00  0.00     0.032 A 
ENDBRANCH  19  21
ENDBRANCH   5  19
TORSDOF 7
ENDMDL
MODEL 3
REMARK VINA RESULT:      -7.2      3.562      7.565
REMARK  7 active torsions:
REMARK  status: ('A' for Active; 'I' for Inactive)
REMARK    1  A    between atoms: O1_1  and  C1_2 
REMARK    2  A    between atoms: C2_4  and  N2_5 
REMARK    3  A    between atoms: N2_5  and  C3_6 
REMARK    4  A    between atoms: C3_6  and  C4_7 
REMARK    5  A    between atoms: C4_7  and  N3_8 
REMARK    6  A    between atoms: C9_15  and  N5_16 
REMARK    7  A    between atoms: N5_16  and  C10_17 
ROOT
HETATM    1  C1  UNL     1      28.987   2.004  54.265  1.00  0.00     0.300 A 
HETATM    2  N1  UNL     1      28.506   2.696  53.198  1.00  0.00    -0.018 NA
HETATM    3  C2  UNL     1      27.444   2.222  52.480  1.00  0.00     0.742 A 
HETATM    4  N4  UNL     1      26.910   1.038  52.895  1.00  0.00     0.130 NA
HETATM    5  C9  UNL     1      27.372   0.355  53.942  1.00  0.00     0.746 A 
HETATM    6  N6  UNL     1      28.413   0.850  54.621  1.00  0.00    -0.017 NA
ENDROOT
BRANCH   3   7
HETATM    7  N2  UNL     1      26.935   2.942  51.371  1.00  0.00    -0.220 N 
HETATM    8  H2  UNL     1      27.599   3.555  50.844  1.00  0.00     0.177 HD
BRANCH   7   9
HETATM    9  C3  UNL     1      25.499   2.737  51.105  1.00  0.00     0.157 C 
BRANCH   9  10
HETATM   10  C4  UNL     1      25.065   4.027  50.451  1.00  0.00     0.137 C 
BRANCH  10  11
HETATM   11  N3  UNL     1      23.697   4.300  50.465  1.00  0.00    -0.407 N 
HETATM   12  C5  UNL     1      23.322   5.451  51.278  1.00  0.00     0.143 C 
HETATM   13  C6  UNL     1      22.723   4.787  52.540  1.00  0.00     0.187 C 
HETATM   14  O2  UNL     1      21.519   4.187  52.242  1.00  0.00    -0.388 OA
HETATM   15  C7  UNL     1      21.396   3.866  50.884  1.00  0.00     0.187 C 
HETATM   16  C8  UNL     1      22.740   3.270  50.445  1.00  0.00     0.143 C 
ENDBRANCH  10  11
ENDBRANCH   9  10
ENDBRANCH   7   9
ENDBRANCH   3   7
BRANCH   1  17
HETATM   17  O1  UNL     1      30.077   2.456  55.026  1.00  0.00    -0.329 OA
HETATM   18  H1  UNL     1      29.930   3.234  55.681  1.00  0.00     0.221 HD
ENDBRANCH   1  17
BRANCH   5  19
HETATM   19  N5  UNL     1      26.652  -0.861  54.199  1.00  0.00    -0.188 N 
HETATM   20  H15 UNL     1      27.128  -1.757  54.331  1.00  0.00     0.184 HD
BRANCH  19  21
HETATM   21  C10 UNL     1      25.239  -0.804  54.260  1.00  0.00     0.049 A 
HETATM   22  C11 UNL     1      24.538  -0.305  53.183  1.00  0.00     0.032 A 
HETATM   23  C12 UNL     1      23.157  -0.247  53.214  1.00  0.00     0.026 A 
HETATM   24  C13 UNL     1      22.550  -0.710  54.369  1.00  0.00     0.034 A 
HETATM   25 CL1  UNL     1      20.790  -0.656  54.385  1.00  0.00    -0.084 Cl
HETATM   26  C14 UNL     1      23.182  -1.210  55.461  1.00  0.00     0.026 A 
HETATM   27  C15 UNL     1      24.556  -1.247  55.380  1.00  0.00     0.032 A 
ENDBRANCH  19  21
ENDBRANCH   5  19
TORSDOF 7
ENDMDL
MODEL 4
REMARK VINA RESULT:      -7.0      3.819      6.711
REMARK  7 active torsions:
REMARK  status: ('A' for Active; 'I' for Inactive)
REMARK    1  A    between atoms: O1_1  and  C1_2 
REMARK    2  A    between atoms: C2_4  and  N2_5 
REMARK    3  A    between atoms: N2_5  and  C3_6 
REMARK    4  A    between atoms: C3_6  and  C4_7 
REMARK    5  A    between atoms: C4_7  and  N3_8 
REMARK    6  A    between atoms: C9_15  and  N5_16 
REMARK    7  A    between atoms: N5_16  and  C10_17 
ROOT
HETATM    1  C1  UNL     1      23.784   4.186  52.281  1.00  0.00     0.300 A 
HETATM    2  N1  UNL     1      23.401   3.966  50.995  1.00  0.00    -0.018 NA
HETATM    3  C2  UNL     1      23.329   2.696  50.496  1.00  0.00     0.742 A 
HETATM    4  N4  UNL     1      23.657   1.687  51.353  1.00  0.00     0.130 NA
HETATM    5  C9  UNL     1      24.029   1.892  52.616  1.00  0.00     0.746 A 
HETATM    6  N6  UNL     1      24.088   3.150  53.070  1.00  0.00    -0.017 NA
ENDROOT
BRANCH   3   7
HETATM    7  N2  UNL     1      22.926   2.461  49.158  1.00  0.00    -0.220 N 
HETATM    8  H2  UNL     1      23.382   3.027  48.406  1.00  0.00     0.177 HD
BRANCH   7   9
HETATM    9  C3  UNL     1      21.881   1.433  48.998  1.00  0.00     0.157 C 
BRANCH   9  10
HETATM   10  C4  UNL     1      20.618   2.128  49.447  1.00  0.00     0.137 C 
BRANCH  10  11
HETATM   11  N3  UNL     1      19.952   1.562  50.535  1.00  0.00    -0.407 N 
HETATM   12  C5  UNL     1      19.363   2.533  51.450  1.00  0.00     0.143 C 
HETATM   13  C6  UNL     1      20.348   2.508  52.643  1.00  0.00     0.187 C 
HETATM   14  O2  UNL     1      20.250   1.313  53.321  1.00  0.00    -0.388 OA
HETATM   15  C7  UNL     1      19.737   0.279  52.526  1.00  0.00     0.187 C 
HETATM   16  C8  UNL     1      20.420   0.391  51.157  1.00  0.00     0.143 C 
ENDBRANCH  10  11
ENDBRANCH   9  10
ENDBRANCH   7   9
ENDBRANCH   3   7
BRANCH   1  17
HETATM   17  O1  UNL     1      23.872   5.475  52.830  1.00  0.00    -0.329 OA
HETATM   18  H1  UNL     1      23.913   5.573  53.852  1.00  0.00     0.221 HD
ENDBRANCH   1  17
BRANCH   5  19
HETATM   19  N5  UNL     1      24.320   0.683  53.334  1.00  0.00    -0.188 N 
HETATM   20  H15 UNL     1      23.587   0.124  53.777  1.00  0.00     0.184 HD
BRANCH  19  21
HETATM   21  C10 UNL     1      25.670   0.270  53.431  1.00  0.00     0.049 A 
HETATM   22  C11 UNL     1      26.482   0.838  54.389  1.00  0.00     0.032 A 
HETATM   23  C12 UNL     1      27.802   0.446  54.510  1.00  0.00     0.026 A 
HETATM   24  C13 UNL     1      28.235  -0.527  53.626  1.00  0.00     0.034 A 
HETATM   25 CL1  UNL     1      29.910  -1.039  53.808  1.00  0.00    -0.084 Cl
HETATM   26  C14 UNL     1      27.488  -1.123  52.661  1.00  0.00     0.026 A 
HETATM   27  C15 UNL     1      26.181  -0.698  52.582  1.00  0.00     0.032 A 
ENDBRANCH  19  21
ENDBRANCH   5  19
TORSDOF 7
ENDMDL
MODEL 5
REMARK VINA RESULT:      -7.0      3.654      5.709
REMARK  7 active torsions:
REMARK  status: ('A' for Active; 'I' for Inactive)
REMARK    1  A    between atoms: O1_1  and  C1_2 
REMARK    2  A    between atoms: C2_4  and  N2_5 
REMARK    3  A    between atoms: N2_5  and  C3_6 
REMARK    4  A    between atoms: C3_6  and  C4_7 
REMARK    5  A    between atoms: C4_7  and  N3_8 
REMARK    6  A    between atoms: C9_15  and  N5_16 
REMARK    7  A    between atoms: N5_16  and  C10_17 
ROOT
HETATM    1  C1  UNL     1      28.622   1.858  53.938  1.00  0.00     0.300 A 
HETATM    2  N1  UNL     1      28.015   0.698  54.304  1.00  0.00    -0.018 NA
HETATM    3  C2  UNL     1      26.939   0.224  53.606  1.00  0.00     0.742 A 
HETATM    4  N4  UNL     1      26.525   0.973  52.544  1.00  0.00     0.130 NA
HETATM    5  C9  UNL     1      27.117   2.109  52.177  1.00  0.00     0.746 A 
HETATM    6  N6  UNL     1      28.168   2.542  52.883  1.00  0.00    -0.017 NA
ENDROOT
BRANCH   3   7
HETATM    7  N2  UNL     1      26.306  -0.988  53.980  1.00  0.00    -0.220 N 
HETATM    8  H2  UNL     1      26.789  -1.883  53.738  1.00  0.00     0.177 HD
BRANCH   7   9
HETATM    9  C3  UNL     1      25.011  -0.823  54.668  1.00  0.00     0.157 C 
BRANCH   9  10
HETATM   10  C4  UNL     1      24.012  -0.740  53.539  1.00  0.00     0.137 C 
BRANCH  10  11
HETATM   11  N3  UNL     1      22.782  -0.154  53.842  1.00  0.00    -0.407 N 
HETATM   12  C5  UNL     1      22.080  -0.773  54.961  1.00  0.00     0.143 C 
HETATM   13  C6  UNL     1      20.980  -1.596  54.250  1.00  0.00     0.187 C 
HETATM   14  O2  UNL     1      20.039  -0.758  53.693  1.00  0.00    -0.388 OA
HETATM   15  C7  UNL     1      20.539   0.527  53.440  1.00  0.00     0.187 C 
HETATM   16  C8  UNL     1      21.937   0.348  52.837  1.00  0.00     0.143 C 
ENDBRANCH  10  11
ENDBRANCH   9  10
ENDBRANCH   7   9
ENDBRANCH   3   7
BRANCH   1  17
HETATM   17  O1  UNL     1      29.727   2.379  54.630  1.00  0.00    -0.329 OA
HETATM   18  H1  UNL     1      29.578   2.782  55.563  1.00  0.00     0.221 HD
ENDBRANCH   1  17
BRANCH   5  19
HETATM   19  N5  UNL     1      26.516   2.725  51.027  1.00  0.00    -0.188 N 
HETATM   20  H15 UNL     1      27.055   2.945  50.185  1.00  0.00     0.184 HD
BRANCH  19  21
HETATM   21  C10 UNL     1      25.137   3.038  51.078  1.00  0.00     0.049 A 
HETATM   22  C11 UNL     1      24.588   3.474  52.264  1.00  0.00     0.032 A 
HETATM   23  C12 UNL     1      23.246   3.794  52.338  1.00  0.00     0.026 A 
HETATM   24  C13 UNL     1      22.516   3.649  51.170  1.00  0.00     0.034 A 
HETATM   25 CL1  UNL     1      20.814   4.087  51.270  1.00  0.00    -0.084 Cl
HETATM   26  C14 UNL     1      22.996   3.224  49.973  1.00  0.00     0.026 A 
HETATM   27  C15 UNL     1      24.338   2.918  49.953  1.00  0.00     0.032 A 
ENDBRANCH  19  21
ENDBRANCH   5  19
TORSDOF 7
ENDMDL
MODEL 6
REMARK VINA RESULT:      -6.9      2.112      2.601
REMARK  7 active torsions:
REMARK  status: ('A' for Active; 'I' for Inactive)
REMARK    1  A    between atoms: O1_1  and  C1_2 
REMARK    2  A    between atoms: C2_4  and  N2_5 
REMARK    3  A    between atoms: N2_5  and  C3_6 
REMARK    4  A    between atoms: C3_6  and  C4_7 
REMARK    5  A    between atoms: C4_7  and  N3_8 
REMARK    6  A    between atoms: C9_15  and  N5_16 
REMARK    7  A    between atoms: N5_16  and  C10_17 
ROOT
HETATM    1  C1  UNL     1      22.751   2.573  48.645  1.00  0.00     0.300 A 
HETATM    2  N1  UNL     1      22.433   1.634  49.576  1.00  0.00    -0.018 NA
HETATM    3  C2  UNL     1      22.907   1.732  50.855  1.00  0.00     0.742 A 
HETATM    4  N4  UNL     1      23.700   2.807  51.129  1.00  0.00     0.130 NA
HETATM    5  C9  UNL     1      24.013   3.733  50.224  1.00  0.00     0.746 A 
HETATM    6  N6  UNL     1      23.531   3.605  48.982  1.00  0.00    -0.017 NA
ENDROOT
BRANCH   3   7
HETATM    7  N2  UNL     1      22.573   0.759  51.830  1.00  0.00    -0.220 N 
HETATM    8  H2  UNL     1      21.892   0.014  51.560  1.00  0.00     0.177 HD
BRANCH   7   9
HETATM    9  C3  UNL     1      23.239   0.937  53.134  1.00  0.00     0.157 C 
BRANCH   9  10
HETATM   10  C4  UNL     1      24.260  -0.175  53.172  1.00  0.00     0.137 C 
BRANCH  10  11
HETATM   11  N3  UNL     1      25.581   0.204  53.416  1.00  0.00    -0.407 N 
HETATM   12  C5  UNL     1      26.503  -0.095  52.326  1.00  0.00     0.143 C 
HETATM   13  C6  UNL     1      27.257  -1.336  52.858  1.00  0.00     0.187 C 
HETATM   14  O2  UNL     1      28.084  -0.985  53.903  1.00  0.00    -0.388 OA
HETATM   15  C7  UNL     1      27.675   0.192  54.545  1.00  0.00     0.187 C 
HETATM   16  C8  UNL     1      26.151   0.108  54.698  1.00  0.00     0.143 C 
ENDBRANCH  10  11
ENDBRANCH   9  10
ENDBRANCH   7   9
ENDBRANCH   3   7
BRANCH   1  17
HETATM   17  O1  UNL     1      22.287   2.507  47.322  1.00  0.00    -0.329 OA
HETATM   18  H1  UNL     1      21.281   2.625  47.147  1.00  0.00     0.221 HD
ENDBRANCH   1  17
BRANCH   5  19
HETATM   19  N5  UNL     1      24.855   4.777  50.738  1.00  0.00    -0.188 N 
HETATM   20  H15 UNL     1      24.736   5.157  51.680  1.00  0.00     0.184 HD
BRANCH  19  21
HETATM   21  C10 UNL     1      25.872   5.293  49.898  1.00  0.00     0.049 A 
HETATM   22  C11 UNL     1      26.828   4.439  49.395  1.00  0.00     0.032 A 
HETATM   23  C12 UNL     1      27.826   4.917  48.566  1.00  0.00     0.026 A 
HETATM   24  C13 UNL     1      27.796   6.273  48.290  1.00  0.00     0.034 A 
HETATM   25 CL1  UNL     1      29.056   6.864  47.211  1.00  0.00    -0.084 Cl
HETATM   26  C14 UNL     1      26.885   7.165  48.755  1.00  0.00     0.026 A 
HETATM   27  C15 UNL     1      25.912   6.639  49.575  1.00  0.00     0.032 A 
ENDBRANCH  19  21
ENDBRANCH   5  19
TORSDOF 7
ENDMDL
MODEL 7
REMARK VINA RESULT:      -6.9      3.177      6.623
REMARK  7 active torsions:
REMARK  status: ('A' for Active; 'I' for Inactive)
REMARK    1  A    between atoms: O1_1  and  C1_2 
REMARK    2  A    between atoms: C2_4  and  N2_5 
REMARK    3  A    between atoms: N2_5  and  C3_6 
REMARK    4  A    between atoms: C3_6  and  C4_7 
REMARK    5  A    between atoms: C4_7  and  N3_8 
REMARK    6  A    between atoms: C9_15  and  N5_16 
REMARK    7  A    between atoms: N5_16  and  C10_17 
ROOT
HETATM    1  C1  UNL     1      22.952   2.097  50.429  1.00  0.00     0.300 A 
HETATM    2  N1  UNL     1      23.164   3.412  50.701  1.00  0.00    -0.018 NA
HETATM    3  C2  UNL     1      23.726   3.797  51.886  1.00  0.00     0.742 A 
HETATM    4  N4  UNL     1      24.054   2.799  52.756  1.00  0.00     0.130 NA
HETATM    5  C9  UNL     1      23.853   1.507  52.496  1.00  0.00     0.746 A 
HETATM    6  N6  UNL     1      23.300   1.168  51.325  1.00  0.00    -0.017 NA
ENDROOT
BRANCH   3   7
HETATM    7  N2  UNL     1      23.955   5.166  52.172  1.00  0.00    -0.220 N 
HETATM    8  H2  UNL     1      24.321   5.410  53.120  1.00  0.00     0.177 HD
BRANCH   7   9
HETATM    9  C3  UNL     1      23.629   6.091  51.070  1.00  0.00     0.157 C 
BRANCH   9  10
HETATM   10  C4  UNL     1      24.889   6.903  50.896  1.00  0.00     0.137 C 
BRANCH  10  11
HETATM   11  N3  UNL     1      25.475   6.875  49.630  1.00  0.00    -0.407 N 
HETATM   12  C5  UNL     1      25.289   5.621  48.909  1.00  0.00     0.143 C 
HETATM   13  C6  UNL     1      26.674   4.948  49.047  1.00  0.00     0.187 C 
HETATM   14  O2  UNL     1      27.613   5.622  48.298  1.00  0.00    -0.388 OA
HETATM   15  C7  UNL     1      27.256   6.956  48.054  1.00  0.00     0.187 C 
HETATM   16  C8  UNL     1      26.701   7.514  49.371  1.00  0.00     0.143 C 
ENDBRANCH  10  11
ENDBRANCH   9  10
ENDBRANCH   7   9
ENDBRANCH   3   7
BRANCH   1  17
HETATM   17  O1  UNL     1      22.375   1.662  49.225  1.00  0.00    -0.329 OA
HETATM   18  H1  UNL     1      22.910   1.018  48.628  1.00  0.00     0.221 HD
ENDBRANCH   1  17
BRANCH   5  19
HETATM   19  N5  UNL     1      24.279   0.634  53.553  1.00  0.00    -0.188 N 
HETATM   20  H15 UNL     1      23.633   0.295  54.271  1.00  0.00     0.184 HD
BRANCH  19  21
HETATM   21  C10 UNL     1      25.639   0.247  53.596  1.00  0.00     0.049 A 
HETATM   22  C11 UNL     1      26.111  -0.659  52.671  1.00  0.00     0.032 A 
HETATM   23  C12 UNL     1      27.438  -1.048  52.687  1.00  0.00     0.026 A 
HETATM   24  C13 UNL     1      28.232  -0.478  53.668  1.00  0.00     0.034 A 
HETATM   25 CL1  UNL     1      29.925  -0.960  53.660  1.00  0.00    -0.084 Cl
HETATM   26  C14 UNL     1      27.828   0.416  54.606  1.00  0.00     0.026 A 
HETATM   27  C15 UNL     1      26.499   0.770  54.548  1.00  0.00     0.032 A 
ENDBRANCH  19  21
ENDBRANCH   5  19
TORSDOF 7
ENDMDL
MODEL 8
REMARK VINA RESULT:      -6.8      4.074      6.854
REMARK  7 active torsions:
REMARK  status: ('A' for Active; 'I' for Inactive)
REMARK    1  A    between atoms: O1_1  and  C1_2 
REMARK    2  A    between atoms: C2_4  and  N2_5 
REMARK    3  A    between atoms: N2_5  and  C3_6 
REMARK    4  A    between atoms: C3_6  and  C4_7 
REMARK    5  A    between atoms: C4_7  and  N3_8 
REMARK    6  A    between atoms: C9_15  and  N5_16 
REMARK    7  A    between atoms: N5_16  and  C10_17 
ROOT
HETATM    1  C1  UNL     1      22.309  -1.116  54.306  1.00  0.00     0.300 A 
HETATM    2  N1  UNL     1      21.257  -0.895  53.473  1.00  0.00    -0.018 NA
HETATM    3  C2  UNL     1      21.364  -0.014  52.432  1.00  0.00     0.742 A 
HETATM    4  N4  UNL     1      22.567   0.612  52.288  1.00  0.00     0.130 NA
HETATM    5  C9  UNL     1      23.604   0.398  53.097  1.00  0.00     0.746 A 
HETATM    6  N6  UNL     1      23.463  -0.471  54.105  1.00  0.00    -0.017 NA
ENDROOT
BRANCH   3   7
HETATM    7  N2  UNL     1      20.273   0.215  51.558  1.00  0.00    -0.220 N 
HETATM    8  H2  UNL     1      20.069  -0.511  50.834  1.00  0.00     0.177 HD
BRANCH   7   9
HETATM    9  C3  UNL     1      19.557   1.485  51.783  1.00  0.00     0.157 C 
BRANCH   9  10
HETATM   10  C4  UNL     1      19.912   2.318  50.575  1.00  0.00     0.137 C 
BRANCH  10  11
HETATM   11  N3  UNL     1      20.612   3.500  50.820  1.00  0.00    -0.407 N 
HETATM   12  C5  UNL     1      21.521   3.894  49.750  1.00  0.00     0.143 C 
HETATM   13  C6  UNL     1      22.903   3.510  50.328  1.00  0.00     0.187 C 
HETATM   14  O2  UNL     1      23.238   4.347  51.370  1.00  0.00    -0.388 OA
HETATM   15  C7  UNL     1      22.118   4.938  51.971  1.00  0.00     0.187 C 
HETATM   16  C8  UNL     1      21.058   3.838  52.110  1.00  0.00     0.143 C 
ENDBRANCH  10  11
ENDBRANCH   9  10
ENDBRANCH   7   9
ENDBRANCH   3   7
BRANCH   1  17
HETATM   17  O1  UNL     1      22.237  -2.010  55.386  1.00  0.00    -0.329 OA
HETATM   18  H1  UNL     1      22.120  -3.012  55.188  1.00  0.00     0.221 HD
ENDBRANCH   1  17
BRANCH   5  19
HETATM   19  N5  UNL     1      24.770   1.161  52.752  1.00  0.00    -0.188 N 
HETATM   20  H15 UNL     1      24.705   2.083  52.312  1.00  0.00     0.184 HD
BRANCH  19  21
HETATM   21  C10 UNL     1      26.043   0.605  53.026  1.00  0.00     0.049 A 
HETATM   22  C11 UNL     1      26.377  -0.615  52.477  1.00  0.00     0.032 A 
HETATM   23  C12 UNL     1      27.616  -1.176  52.723  1.00  0.00     0.026 A 
HETATM   24  C13 UNL     1      28.469  -0.447  53.534  1.00  0.00     0.034 A 
HETATM   25 CL1  UNL     1      30.054  -1.159  53.817  1.00  0.00    -0.084 Cl
HETATM   26  C14 UNL     1      28.199   0.755  54.105  1.00  0.00     0.026 A 
HETATM   27  C15 UNL     1      26.953   1.271  53.830  1.00  0.00     0.032 A 
ENDBRANCH  19  21
ENDBRANCH   5  19
TORSDOF 7
ENDMDL
MODEL 9
REMARK VINA RESULT:      -6.7      2.116      3.018
REMARK  7 active torsions:
REMARK  status: ('A' for Active; 'I' for Inactive)
REMARK    1  A    between atoms: O1_1  and  C1_2 
REMARK    2  A    between atoms: C2_4  and  N2_5 
REMARK    3  A    between atoms: N2_5  and  C3_6 
REMARK    4  A    between atoms: C3_6  and  C4_7 
REMARK    5  A    between atoms: C4_7  and  N3_8 
REMARK    6  A    between atoms: C9_15  and  N5_16 
REMARK    7  A    between atoms: N5_16  and  C10_17 
ROOT
HETATM    1  C1  UNL     1      24.757   6.767  50.829  1.00  0.00     0.300 A 
HETATM    2  N1  UNL     1      24.643   5.427  51.029  1.00  0.00    -0.018 NA
HETATM    3  C2  UNL     1      25.309   4.542  50.227  1.00  0.00     0.742 A 
HETATM    4  N4  UNL     1      26.078   5.080  49.237  1.00  0.00     0.130 NA
HETATM    5  C9  UNL     1      26.198   6.392  49.036  1.00  0.00     0.746 A 
HETATM    6  N6  UNL     1      25.531   7.228  49.841  1.00  0.00    -0.017 NA
ENDROOT
BRANCH   3   7
HETATM    7  N2  UNL     1      25.198   3.145  50.435  1.00  0.00    -0.220 N 
HETATM    8  H2  UNL     1      24.239   2.729  50.440  1.00  0.00     0.177 HD
BRANCH   7   9
HETATM    9  C3  UNL     1      26.481   2.445  50.633  1.00  0.00     0.157 C 
BRANCH   9  10
HETATM   10  C4  UNL     1      26.628   2.379  52.134  1.00  0.00     0.137 C 
BRANCH  10  11
HETATM   11  N3  UNL     1      27.547   1.452  52.627  1.00  0.00    -0.407 N 
HETATM   12  C5  UNL     1      27.082   0.070  52.597  1.00  0.00     0.143 C 
HETATM   13  C6  UNL     1      26.732  -0.196  54.080  1.00  0.00     0.187 C 
HETATM   14  O2  UNL     1      27.878  -0.250  54.842  1.00  0.00    -0.388 OA
HETATM   15  C7  UNL     1      28.951   0.436  54.256  1.00  0.00     0.187 C 
HETATM   16  C8  UNL     1      28.390   1.755  53.711  1.00  0.00     0.143 C 
ENDBRANCH  10  11
ENDBRANCH   9  10
ENDBRANCH   7   9
ENDBRANCH   3   7
BRANCH   1  17
HETATM   17  O1  UNL     1      24.088   7.706  51.629  1.00  0.00    -0.329 OA
HETATM   18  H1  UNL     1      24.458   7.906  52.567  1.00  0.00     0.221 HD
ENDBRANCH   1  17
BRANCH   5  19
HETATM   19  N5  UNL     1      27.064   6.729  47.941  1.00  0.00    -0.188 N 
HETATM   20  H15 UNL     1      26.710   6.865  46.991  1.00  0.00     0.184 HD
BRANCH  19  21
HETATM   21  C10 UNL     1      28.449   6.865  48.199  1.00  0.00     0.049 A 
HETATM   22  C11 UNL     1      28.944   8.090  48.593  1.00  0.00     0.032 A 
HETATM   23  C12 UNL     1      30.291   8.247  48.858  1.00  0.00     0.026 A 
HETATM   24  C13 UNL     1      31.082   7.121  48.703  1.00  0.00     0.034 A 
HETATM   25 CL1  UNL     1      32.791   7.327  49.070  1.00  0.00    -0.084 Cl
HETATM   26  C14 UNL     1      30.657   5.891  48.316  1.00  0.00     0.026 A 
HETATM   27  C15 UNL     1      29.307   5.787  48.065  1.00  0.00     0.032 A 
ENDBRANCH  19  21
ENDBRANCH   5  19
TORSDOF 7
ENDMDL
