MODEL 1
REMARK VINA RESULT:      -7.9      0.000      0.000
REMARK  5 active torsions:
REMARK  status: ('A' for Active; 'I' for Inactive)
REMARK    1  A    between atoms: O1_2  and  C2_3 
REMARK    2  A    between atoms: C8_9  and  C9_10 
REMARK    3  A    between atoms: C10_13  and  S1_14 
REMARK    4  A    between atoms: S1_14  and  C11_15 
REMARK    5  A    between atoms: C11_15  and  C12_16 
ROOT
HETATM    1  C9  UNL     1      24.910   3.075  50.606  1.00  0.00     0.206 A 
HETATM    2  N1  UNL     1      23.681   2.652  50.253  1.00  0.00    -0.120 NA
HETATM    3  N2  UNL     1      23.352   1.683  51.091  1.00  0.00    -0.114 NA
HETATM    4  C10 UNL     1      24.357   1.492  51.966  1.00  0.00     0.231 A 
HETATM    5  O2  UNL     1      25.297   2.350  51.651  1.00  0.00    -0.263 OA
ENDROOT
BRANCH   1   6
HETATM    6  C8  UNL     1      25.685   4.153  49.943  1.00  0.00     0.052 A 
HETATM    7  C2  UNL     1      25.231   5.447  50.041  1.00  0.00     0.083 A 
HETATM    8  C3  UNL     1      25.972   6.448  49.408  1.00  0.00     0.044 A 
HETATM    9  C4  UNL     1      27.139   6.153  48.696  1.00  0.00    -0.059 A 
HETATM   10  C5  UNL     1      27.920   7.223  48.024  1.00  0.00     0.048 C 
HETATM   11  C6  UNL     1      27.535   4.822  48.640  1.00  0.00     0.008 A 
HETATM   12  C7  UNL     1      26.829   3.783  49.256  1.00  0.00     0.019 A 
BRANCH   7  13
HETATM   13  O1  UNL     1      24.088   5.811  50.729  1.00  0.00    -0.355 OA
HETATM   14  C1  UNL     1      22.918   6.288  50.144  1.00  0.00     0.210 C 
ENDBRANCH   7  13
ENDBRANCH   1   6
BRANCH   4  15
HETATM   15  S1  UNL     1      24.764   0.457  53.364  1.00  0.00    -0.078 SA
BRANCH  15  16
HETATM   16  C11 UNL     1      25.837  -0.882  52.875  1.00  0.00     0.121 C 
BRANCH  16  17
HETATM   17  C12 UNL     1      27.276  -0.649  53.138  1.00  0.00    -0.049 A 
HETATM   18  C13 UNL     1      27.911   0.557  53.413  1.00  0.00     0.008 A 
HETATM   19  C14 UNL     1      29.259   0.603  53.634  1.00  0.00     0.001 A 
HETATM   20  C15 UNL     1      30.075  -0.508  53.605  1.00  0.00     0.000 A 
HETATM   21  C16 UNL     1      29.460  -1.711  53.334  1.00  0.00     0.001 A 
HETATM   22  C17 UNL     1      28.111  -1.757  53.111  1.00  0.00     0.008 A 
ENDBRANCH  16  17
ENDBRANCH  15  16
ENDBRANCH   4  15
TORSDOF 5
ENDMDL
MODEL 2
REMARK VINA RESULT:      -7.6      1.874      6.679
REMARK  5 active torsions:
REMARK  status: ('A' for Active; 'I' for Inactive)
REMARK    1  A    between atoms: O1_2  and  C2_3 
REMARK    2  A    between atoms: C8_9  and  C9_10 
REMARK    3  A    between atoms: C10_13  and  S1_14 
REMARK    4  A    between atoms: S1_14  and  C11_15 
REMARK    5  A    between atoms: C11_15  and  C12_16 
ROOT
HETATM    1  C9  UNL     1      25.534   2.468  52.551  1.00  0.00     0.206 A 
HETATM    2  N1  UNL     1      24.629   2.959  53.421  1.00  0.00    -0.120 NA
HETATM    3  N2  UNL     1      23.817   3.741  52.730  1.00  0.00    -0.114 NA
HETATM    4  C10 UNL     1      24.198   3.749  51.439  1.00  0.00     0.231 A 
HETATM    5  O2  UNL     1      25.247   2.968  51.353  1.00  0.00    -0.263 OA
ENDROOT
BRANCH   1   6
HETATM    6  C8  UNL     1      26.645   1.542  52.879  1.00  0.00     0.052 A 
HETATM    7  C2  UNL     1      26.378   0.196  52.967  1.00  0.00     0.083 A 
HETATM    8  C3  UNL     1      27.436  -0.660  53.280  1.00  0.00     0.044 A 
HETATM    9  C4  UNL     1      28.729  -0.174  53.498  1.00  0.00    -0.059 A 
HETATM   10  C5  UNL     1      29.849  -1.091  53.832  1.00  0.00     0.048 C 
HETATM   11  C6  UNL     1      28.923   1.198  53.393  1.00  0.00     0.008 A 
HETATM   12  C7  UNL     1      27.897   2.098  53.082  1.00  0.00     0.019 A 
BRANCH   7  13
HETATM   13  O1  UNL     1      25.125  -0.353  52.763  1.00  0.00    -0.355 OA
HETATM   14  C1  UNL     1      24.193  -0.617  53.763  1.00  0.00     0.210 C 
ENDBRANCH   7  13
ENDBRANCH   1   6
BRANCH   4  15
HETATM   15  S1  UNL     1      23.713   4.481  49.883  1.00  0.00    -0.078 SA
BRANCH  15  16
HETATM   16  C11 UNL     1      24.417   6.110  49.697  1.00  0.00     0.121 C 
BRANCH  16  17
HETATM   17  C12 UNL     1      25.803   6.129  49.176  1.00  0.00    -0.049 A 
HETATM   18  C13 UNL     1      26.546   7.229  48.763  1.00  0.00     0.008 A 
HETATM   19  C14 UNL     1      27.825   7.077  48.304  1.00  0.00     0.001 A 
HETATM   20  C15 UNL     1      28.463   5.858  48.216  1.00  0.00     0.000 A 
HETATM   21  C16 UNL     1      27.739   4.758  48.623  1.00  0.00     0.001 A 
HETATM   22  C17 UNL     1      26.459   4.910  49.082  1.00  0.00     0.008 A 
ENDBRANCH  16  17
ENDBRANCH  15  16
ENDBRANCH   4  15
TORSDOF 5
ENDMDL
MODEL 3
REMARK VINA RESULT:      -7.6      3.232      5.893
REMARK  5 active torsions:
REMARK  status: ('A' for Active; 'I' for Inactive)
REMARK    1  A    between atoms: O1_2  and  C2_3 
REMARK    2  A    between atoms: C8_9  and  C9_10 
REMARK    3  A    between atoms: C10_13  and  S1_14 
REMARK    4  A    between atoms: S1_14  and  C11_15 
REMARK    5  A    between atoms: C11_15  and  C12_16 
ROOT
HETATM    1  C9  UNL     1      22.819   1.956  52.282  1.00  0.00     0.206 A 
HETATM    2  N1  UNL     1      22.878   3.299  52.369  1.00  0.00    -0.120 NA
HETATM    3  N2  UNL     1      24.133   3.645  52.136  1.00  0.00    -0.114 NA
HETATM    4  C10 UNL     1      24.864   2.539  51.904  1.00  0.00     0.231 A 
HETATM    5  O2  UNL     1      24.044   1.521  51.999  1.00  0.00    -0.263 OA
ENDROOT
BRANCH   1   6
HETATM    6  C8  UNL     1      21.607   1.122  52.470  1.00  0.00     0.052 A 
HETATM    7  C2  UNL     1      20.709   1.021  51.434  1.00  0.00     0.083 A 
HETATM    8  C3  UNL     1      19.572   0.233  51.632  1.00  0.00     0.044 A 
HETATM    9  C4  UNL     1      19.346  -0.433  52.840  1.00  0.00    -0.059 A 
HETATM   10  C5  UNL     1      18.133  -1.267  53.042  1.00  0.00     0.048 C 
HETATM   11  C6  UNL     1      20.297  -0.283  53.841  1.00  0.00     0.008 A 
HETATM   12  C7  UNL     1      21.452   0.494  53.694  1.00  0.00     0.019 A 
BRANCH   7  13
HETATM   13  O1  UNL     1      20.869   1.651  50.213  1.00  0.00    -0.355 OA
HETATM   14  C1  UNL     1      21.299   1.031  49.043  1.00  0.00     0.210 C 
ENDBRANCH   7  13
ENDBRANCH   1   6
BRANCH   4  15
HETATM   15  S1  UNL     1      26.547   2.076  51.523  1.00  0.00    -0.078 SA
BRANCH  15  16
HETATM   16  C11 UNL     1      27.419   1.574  52.996  1.00  0.00     0.121 C 
BRANCH  16  17
HETATM   17  C12 UNL     1      27.826   0.150  53.019  1.00  0.00    -0.049 A 
HETATM   18  C13 UNL     1      29.043  -0.385  53.424  1.00  0.00     0.008 A 
HETATM   19  C14 UNL     1      29.263  -1.734  53.384  1.00  0.00     0.001 A 
HETATM   20  C15 UNL     1      28.324  -2.647  52.953  1.00  0.00     0.000 A 
HETATM   21  C16 UNL     1      27.111  -2.131  52.548  1.00  0.00     0.001 A 
HETATM   22  C17 UNL     1      26.891  -0.781  52.587  1.00  0.00     0.008 A 
ENDBRANCH  16  17
ENDBRANCH  15  16
ENDBRANCH   4  15
TORSDOF 5
ENDMDL
MODEL 4
REMARK VINA RESULT:      -7.5      3.289      6.135
REMARK  5 active torsions:
REMARK  status: ('A' for Active; 'I' for Inactive)
REMARK    1  A    between atoms: O1_2  and  C2_3 
REMARK    2  A    between atoms: C8_9  and  C9_10 
REMARK    3  A    between atoms: C10_13  and  S1_14 
REMARK    4  A    between atoms: S1_14  and  C11_15 
REMARK    5  A    between atoms: C11_15  and  C12_16 
ROOT
HETATM    1  C9  UNL     1      22.650   2.036  52.185  1.00  0.00     0.206 A 
HETATM    2  N1  UNL     1      22.765   3.368  52.352  1.00  0.00    -0.120 NA
HETATM    3  N2  UNL     1      24.047   3.665  52.209  1.00  0.00    -0.114 NA
HETATM    4  C10 UNL     1      24.738   2.538  51.954  1.00  0.00     0.231 A 
HETATM    5  O2  UNL     1      23.868   1.558  51.945  1.00  0.00    -0.263 OA
ENDROOT
BRANCH   1   6
HETATM    6  C8  UNL     1      21.392   1.254  52.258  1.00  0.00     0.052 A 
HETATM    7  C2  UNL     1      21.250   0.327  53.264  1.00  0.00     0.083 A 
HETATM    8  C3  UNL     1      20.060  -0.403  53.315  1.00  0.00     0.044 A 
HETATM    9  C4  UNL     1      19.041  -0.204  52.378  1.00  0.00    -0.059 A 
HETATM   10  C5  UNL     1      17.779  -0.985  52.439  1.00  0.00     0.048 C 
HETATM   11  C6  UNL     1      19.257   0.749  51.391  1.00  0.00     0.008 A 
HETATM   12  C7  UNL     1      20.430   1.506  51.295  1.00  0.00     0.019 A 
BRANCH   7  13
HETATM   13  O1  UNL     1      22.215   0.079  54.224  1.00  0.00    -0.355 OA
HETATM   14  C1  UNL     1      22.350  -1.109  54.936  1.00  0.00     0.210 C 
ENDBRANCH   7  13
ENDBRANCH   1   6
BRANCH   4  15
HETATM   15  S1  UNL     1      26.417   2.015  51.640  1.00  0.00    -0.078 SA
BRANCH  15  16
HETATM   16  C11 UNL     1      27.176   1.382  53.125  1.00  0.00     0.121 C 
BRANCH  16  17
HETATM   17  C12 UNL     1      27.597  -0.036  53.049  1.00  0.00    -0.049 A 
HETATM   18  C13 UNL     1      26.855  -1.127  52.613  1.00  0.00     0.008 A 
HETATM   19  C14 UNL     1      27.395  -2.383  52.603  1.00  0.00     0.001 A 
HETATM   20  C15 UNL     1      28.682  -2.662  53.011  1.00  0.00     0.000 A 
HETATM   21  C16 UNL     1      29.432  -1.590  53.446  1.00  0.00     0.001 A 
HETATM   22  C17 UNL     1      28.891  -0.333  53.456  1.00  0.00     0.008 A 
ENDBRANCH  16  17
ENDBRANCH  15  16
ENDBRANCH   4  15
TORSDOF 5
ENDMDL
MODEL 5
REMARK VINA RESULT:      -7.4      1.845      6.756
REMARK  5 active torsions:
REMARK  status: ('A' for Active; 'I' for Inactive)
REMARK    1  A    between atoms: O1_2  and  C2_3 
REMARK    2  A    between atoms: C8_9  and  C9_10 
REMARK    3  A    between atoms: C10_13  and  S1_14 
REMARK    4  A    between atoms: S1_14  and  C11_15 
REMARK    5  A    between atoms: C11_15  and  C12_16 
ROOT
HETATM    1  C9  UNL     1      25.012   0.486  52.900  1.00  0.00     0.206 A 
HETATM    2  N1  UNL     1      23.819   0.147  53.428  1.00  0.00    -0.120 NA
HETATM    3  N2  UNL     1      22.960   1.089  53.073  1.00  0.00    -0.114 NA
HETATM    4  C10 UNL     1      23.596   2.014  52.330  1.00  0.00     0.231 A 
HETATM    5  O2  UNL     1      24.845   1.627  52.238  1.00  0.00    -0.263 OA
ENDROOT
BRANCH   1   6
HETATM    6  C8  UNL     1      26.275  -0.279  53.038  1.00  0.00     0.052 A 
HETATM    7  C2  UNL     1      27.371   0.349  53.581  1.00  0.00     0.083 A 
HETATM    8  C3  UNL     1      28.552  -0.386  53.700  1.00  0.00     0.044 A 
HETATM    9  C4  UNL     1      28.629  -1.718  53.283  1.00  0.00    -0.059 A 
HETATM   10  C5  UNL     1      29.890  -2.493  53.412  1.00  0.00     0.048 C 
HETATM   11  C6  UNL     1      27.481  -2.286  52.743  1.00  0.00     0.008 A 
HETATM   12  C7  UNL     1      26.273  -1.593  52.602  1.00  0.00     0.019 A 
BRANCH   7  13
HETATM   13  O1  UNL     1      27.367   1.663  54.015  1.00  0.00    -0.355 OA
HETATM   14  C1  UNL     1      28.305   2.628  53.658  1.00  0.00     0.210 C 
ENDBRANCH   7  13
ENDBRANCH   1   6
BRANCH   4  15
HETATM   15  S1  UNL     1      23.249   3.543  51.475  1.00  0.00    -0.078 SA
BRANCH  15  16
HETATM   16  C11 UNL     1      23.694   3.424  49.751  1.00  0.00     0.121 C 
BRANCH  16  17
HETATM   17  C12 UNL     1      24.937   4.139  49.382  1.00  0.00    -0.049 A 
HETATM   18  C13 UNL     1      26.239   3.653  49.391  1.00  0.00     0.008 A 
HETATM   19  C14 UNL     1      27.287   4.449  49.017  1.00  0.00     0.001 A 
HETATM   20  C15 UNL     1      27.142   5.759  48.613  1.00  0.00     0.000 A 
HETATM   21  C16 UNL     1      25.856   6.256  48.598  1.00  0.00     0.001 A 
HETATM   22  C17 UNL     1      24.808   5.460  48.973  1.00  0.00     0.008 A 
ENDBRANCH  16  17
ENDBRANCH  15  16
ENDBRANCH   4  15
TORSDOF 5
ENDMDL
MODEL 6
REMARK VINA RESULT:      -7.4      4.301      6.400
REMARK  5 active torsions:
REMARK  status: ('A' for Active; 'I' for Inactive)
REMARK    1  A    between atoms: O1_2  and  C2_3 
REMARK    2  A    between atoms: C8_9  and  C9_10 
REMARK    3  A    between atoms: C10_13  and  S1_14 
REMARK    4  A    between atoms: S1_14  and  C11_15 
REMARK    5  A    between atoms: C11_15  and  C12_16 
ROOT
HETATM    1  C9  UNL     1      21.328  -0.808  53.655  1.00  0.00     0.206 A 
HETATM    2  N1  UNL     1      21.151  -1.660  54.683  1.00  0.00    -0.120 NA
HETATM    3  N2  UNL     1      22.321  -1.780  55.289  1.00  0.00    -0.114 NA
HETATM    4  C10 UNL     1      23.230  -1.015  54.656  1.00  0.00     0.231 A 
HETATM    5  O2  UNL     1      22.603  -0.432  53.664  1.00  0.00    -0.263 OA
ENDROOT
BRANCH   1   6
HETATM    6  C8  UNL     1      20.285  -0.373  52.693  1.00  0.00     0.052 A 
HETATM    7  C2  UNL     1      20.673   0.314  51.567  1.00  0.00     0.083 A 
HETATM    8  C3  UNL     1      19.677   0.717  50.674  1.00  0.00     0.044 A 
HETATM    9  C4  UNL     1      18.327   0.437  50.910  1.00  0.00    -0.059 A 
HETATM   10  C5  UNL     1      17.274   0.870  49.956  1.00  0.00     0.048 C 
HETATM   11  C6  UNL     1      18.012  -0.261  52.070  1.00  0.00     0.008 A 
HETATM   12  C7  UNL     1      18.971  -0.687  52.996  1.00  0.00     0.019 A 
BRANCH   7  13
HETATM   13  O1  UNL     1      21.987   0.624  51.270  1.00  0.00    -0.355 OA
HETATM   14  C1  UNL     1      22.491   1.913  51.116  1.00  0.00     0.210 C 
ENDBRANCH   7  13
ENDBRANCH   1   6
BRANCH   4  15
HETATM   15  S1  UNL     1      24.960  -0.584  54.771  1.00  0.00    -0.078 SA
BRANCH  15  16
HETATM   16  C11 UNL     1      25.785  -0.837  53.210  1.00  0.00     0.121 C 
BRANCH  16  17
HETATM   17  C12 UNL     1      27.260  -0.929  53.297  1.00  0.00    -0.049 A 
HETATM   18  C13 UNL     1      28.065  -2.034  53.045  1.00  0.00     0.008 A 
HETATM   19  C14 UNL     1      29.424  -1.953  53.172  1.00  0.00     0.001 A 
HETATM   20  C15 UNL     1      30.088  -0.805  53.547  1.00  0.00     0.000 A 
HETATM   21  C16 UNL     1      29.303   0.300  53.799  1.00  0.00     0.001 A 
HETATM   22  C17 UNL     1      27.943   0.219  53.673  1.00  0.00     0.008 A 
ENDBRANCH  16  17
ENDBRANCH  15  16
ENDBRANCH   4  15
TORSDOF 5
ENDMDL
MODEL 7
REMARK VINA RESULT:      -7.3      3.029      6.990
REMARK  5 active torsions:
REMARK  status: ('A' for Active; 'I' for Inactive)
REMARK    1  A    between atoms: O1_2  and  C2_3 
REMARK    2  A    between atoms: C8_9  and  C9_10 
REMARK    3  A    between atoms: C10_13  and  S1_14 
REMARK    4  A    between atoms: S1_14  and  C11_15 
REMARK    5  A    between atoms: C11_15  and  C12_16 
ROOT
HETATM    1  C9  UNL     1      22.134   1.802  49.848  1.00  0.00     0.206 A 
HETATM    2  N1  UNL     1      21.747   1.270  48.672  1.00  0.00    -0.120 NA
HETATM    3  N2  UNL     1      21.836   2.231  47.767  1.00  0.00    -0.114 NA
HETATM    4  C10 UNL     1      22.273   3.359  48.358  1.00  0.00     0.231 A 
HETATM    5  O2  UNL     1      22.448   3.075  49.626  1.00  0.00    -0.263 OA
ENDROOT
BRANCH   1   6
HETATM    6  C8  UNL     1      22.195   1.091  51.148  1.00  0.00     0.052 A 
HETATM    7  C2  UNL     1      23.375   1.108  51.855  1.00  0.00     0.083 A 
HETATM    8  C3  UNL     1      23.414   0.431  53.076  1.00  0.00     0.044 A 
HETATM    9  C4  UNL     1      22.296  -0.246  53.571  1.00  0.00    -0.059 A 
HETATM   10  C5  UNL     1      22.347  -0.966  54.870  1.00  0.00     0.048 C 
HETATM   11  C6  UNL     1      21.140  -0.221  52.802  1.00  0.00     0.008 A 
HETATM   12  C7  UNL     1      21.048   0.443  51.573  1.00  0.00     0.019 A 
BRANCH   7  13
HETATM   13  O1  UNL     1      24.518   1.758  51.425  1.00  0.00    -0.355 OA
HETATM   14  C1  UNL     1      25.816   1.440  51.818  1.00  0.00     0.210 C 
ENDBRANCH   7  13
ENDBRANCH   1   6
BRANCH   4  15
HETATM   15  S1  UNL     1      22.666   5.050  47.936  1.00  0.00    -0.078 SA
BRANCH  15  16
HETATM   16  C11 UNL     1      23.692   5.797  49.190  1.00  0.00     0.121 C 
BRANCH  16  17
HETATM   17  C12 UNL     1      25.149   5.660  48.961  1.00  0.00    -0.049 A 
HETATM   18  C13 UNL     1      26.027   6.606  48.446  1.00  0.00     0.008 A 
HETATM   19  C14 UNL     1      27.355   6.320  48.296  1.00  0.00     0.001 A 
HETATM   20  C15 UNL     1      27.917   5.107  48.634  1.00  0.00     0.000 A 
HETATM   21  C16 UNL     1      27.059   4.158  49.148  1.00  0.00     0.001 A 
HETATM   22  C17 UNL     1      25.729   4.444  49.297  1.00  0.00     0.008 A 
ENDBRANCH  16  17
ENDBRANCH  15  16
ENDBRANCH   4  15
TORSDOF 5
ENDMDL
MODEL 8
REMARK VINA RESULT:      -7.2      2.635      3.505
REMARK  5 active torsions:
REMARK  status: ('A' for Active; 'I' for Inactive)
REMARK    1  A    between atoms: O1_2  and  C2_3 
REMARK    2  A    between atoms: C8_9  and  C9_10 
REMARK    3  A    between atoms: C10_13  and  S1_14 
REMARK    4  A    between atoms: S1_14  and  C11_15 
REMARK    5  A    between atoms: C11_15  and  C12_16 
ROOT
HETATM    1  C9  UNL     1      22.530   1.160  51.603  1.00  0.00     0.206 A 
HETATM    2  N1  UNL     1      21.548   0.993  52.512  1.00  0.00    -0.120 NA
HETATM    3  N2  UNL     1      22.098   0.420  53.570  1.00  0.00    -0.114 NA
HETATM    4  C10 UNL     1      23.410   0.225  53.340  1.00  0.00     0.231 A 
HETATM    5  O2  UNL     1      23.651   0.683  52.135  1.00  0.00    -0.263 OA
ENDROOT
BRANCH   1   6
HETATM    6  C8  UNL     1      22.378   1.766  50.258  1.00  0.00     0.052 A 
HETATM    7  C2  UNL     1      23.006   2.961  49.999  1.00  0.00     0.083 A 
HETATM    8  C3  UNL     1      22.849   3.518  48.727  1.00  0.00     0.044 A 
HETATM    9  C4  UNL     1      22.081   2.888  47.744  1.00  0.00    -0.059 A 
HETATM   10  C5  UNL     1      21.918   3.487  46.394  1.00  0.00     0.048 C 
HETATM   11  C6  UNL     1      21.476   1.683  48.079  1.00  0.00     0.008 A 
HETATM   12  C7  UNL     1      21.601   1.083  49.337  1.00  0.00     0.019 A 
BRANCH   7  13
HETATM   13  O1  UNL     1      23.781   3.639  50.922  1.00  0.00    -0.355 OA
HETATM   14  C1  UNL     1      23.652   4.988  51.241  1.00  0.00     0.210 C 
ENDBRANCH   7  13
ENDBRANCH   1   6
BRANCH   4  15
HETATM   15  S1  UNL     1      24.849  -0.444  54.160  1.00  0.00    -0.078 SA
BRANCH  15  16
HETATM   16  C11 UNL     1      26.010  -1.101  52.974  1.00  0.00     0.121 C 
BRANCH  16  17
HETATM   17  C12 UNL     1      27.422  -0.730  53.221  1.00  0.00    -0.049 A 
HETATM   18  C13 UNL     1      27.934   0.520  53.546  1.00  0.00     0.008 A 
HETATM   19  C14 UNL     1      29.276   0.698  53.743  1.00  0.00     0.001 A 
HETATM   20  C15 UNL     1      30.202  -0.318  53.641  1.00  0.00     0.000 A 
HETATM   21  C16 UNL     1      29.709  -1.565  53.319  1.00  0.00     0.001 A 
HETATM   22  C17 UNL     1      28.367  -1.742  53.121  1.00  0.00     0.008 A 
ENDBRANCH  16  17
ENDBRANCH  15  16
ENDBRANCH   4  15
TORSDOF 5
ENDMDL
MODEL 9
REMARK VINA RESULT:      -7.2      3.510      4.243
REMARK  5 active torsions:
REMARK  status: ('A' for Active; 'I' for Inactive)
REMARK    1  A    between atoms: O1_2  and  C2_3 
REMARK    2  A    between atoms: C8_9  and  C9_10 
REMARK    3  A    between atoms: C10_13  and  S1_14 
REMARK    4  A    between atoms: S1_14  and  C11_15 
REMARK    5  A    between atoms: C11_15  and  C12_16 
ROOT
HETATM    1  C9  UNL     1      24.528   3.791  50.304  1.00  0.00     0.206 A 
HETATM    2  N1  UNL     1      24.235   3.822  51.619  1.00  0.00    -0.120 NA
HETATM    3  N2  UNL     1      23.248   2.963  51.813  1.00  0.00    -0.114 NA
HETATM    4  C10 UNL     1      22.916   2.393  50.640  1.00  0.00     0.231 A 
HETATM    5  O2  UNL     1      23.708   2.912  49.734  1.00  0.00    -0.263 OA
ENDROOT
BRANCH   1   6
HETATM    6  C8  UNL     1      25.573   4.593  49.624  1.00  0.00     0.052 A 
HETATM    7  C2  UNL     1      25.309   5.911  49.335  1.00  0.00     0.083 A 
HETATM    8  C3  UNL     1      26.305   6.650  48.692  1.00  0.00     0.044 A 
HETATM    9  C4  UNL     1      27.533   6.077  48.348  1.00  0.00    -0.059 A 
HETATM   10  C5  UNL     1      28.586   6.870  47.663  1.00  0.00     0.048 C 
HETATM   11  C6  UNL     1      27.727   4.740  48.672  1.00  0.00     0.008 A 
HETATM   12  C7  UNL     1      26.763   3.956  49.316  1.00  0.00     0.019 A 
BRANCH   7  13
HETATM   13  O1  UNL     1      24.118   6.543  49.645  1.00  0.00    -0.355 OA
HETATM   14  C1  UNL     1      23.998   7.682  50.436  1.00  0.00     0.210 C 
ENDBRANCH   7  13
ENDBRANCH   1   6
BRANCH   4  15
HETATM   15  S1  UNL     1      21.765   1.191  49.990  1.00  0.00    -0.078 SA
BRANCH  15  16
HETATM   16  C11 UNL     1      20.486   0.825  51.179  1.00  0.00     0.121 C 
BRANCH  16  17
HETATM   17  C12 UNL     1      20.978   0.305  52.475  1.00  0.00    -0.049 A 
HETATM   18  C13 UNL     1      20.490   0.580  53.748  1.00  0.00     0.008 A 
HETATM   19  C14 UNL     1      21.060   0.013  54.854  1.00  0.00     0.001 A 
HETATM   20  C15 UNL     1      22.132  -0.852  54.800  1.00  0.00     0.000 A 
HETATM   21  C16 UNL     1      22.627  -1.135  53.545  1.00  0.00     0.001 A 
HETATM   22  C17 UNL     1      22.057  -0.568  52.438  1.00  0.00     0.008 A 
ENDBRANCH  16  17
ENDBRANCH  15  16
ENDBRANCH   4  15
TORSDOF 5
ENDMDL
