MODEL 1
REMARK VINA RESULT:      -8.4      0.000      0.000
REMARK  5 active torsions:
REMARK  status: ('A' for Active; 'I' for Inactive)
REMARK    1  A    between atoms: N1_1  and  C1_2 
REMARK    2  A    between atoms: C2_3  and  C3_4 
REMARK    3  A    between atoms: C3_4  and  C4_6 
REMARK    4  A    between atoms: C7_9  and  C8_10 
REMARK    5  A    between atoms: C15_19  and  N3_20 
ROOT
HETATM    1  C4  UNL     1      26.770   2.002  52.568  1.00  0.00     0.116 C 
HETATM    2  C5  UNL     1      25.555   1.909  53.155  1.00  0.00     0.049 C 
HETATM    3  C6  UNL     1      24.557   2.079  52.102  1.00  0.00     0.022 A 
HETATM    4  C7  UNL     1      23.352   1.516  51.891  1.00  0.00     0.076 A 
HETATM    5  N2  UNL     1      22.783   1.973  50.643  1.00  0.00    -0.260 NA
HETATM    6  C14 UNL     1      23.628   2.818  50.107  1.00  0.00     0.142 A 
HETATM    7  C15 UNL     1      24.787   2.981  50.979  1.00  0.00     0.252 A 
HETATM    8  C16 UNL     1      26.134   2.953  50.466  1.00  0.00     0.142 C 
HETATM    9  N4  UNL     1      27.043   2.491  51.265  1.00  0.00    -0.257 NA
ENDROOT
BRANCH   1  10
HETATM   10  C3  UNL     1      27.905   1.831  53.447  1.00  0.00     0.255 C 
HETATM   11  O1  UNL     1      28.343   2.747  54.185  1.00  0.00    -0.276 OA
BRANCH  10  12
HETATM   12  C2  UNL     1      28.635   0.599  53.554  1.00  0.00     0.001 C 
HETATM   13  C1  UNL     1      29.247  -0.461  53.634  1.00  0.00     0.012 C 
BRANCH  13  14
HETATM   14  N1  UNL     1      29.953  -1.681  53.701  1.00  0.00    -0.359 N 
HETATM   15  H1  UNL     1      29.743  -2.399  54.431  1.00  0.00     0.166 HD
HETATM   16  H2  UNL     1      30.705  -1.809  52.960  1.00  0.00     0.166 HD
ENDBRANCH  13  14
ENDBRANCH  10  12
ENDBRANCH   1  10
BRANCH   4  17
HETATM   17  C8  UNL     1      22.743   0.522  52.776  1.00  0.00    -0.005 A 
HETATM   18  C9  UNL     1      23.390  -0.235  53.747  1.00  0.00     0.014 A 
HETATM   19  C10 UNL     1      22.660  -1.132  54.500  1.00  0.00     0.002 A 
HETATM   20  C11 UNL     1      21.318  -1.331  54.354  1.00  0.00     0.019 A 
HETATM   21  C12 UNL     1      20.649  -0.589  53.395  1.00  0.00     0.011 A 
HETATM   22 BR1  UNL     1      18.765  -0.797  53.115  1.00  0.00    -0.051 Br
HETATM   23  C13 UNL     1      21.377   0.319  52.628  1.00  0.00     0.032 A 
ENDBRANCH   4  17
BRANCH   7  24
HETATM   24  N3  UNL     1      24.606   4.352  51.652  1.00  0.00     0.103 N 
HETATM   25  H9  UNL     1      23.598   4.604  51.527  1.00  0.00     0.315 HD
HETATM   26  H10 UNL     1      25.237   4.946  51.051  1.00  0.00     0.315 HD
ENDBRANCH   7  24
TORSDOF 5
ENDMDL
MODEL 2
REMARK VINA RESULT:      -7.9      1.951      4.445
REMARK  5 active torsions:
REMARK  status: ('A' for Active; 'I' for Inactive)
REMARK    1  A    between atoms: N1_1  and  C1_2 
REMARK    2  A    between atoms: C2_3  and  C3_4 
REMARK    3  A    between atoms: C3_4  and  C4_6 
REMARK    4  A    between atoms: C7_9  and  C8_10 
REMARK    5  A    between atoms: C15_19  and  N3_20 
ROOT
HETATM    1  C4  UNL     1      26.445   2.178  51.681  1.00  0.00     0.116 C 
HETATM    2  C5  UNL     1      25.677   1.075  51.829  1.00  0.00     0.049 C 
HETATM    3  C6  UNL     1      26.021   0.484  53.120  1.00  0.00     0.022 A 
HETATM    4  C7  UNL     1      25.286  -0.140  54.061  1.00  0.00     0.076 A 
HETATM    5  N2  UNL     1      26.097  -0.475  55.209  1.00  0.00    -0.260 NA
HETATM    6  C14 UNL     1      27.319  -0.071  54.962  1.00  0.00     0.142 A 
HETATM    7  C15 UNL     1      27.385   0.530  53.634  1.00  0.00     0.252 A 
HETATM    8  C16 UNL     1      28.062   1.781  53.399  1.00  0.00     0.142 C 
HETATM    9  N4  UNL     1      27.584   2.523  52.450  1.00  0.00    -0.257 NA
ENDROOT
BRANCH   1  10
HETATM   10  C3  UNL     1      26.232   2.930  50.465  1.00  0.00     0.255 C 
HETATM   11  O1  UNL     1      27.160   3.503  49.844  1.00  0.00    -0.276 OA
BRANCH  10  12
HETATM   12  C2  UNL     1      24.941   3.090  49.857  1.00  0.00     0.001 C 
HETATM   13  C1  UNL     1      23.845   3.218  49.322  1.00  0.00     0.012 C 
BRANCH  13  14
HETATM   14  N1  UNL     1      22.584   3.342  48.700  1.00  0.00    -0.359 N 
HETATM   15  H1  UNL     1      22.107   4.267  48.604  1.00  0.00     0.166 HD
HETATM   16  H2  UNL     1      22.165   2.433  48.343  1.00  0.00     0.166 HD
ENDBRANCH  13  14
ENDBRANCH  10  12
ENDBRANCH   1  10
BRANCH   4  17
HETATM   17  C8  UNL     1      23.845  -0.377  53.955  1.00  0.00    -0.005 A 
HETATM   18  C9  UNL     1      23.039  -1.029  54.882  1.00  0.00     0.014 A 
HETATM   19  C10 UNL     1      21.690  -1.164  54.625  1.00  0.00     0.002 A 
HETATM   20  C11 UNL     1      21.080  -0.693  53.500  1.00  0.00     0.019 A 
HETATM   21  C12 UNL     1      21.860  -0.038  52.561  1.00  0.00     0.011 A 
HETATM   22 BR1  UNL     1      21.095   0.661  50.950  1.00  0.00    -0.051 Br
HETATM   23  C13 UNL     1      23.224   0.104  52.810  1.00  0.00     0.032 A 
ENDBRANCH   4  17
BRANCH   7  24
HETATM   24  N3  UNL     1      28.078  -0.514  52.743  1.00  0.00     0.103 N 
HETATM   25  H9  UNL     1      28.221  -1.358  53.345  1.00  0.00     0.315 HD
HETATM   26  H10 UNL     1      28.987  -0.019  52.538  1.00  0.00     0.315 HD
ENDBRANCH   7  24
TORSDOF 5
ENDMDL
MODEL 3
REMARK VINA RESULT:      -7.7      1.795      1.972
REMARK  5 active torsions:
REMARK  status: ('A' for Active; 'I' for Inactive)
REMARK    1  A    between atoms: N1_1  and  C1_2 
REMARK    2  A    between atoms: C2_3  and  C3_4 
REMARK    3  A    between atoms: C3_4  and  C4_6 
REMARK    4  A    between atoms: C7_9  and  C8_10 
REMARK    5  A    between atoms: C15_19  and  N3_20 
ROOT
HETATM    1  C4  UNL     1      25.507   1.641  52.062  1.00  0.00     0.116 C 
HETATM    2  C5  UNL     1      24.530   1.427  52.971  1.00  0.00     0.049 C 
HETATM    3  C6  UNL     1      23.387   2.244  52.571  1.00  0.00     0.022 A 
HETATM    4  C7  UNL     1      22.056   2.037  52.624  1.00  0.00     0.076 A 
HETATM    5  N2  UNL     1      21.340   3.138  52.021  1.00  0.00    -0.260 NA
HETATM    6  C14 UNL     1      22.227   4.014  51.618  1.00  0.00     0.142 A 
HETATM    7  C15 UNL     1      23.570   3.552  51.951  1.00  0.00     0.252 A 
HETATM    8  C16 UNL     1      24.651   3.607  50.999  1.00  0.00     0.142 C 
HETATM    9  N4  UNL     1      25.554   2.683  51.102  1.00  0.00    -0.257 NA
ENDROOT
BRANCH   1  10
HETATM   10  C3  UNL     1      26.727   0.893  52.267  1.00  0.00     0.255 C 
HETATM   11  O1  UNL     1      26.932  -0.236  51.757  1.00  0.00    -0.276 OA
BRANCH  10  12
HETATM   12  C2  UNL     1      27.815   1.372  53.072  1.00  0.00     0.001 C 
HETATM   13  C1  UNL     1      28.737   1.799  53.759  1.00  0.00     0.012 C 
BRANCH  13  14
HETATM   14  N1  UNL     1      29.781   2.300  54.565  1.00  0.00    -0.359 N 
HETATM   15  H1  UNL     1      29.599   2.715  55.507  1.00  0.00     0.166 HD
HETATM   16  H2  UNL     1      30.754   2.223  54.143  1.00  0.00     0.166 HD
ENDBRANCH  13  14
ENDBRANCH  10  12
ENDBRANCH   1  10
BRANCH   4  17
HETATM   17  C8  UNL     1      21.434   0.823  53.157  1.00  0.00    -0.005 A 
HETATM   18  C9  UNL     1      22.003  -0.081  54.046  1.00  0.00     0.014 A 
HETATM   19  C10 UNL     1      21.271  -1.179  54.451  1.00  0.00     0.002 A 
HETATM   20  C11 UNL     1      20.001  -1.444  54.029  1.00  0.00     0.019 A 
HETATM   21  C12 UNL     1      19.411  -0.557  53.143  1.00  0.00     0.011 A 
HETATM   22 BR1  UNL     1      17.631  -0.841  52.494  1.00  0.00    -0.051 Br
HETATM   23  C13 UNL     1      20.141   0.555  52.728  1.00  0.00     0.032 A 
ENDBRANCH   4  17
BRANCH   7  24
HETATM   24  N3  UNL     1      24.010   4.397  53.158  1.00  0.00     0.103 N 
HETATM   25  H9  UNL     1      24.965   4.757  52.926  1.00  0.00     0.315 HD
HETATM   26  H10 UNL     1      24.041   3.658  53.910  1.00  0.00     0.315 HD
ENDBRANCH   7  24
TORSDOF 5
ENDMDL
MODEL 4
REMARK VINA RESULT:      -7.6      3.533      5.925
REMARK  5 active torsions:
REMARK  status: ('A' for Active; 'I' for Inactive)
REMARK    1  A    between atoms: N1_1  and  C1_2 
REMARK    2  A    between atoms: C2_3  and  C3_4 
REMARK    3  A    between atoms: C3_4  and  C4_6 
REMARK    4  A    between atoms: C7_9  and  C8_10 
REMARK    5  A    between atoms: C15_19  and  N3_20 
ROOT
HETATM    1  C4  UNL     1      23.596   2.559  50.174  1.00  0.00     0.116 C 
HETATM    2  C5  UNL     1      24.320   2.618  51.314  1.00  0.00     0.049 C 
HETATM    3  C6  UNL     1      24.014   1.412  52.078  1.00  0.00     0.022 A 
HETATM    4  C7  UNL     1      24.766   0.615  52.863  1.00  0.00     0.076 A 
HETATM    5  N2  UNL     1      23.997  -0.514  53.336  1.00  0.00    -0.260 NA
HETATM    6  C14 UNL     1      22.784  -0.397  52.854  1.00  0.00     0.142 A 
HETATM    7  C15 UNL     1      22.680   0.822  52.059  1.00  0.00     0.252 A 
HETATM    8  C16 UNL     1      22.048   0.832  50.763  1.00  0.00     0.142 C 
HETATM    9  N4  UNL     1      22.512   1.686  49.906  1.00  0.00    -0.257 NA
ENDROOT
BRANCH   1  10
HETATM   10  C3  UNL     1      23.782   3.661  49.257  1.00  0.00     0.255 C 
HETATM   11  O1  UNL     1      22.963   3.941  48.348  1.00  0.00    -0.276 OA
BRANCH  10  12
HETATM   12  C2  UNL     1      24.920   4.535  49.301  1.00  0.00     0.001 C 
HETATM   13  C1  UNL     1      25.881   5.297  49.339  1.00  0.00     0.012 C 
BRANCH  13  14
HETATM   14  N1  UNL     1      26.976   6.185  49.400  1.00  0.00    -0.359 N 
HETATM   15  H1  UNL     1      27.353   6.653  48.544  1.00  0.00     0.166 HD
HETATM   16  H2  UNL     1      27.380   6.338  50.371  1.00  0.00     0.166 HD
ENDBRANCH  13  14
ENDBRANCH  10  12
ENDBRANCH   1  10
BRANCH   4  17
HETATM   17  C8  UNL     1      26.187   0.834  53.134  1.00  0.00    -0.005 A 
HETATM   18  C9  UNL     1      26.806   2.050  53.399  1.00  0.00     0.014 A 
HETATM   19  C10 UNL     1      28.165   2.078  53.637  1.00  0.00     0.002 A 
HETATM   20  C11 UNL     1      28.960   0.970  53.630  1.00  0.00     0.019 A 
HETATM   21  C12 UNL     1      28.369  -0.255  53.369  1.00  0.00     0.011 A 
HETATM   22 BR1  UNL     1      29.401  -1.869  53.338  1.00  0.00    -0.051 Br
HETATM   23  C13 UNL     1      26.997  -0.294  53.127  1.00  0.00     0.032 A 
ENDBRANCH   4  17
BRANCH   7  24
HETATM   24  N3  UNL     1      21.898   1.818  52.932  1.00  0.00     0.103 N 
HETATM   25  H9  UNL     1      20.888   1.673  52.701  1.00  0.00     0.315 HD
HETATM   26  H10 UNL     1      22.261   2.732  52.552  1.00  0.00     0.315 HD
ENDBRANCH   7  24
TORSDOF 5
ENDMDL
MODEL 5
REMARK VINA RESULT:      -7.6      1.890      2.372
REMARK  5 active torsions:
REMARK  status: ('A' for Active; 'I' for Inactive)
REMARK    1  A    between atoms: N1_1  and  C1_2 
REMARK    2  A    between atoms: C2_3  and  C3_4 
REMARK    3  A    between atoms: C3_4  and  C4_6 
REMARK    4  A    between atoms: C7_9  and  C8_10 
REMARK    5  A    between atoms: C15_19  and  N3_20 
ROOT
HETATM    1  C4  UNL     1      26.155   2.031  52.545  1.00  0.00     0.116 C 
HETATM    2  C5  UNL     1      24.819   2.206  52.649  1.00  0.00     0.049 C 
HETATM    3  C6  UNL     1      24.328   2.558  51.319  1.00  0.00     0.022 A 
HETATM    4  C7  UNL     1      23.195   2.255  50.657  1.00  0.00     0.076 A 
HETATM    5  N2  UNL     1      23.224   2.794  49.316  1.00  0.00    -0.260 NA
HETATM    6  C14 UNL     1      24.358   3.432  49.169  1.00  0.00     0.142 A 
HETATM    7  C15 UNL     1      25.128   3.369  50.407  1.00  0.00     0.252 A 
HETATM    8  C16 UNL     1      26.534   3.049  50.412  1.00  0.00     0.142 C 
HETATM    9  N4  UNL     1      26.976   2.424  51.458  1.00  0.00    -0.257 NA
ENDROOT
BRANCH   1  10
HETATM   10  C3  UNL     1      26.833   1.645  53.762  1.00  0.00     0.255 C 
HETATM   11  O1  UNL     1      27.922   2.151  54.129  1.00  0.00    -0.276 OA
BRANCH  10  12
HETATM   12  C2  UNL     1      26.323   0.649  54.662  1.00  0.00     0.001 C 
HETATM   13  C1  UNL     1      25.880  -0.210  55.416  1.00  0.00     0.012 C 
BRANCH  13  14
HETATM   14  N1  UNL     1      25.378  -1.216  56.269  1.00  0.00    -0.359 N 
HETATM   15  H1  UNL     1      25.928  -1.572  57.083  1.00  0.00     0.166 HD
HETATM   16  H2  UNL     1      24.410  -1.578  56.020  1.00  0.00     0.166 HD
ENDBRANCH  13  14
ENDBRANCH  10  12
ENDBRANCH   1  10
BRANCH   4  17
HETATM   17  C8  UNL     1      22.118   1.429  51.205  1.00  0.00    -0.005 A 
HETATM   18  C9  UNL     1      20.841   1.272  50.679  1.00  0.00     0.014 A 
HETATM   19  C10 UNL     1      19.942   0.447  51.326  1.00  0.00     0.002 A 
HETATM   20  C11 UNL     1      20.228  -0.238  52.471  1.00  0.00     0.019 A 
HETATM   21  C12 UNL     1      21.494  -0.099  53.015  1.00  0.00     0.011 A 
HETATM   22 BR1  UNL     1      21.991  -1.021  54.619  1.00  0.00    -0.051 Br
HETATM   23  C13 UNL     1      22.409   0.732  52.370  1.00  0.00     0.032 A 
ENDBRANCH   4  17
BRANCH   7  24
HETATM   24  N3  UNL     1      24.996   4.761  51.046  1.00  0.00     0.103 N 
HETATM   25  H9  UNL     1      25.930   5.219  50.935  1.00  0.00     0.315 HD
HETATM   26  H10 UNL     1      24.806   4.494  52.049  1.00  0.00     0.315 HD
ENDBRANCH   7  24
TORSDOF 5
ENDMDL
MODEL 6
REMARK VINA RESULT:      -7.6      3.105      5.675
REMARK  5 active torsions:
REMARK  status: ('A' for Active; 'I' for Inactive)
REMARK    1  A    between atoms: N1_1  and  C1_2 
REMARK    2  A    between atoms: C2_3  and  C3_4 
REMARK    3  A    between atoms: C3_4  and  C4_6 
REMARK    4  A    between atoms: C7_9  and  C8_10 
REMARK    5  A    between atoms: C15_19  and  N3_20 
ROOT
HETATM    1  C4  UNL     1      23.839  -0.293  53.814  1.00  0.00     0.116 C 
HETATM    2  C5  UNL     1      23.513   0.942  53.370  1.00  0.00     0.049 C 
HETATM    3  C6  UNL     1      24.646   1.428  52.586  1.00  0.00     0.022 A 
HETATM    4  C7  UNL     1      24.726   2.175  51.467  1.00  0.00     0.076 A 
HETATM    5  N2  UNL     1      26.100   2.316  51.041  1.00  0.00    -0.260 NA
HETATM    6  C14 UNL     1      26.850   1.673  51.901  1.00  0.00     0.142 A 
HETATM    7  C15 UNL     1      26.018   1.093  52.950  1.00  0.00     0.252 A 
HETATM    8  C16 UNL     1      26.196  -0.266  53.396  1.00  0.00     0.142 C 
HETATM    9  N4  UNL     1      25.131  -0.878  53.810  1.00  0.00    -0.257 NA
ENDROOT
BRANCH   1  10
HETATM   10  C3  UNL     1      22.826  -0.965  54.596  1.00  0.00     0.255 C 
HETATM   11  O1  UNL     1      23.080  -1.584  55.658  1.00  0.00    -0.276 OA
BRANCH  10  12
HETATM   12  C2  UNL     1      21.438  -0.986  54.229  1.00  0.00     0.001 C 
HETATM   13  C1  UNL     1      20.253  -0.986  53.914  1.00  0.00     0.012 C 
BRANCH  13  14
HETATM   14  N1  UNL     1      18.894  -0.972  53.533  1.00  0.00    -0.359 N 
HETATM   15  H1  UNL     1      18.454  -0.130  53.097  1.00  0.00     0.166 HD
HETATM   16  H2  UNL     1      18.362  -1.872  53.722  1.00  0.00     0.166 HD
ENDBRANCH  13  14
ENDBRANCH  10  12
ENDBRANCH   1  10
BRANCH   4  17
HETATM   17  C8  UNL     1      23.566   2.704  50.748  1.00  0.00    -0.005 A 
HETATM   18  C9  UNL     1      22.756   2.014  49.854  1.00  0.00     0.014 A 
HETATM   19  C10 UNL     1      21.695   2.668  49.262  1.00  0.00     0.002 A 
HETATM   20  C11 UNL     1      21.380   3.974  49.499  1.00  0.00     0.019 A 
HETATM   21  C12 UNL     1      22.170   4.685  50.388  1.00  0.00     0.011 A 
HETATM   22 BR1  UNL     1      21.808   6.523  50.788  1.00  0.00    -0.051 Br
HETATM   23  C13 UNL     1      23.245   4.033  50.991  1.00  0.00     0.032 A 
ENDBRANCH   4  17
BRANCH   7  24
HETATM   24  N3  UNL     1      26.228   1.987  54.184  1.00  0.00     0.103 N 
HETATM   25  H9  UNL     1      25.298   2.420  54.388  1.00  0.00     0.315 HD
HETATM   26  H10 UNL     1      26.912   2.691  53.797  1.00  0.00     0.315 HD
ENDBRANCH   7  24
TORSDOF 5
ENDMDL
MODEL 7
REMARK VINA RESULT:      -7.5      3.890      6.797
REMARK  5 active torsions:
REMARK  status: ('A' for Active; 'I' for Inactive)
REMARK    1  A    between atoms: N1_1  and  C1_2 
REMARK    2  A    between atoms: C2_3  and  C3_4 
REMARK    3  A    between atoms: C3_4  and  C4_6 
REMARK    4  A    between atoms: C7_9  and  C8_10 
REMARK    5  A    between atoms: C15_19  and  N3_20 
ROOT
HETATM    1  C4  UNL     1      20.549   2.186  52.329  1.00  0.00     0.116 C 
HETATM    2  C5  UNL     1      21.761   2.154  52.928  1.00  0.00     0.049 C 
HETATM    3  C6  UNL     1      22.059   0.754  53.219  1.00  0.00     0.022 A 
HETATM    4  C7  UNL     1      23.202   0.042  53.193  1.00  0.00     0.076 A 
HETATM    5  N2  UNL     1      22.948  -1.349  53.494  1.00  0.00    -0.260 NA
HETATM    6  C14 UNL     1      21.663  -1.478  53.716  1.00  0.00     0.142 A 
HETATM    7  C15 UNL     1      21.005  -0.182  53.596  1.00  0.00     0.252 A 
HETATM    8  C16 UNL     1      19.778  -0.018  52.856  1.00  0.00     0.142 C 
HETATM    9  N4  UNL     1      19.603   1.131  52.283  1.00  0.00    -0.257 NA
ENDROOT
BRANCH   1  10
HETATM   10  C3  UNL     1      20.081   3.494  51.932  1.00  0.00     0.255 C 
HETATM   11  O1  UNL     1      18.864   3.775  51.801  1.00  0.00    -0.276 OA
BRANCH  10  12
HETATM   12  C2  UNL     1      20.963   4.591  51.651  1.00  0.00     0.001 C 
HETATM   13  C1  UNL     1      21.717   5.533  51.429  1.00  0.00     0.012 C 
BRANCH  13  14
HETATM   14  N1  UNL     1      22.600   6.608  51.191  1.00  0.00    -0.359 N 
HETATM   15  H1  UNL     1      23.210   6.642  50.343  1.00  0.00     0.166 HD
HETATM   16  H2  UNL     1      22.594   7.369  51.933  1.00  0.00     0.166 HD
ENDBRANCH  13  14
ENDBRANCH  10  12
ENDBRANCH   1  10
BRANCH   4  17
HETATM   17  C8  UNL     1      24.509   0.597  52.835  1.00  0.00    -0.005 A 
HETATM   18  C9  UNL     1      24.795   1.414  51.748  1.00  0.00     0.014 A 
HETATM   19  C10 UNL     1      26.089   1.854  51.557  1.00  0.00     0.002 A 
HETATM   20  C11 UNL     1      27.129   1.534  52.380  1.00  0.00     0.019 A 
HETATM   21  C12 UNL     1      26.871   0.721  53.472  1.00  0.00     0.011 A 
HETATM   22 BR1  UNL     1      28.264   0.217  54.686  1.00  0.00    -0.051 Br
HETATM   23  C13 UNL     1      25.567   0.271  53.673  1.00  0.00     0.032 A 
ENDBRANCH   4  17
BRANCH   7  24
HETATM   24  N3  UNL     1      20.707   0.265  55.037  1.00  0.00     0.103 N 
HETATM   25  H9  UNL     1      21.259  -0.372  55.656  1.00  0.00     0.315 HD
HETATM   26  H10 UNL     1      19.673   0.064  55.089  1.00  0.00     0.315 HD
ENDBRANCH   7  24
TORSDOF 5
ENDMDL
MODEL 8
REMARK VINA RESULT:      -7.3      3.113      4.813
REMARK  5 active torsions:
REMARK  status: ('A' for Active; 'I' for Inactive)
REMARK    1  A    between atoms: N1_1  and  C1_2 
REMARK    2  A    between atoms: C2_3  and  C3_4 
REMARK    3  A    between atoms: C3_4  and  C4_6 
REMARK    4  A    between atoms: C7_9  and  C8_10 
REMARK    5  A    between atoms: C15_19  and  N3_20 
ROOT
HETATM    1  C4  UNL     1      25.163  -0.622  53.937  1.00  0.00     0.116 C 
HETATM    2  C5  UNL     1      24.436  -0.364  52.826  1.00  0.00     0.049 C 
HETATM    3  C6  UNL     1      23.066  -0.106  53.261  1.00  0.00     0.022 A 
HETATM    4  C7  UNL     1      22.117   0.745  52.826  1.00  0.00     0.076 A 
HETATM    5  N2  UNL     1      20.936   0.667  53.656  1.00  0.00    -0.260 NA
HETATM    6  C14 UNL     1      21.160  -0.235  54.580  1.00  0.00     0.142 A 
HETATM    7  C15 UNL     1      22.486  -0.815  54.397  1.00  0.00     0.252 A 
HETATM    8  C16 UNL     1      23.393  -1.001  55.502  1.00  0.00     0.142 C 
HETATM    9  N4  UNL     1      24.656  -0.912  55.229  1.00  0.00    -0.257 NA
ENDROOT
BRANCH   1  10
HETATM   10  C3  UNL     1      26.569  -0.878  53.719  1.00  0.00     0.255 C 
HETATM   11  O1  UNL     1      27.004  -1.962  53.259  1.00  0.00    -0.276 OA
BRANCH  10  12
HETATM   12  C2  UNL     1      27.595   0.083  54.010  1.00  0.00     0.001 C 
HETATM   13  C1  UNL     1      28.470   0.911  54.241  1.00  0.00     0.012 C 
BRANCH  13  14
HETATM   14  N1  UNL     1      29.462   1.882  54.498  1.00  0.00    -0.359 N 
HETATM   15  H1  UNL     1      30.113   1.800  55.311  1.00  0.00     0.166 HD
HETATM   16  H2  UNL     1      29.493   2.690  53.808  1.00  0.00     0.166 HD
ENDBRANCH  13  14
ENDBRANCH  10  12
ENDBRANCH   1  10
BRANCH   4  17
HETATM   17  C8  UNL     1      22.295   1.672  51.707  1.00  0.00    -0.005 A 
HETATM   18  C9  UNL     1      22.060   1.407  50.363  1.00  0.00     0.014 A 
HETATM   19  C10 UNL     1      22.278   2.402  49.431  1.00  0.00     0.002 A 
HETATM   20  C11 UNL     1      22.720   3.654  49.746  1.00  0.00     0.019 A 
HETATM   21  C12 UNL     1      22.962   3.944  51.079  1.00  0.00     0.011 A 
HETATM   22 BR1  UNL     1      23.582   5.673  51.622  1.00  0.00    -0.051 Br
HETATM   23  C13 UNL     1      22.744   2.946  52.028  1.00  0.00     0.032 A 
ENDBRANCH   4  17
BRANCH   7  24
HETATM   24  N3  UNL     1      22.247  -2.209  53.792  1.00  0.00     0.103 N 
HETATM   25  H9  UNL     1      22.295  -2.882  54.591  1.00  0.00     0.315 HD
HETATM   26  H10 UNL     1      23.086  -2.289  53.158  1.00  0.00     0.315 HD
ENDBRANCH   7  24
TORSDOF 5
ENDMDL
MODEL 9
REMARK VINA RESULT:      -7.3      3.223      6.228
REMARK  5 active torsions:
REMARK  status: ('A' for Active; 'I' for Inactive)
REMARK    1  A    between atoms: N1_1  and  C1_2 
REMARK    2  A    between atoms: C2_3  and  C3_4 
REMARK    3  A    between atoms: C3_4  and  C4_6 
REMARK    4  A    between atoms: C7_9  and  C8_10 
REMARK    5  A    between atoms: C15_19  and  N3_20 
ROOT
HETATM    1  C4  UNL     1      22.074   0.250  53.483  1.00  0.00     0.116 C 
HETATM    2  C5  UNL     1      23.298   0.027  52.952  1.00  0.00     0.049 C 
HETATM    3  C6  UNL     1      23.693   1.250  52.258  1.00  0.00     0.022 A 
HETATM    4  C7  UNL     1      24.880   1.870  52.110  1.00  0.00     0.076 A 
HETATM    5  N2  UNL     1      24.723   3.112  51.387  1.00  0.00    -0.260 NA
HETATM    6  C14 UNL     1      23.455   3.238  51.084  1.00  0.00     0.142 A 
HETATM    7  C15 UNL     1      22.711   2.081  51.570  1.00  0.00     0.252 A 
HETATM    8  C16 UNL     1      21.461   2.222  52.275  1.00  0.00     0.142 C 
HETATM    9  N4  UNL     1      21.198   1.318  53.165  1.00  0.00    -0.257 NA
ENDROOT
BRANCH   1  10
HETATM   10  C3  UNL     1      21.513  -0.844  54.243  1.00  0.00     0.255 C 
HETATM   11  O1  UNL     1      22.163  -1.481  55.108  1.00  0.00    -0.276 OA
BRANCH  10  12
HETATM   12  C2  UNL     1      20.162  -1.301  54.080  1.00  0.00     0.001 C 
HETATM   13  C1  UNL     1      19.003  -1.675  53.933  1.00  0.00     0.012 C 
BRANCH  13  14
HETATM   14  N1  UNL     1      17.669  -2.096  53.743  1.00  0.00    -0.359 N 
HETATM   15  H1  UNL     1      17.014  -2.228  54.546  1.00  0.00     0.166 HD
HETATM   16  H2  UNL     1      17.390  -2.266  52.731  1.00  0.00     0.166 HD
ENDBRANCH  13  14
ENDBRANCH  10  12
ENDBRANCH   1  10
BRANCH   4  17
HETATM   17  C8  UNL     1      26.139   1.380  52.673  1.00  0.00    -0.005 A 
HETATM   18  C9  UNL     1      27.092   2.130  53.353  1.00  0.00     0.014 A 
HETATM   19  C10 UNL     1      28.230   1.506  53.823  1.00  0.00     0.002 A 
HETATM   20  C11 UNL     1      28.489   0.176  53.663  1.00  0.00     0.019 A 
HETATM   21  C12 UNL     1      27.554  -0.594  52.990  1.00  0.00     0.011 A 
HETATM   22 BR1  UNL     1      27.825  -2.470  52.716  1.00  0.00    -0.051 Br
HETATM   23  C13 UNL     1      26.402   0.027  52.511  1.00  0.00     0.032 A 
ENDBRANCH   4  17
BRANCH   7  24
HETATM   24  N3  UNL     1      22.414   1.228  50.325  1.00  0.00     0.103 N 
HETATM   25  H9  UNL     1      22.272   0.251  50.672  1.00  0.00     0.315 HD
HETATM   26  H10 UNL     1      23.325   1.331  49.802  1.00  0.00     0.315 HD
ENDBRANCH   7  24
TORSDOF 5
ENDMDL
