MODEL 1
REMARK VINA RESULT:      -7.2      0.000      0.000
REMARK  5 active torsions:
REMARK  status: ('A' for Active; 'I' for Inactive)
REMARK    1  A    between atoms: C3_3  and  C4_4 
REMARK    2  A    between atoms: C5_5  and  N1_6 
REMARK    3  A    between atoms: N1_6  and  C7_8 
REMARK    4  A    between atoms: C11_14  and  O1_15 
REMARK    5  A    between atoms: C13_17  and  O2_18 
ROOT
HETATM    1  C7  UNL     1      23.022   1.763  52.507  1.00  0.00     0.143 A 
HETATM    2  N2  UNL     1      21.974   0.915  52.299  1.00  0.00    -0.223 NA
HETATM    3  C8  UNL     1      22.074  -0.378  52.671  1.00  0.00     0.236 A 
HETATM    4  N3  UNL     1      23.193  -0.892  53.259  1.00  0.00    -0.241 NA
HETATM    5  C9  UNL     1      24.269  -0.091  53.491  1.00  0.00     0.075 A 
HETATM    6  C10 UNL     1      25.412  -0.590  54.084  1.00  0.00     0.072 A 
HETATM    7  C11 UNL     1      26.497   0.232  54.315  1.00  0.00     0.103 A 
HETATM    8  C13 UNL     1      26.431   1.579  53.942  1.00  0.00     0.102 A 
HETATM    9  C15 UNL     1      25.261   2.000  53.358  1.00  0.00     0.057 A 
HETATM   10  C16 UNL     1      24.146   1.227  53.102  1.00  0.00     0.042 A 
ENDROOT
BRANCH   1  11
HETATM   11  N1  UNL     1      22.989   3.137  52.141  1.00  0.00    -0.345 N 
HETATM   12  C6  UNL     1      23.422   4.385  52.739  1.00  0.00     0.157 C 
BRANCH  11  13
HETATM   13  C5  UNL     1      22.393   3.430  50.882  1.00  0.00     0.092 C 
HETATM   14  C4  UNL     1      23.101   3.477  49.765  1.00  0.00     0.017 C 
BRANCH  14  15
HETATM   15  C3  UNL     1      24.518   3.231  49.785  1.00  0.00    -0.003 C 
HETATM   16  C2  UNL     1      25.383   4.177  49.409  1.00  0.00    -0.031 C 
HETATM   17  C1  UNL     1      26.859   3.998  49.402  1.00  0.00     0.036 C 
ENDBRANCH  14  15
ENDBRANCH  11  13
ENDBRANCH   1  11
BRANCH   8  18
HETATM   18  O2  UNL     1      27.498   2.426  54.159  1.00  0.00    -0.353 OA
HETATM   19  C14 UNL     1      28.477   2.512  53.137  1.00  0.00     0.210 C 
ENDBRANCH   8  18
BRANCH   7  20
HETATM   20  O1  UNL     1      27.685  -0.179  54.904  1.00  0.00    -0.353 OA
HETATM   21  C12 UNL     1      28.655  -0.780  54.067  1.00  0.00     0.210 C 
ENDBRANCH   7  20
TORSDOF 5
ENDMDL
MODEL 2
REMARK VINA RESULT:      -7.1      3.297      5.736
REMARK  5 active torsions:
REMARK  status: ('A' for Active; 'I' for Inactive)
REMARK    1  A    between atoms: C3_3  and  C4_4 
REMARK    2  A    between atoms: C5_5  and  N1_6 
REMARK    3  A    between atoms: N1_6  and  C7_8 
REMARK    4  A    between atoms: C11_14  and  O1_15 
REMARK    5  A    between atoms: C13_17  and  O2_18 
ROOT
HETATM    1  C7  UNL     1      24.815  -0.378  53.975  1.00  0.00     0.143 A 
HETATM    2  N2  UNL     1      25.150  -1.033  55.124  1.00  0.00    -0.223 NA
HETATM    3  C8  UNL     1      24.182  -1.553  55.907  1.00  0.00     0.236 A 
HETATM    4  N3  UNL     1      22.856  -1.455  55.602  1.00  0.00    -0.241 NA
HETATM    5  C9  UNL     1      22.463  -0.812  54.468  1.00  0.00     0.075 A 
HETATM    6  C10 UNL     1      21.126  -0.701  54.140  1.00  0.00     0.072 A 
HETATM    7  C11 UNL     1      20.741  -0.046  52.987  1.00  0.00     0.103 A 
HETATM    8  C13 UNL     1      21.716   0.505  52.150  1.00  0.00     0.102 A 
HETATM    9  C15 UNL     1      23.023   0.353  52.544  1.00  0.00     0.057 A 
HETATM   10  C16 UNL     1      23.469  -0.288  53.682  1.00  0.00     0.042 A 
ENDROOT
BRANCH   1  11
HETATM   11  N1  UNL     1      25.781   0.194  53.101  1.00  0.00    -0.345 N 
HETATM   12  C6  UNL     1      26.391  -0.175  51.838  1.00  0.00     0.157 C 
BRANCH  11  13
HETATM   13  C5  UNL     1      26.324   1.443  53.510  1.00  0.00     0.092 C 
HETATM   14  C4  UNL     1      27.503   1.534  54.105  1.00  0.00     0.017 C 
BRANCH  14  15
HETATM   15  C3  UNL     1      28.286   0.356  54.362  1.00  0.00    -0.003 C 
HETATM   16  C2  UNL     1      29.367   0.078  53.627  1.00  0.00    -0.031 C 
HETATM   17  C1  UNL     1      30.225  -1.119  53.831  1.00  0.00     0.036 C 
ENDBRANCH  14  15
ENDBRANCH  11  13
ENDBRANCH   1  11
BRANCH   8  18
HETATM   18  O2  UNL     1      21.363   1.165  50.991  1.00  0.00    -0.353 OA
HETATM   19  C14 UNL     1      22.414   1.686  50.195  1.00  0.00     0.210 C 
ENDBRANCH   8  18
BRANCH   7  20
HETATM   20  O1  UNL     1      19.424   0.114  52.576  1.00  0.00    -0.353 OA
HETATM   21  C12 UNL     1      18.493  -0.878  52.965  1.00  0.00     0.210 C 
ENDBRANCH   7  20
TORSDOF 5
ENDMDL
MODEL 3
REMARK VINA RESULT:      -6.8      2.005      3.437
REMARK  5 active torsions:
REMARK  status: ('A' for Active; 'I' for Inactive)
REMARK    1  A    between atoms: C3_3  and  C4_4 
REMARK    2  A    between atoms: C5_5  and  N1_6 
REMARK    3  A    between atoms: N1_6  and  C7_8 
REMARK    4  A    between atoms: C11_14  and  O1_15 
REMARK    5  A    between atoms: C13_17  and  O2_18 
ROOT
HETATM    1  C7  UNL     1      24.122   2.199  51.405  1.00  0.00     0.143 A 
HETATM    2  N2  UNL     1      24.548   3.051  50.429  1.00  0.00    -0.223 NA
HETATM    3  C8  UNL     1      25.869   3.190  50.188  1.00  0.00     0.236 A 
HETATM    4  N3  UNL     1      26.821   2.505  50.886  1.00  0.00    -0.241 NA
HETATM    5  C9  UNL     1      26.453   1.641  51.872  1.00  0.00     0.075 A 
HETATM    6  C10 UNL     1      27.400   0.938  52.591  1.00  0.00     0.072 A 
HETATM    7  C11 UNL     1      27.014   0.064  53.588  1.00  0.00     0.103 A 
HETATM    8  C13 UNL     1      25.654  -0.106  53.866  1.00  0.00     0.102 A 
HETATM    9  C15 UNL     1      24.774   0.628  53.108  1.00  0.00     0.057 A 
HETATM   10  C16 UNL     1      25.098   1.515  52.101  1.00  0.00     0.042 A 
ENDROOT
BRANCH   1  11
HETATM   11  N1  UNL     1      22.747   2.002  51.714  1.00  0.00    -0.345 N 
HETATM   12  C6  UNL     1      21.717   2.752  52.406  1.00  0.00     0.157 C 
BRANCH  11  13
HETATM   13  C5  UNL     1      22.178   0.781  51.258  1.00  0.00     0.092 C 
HETATM   14  C4  UNL     1      21.573   0.683  50.084  1.00  0.00     0.017 C 
BRANCH  14  15
HETATM   15  C3  UNL     1      21.470   1.826  49.217  1.00  0.00    -0.003 C 
HETATM   16  C2  UNL     1      22.124   1.864  48.053  1.00  0.00    -0.031 C 
HETATM   17  C1  UNL     1      22.067   3.008  47.105  1.00  0.00     0.036 C 
ENDBRANCH  14  15
ENDBRANCH  11  13
ENDBRANCH   1  11
BRANCH   8  18
HETATM   18  O2  UNL     1      25.236  -0.972  54.856  1.00  0.00    -0.353 OA
HETATM   19  C14 UNL     1      23.839  -1.123  55.039  1.00  0.00     0.210 C 
ENDBRANCH   8  18
BRANCH   7  20
HETATM   20  O1  UNL     1      27.891  -0.684  54.362  1.00  0.00    -0.353 OA
HETATM   21  C12 UNL     1      29.253  -0.701  53.973  1.00  0.00     0.210 C 
ENDBRANCH   7  20
TORSDOF 5
ENDMDL
MODEL 4
REMARK VINA RESULT:      -6.8      2.032      3.498
REMARK  5 active torsions:
REMARK  status: ('A' for Active; 'I' for Inactive)
REMARK    1  A    between atoms: C3_3  and  C4_4 
REMARK    2  A    between atoms: C5_5  and  N1_6 
REMARK    3  A    between atoms: N1_6  and  C7_8 
REMARK    4  A    between atoms: C11_14  and  O1_15 
REMARK    5  A    between atoms: C13_17  and  O2_18 
ROOT
HETATM    1  C7  UNL     1      23.090   0.865  52.917  1.00  0.00     0.143 A 
HETATM    2  N2  UNL     1      22.421  -0.031  53.697  1.00  0.00    -0.223 NA
HETATM    3  C8  UNL     1      23.111  -0.867  54.501  1.00  0.00     0.236 A 
HETATM    4  N3  UNL     1      24.473  -0.860  54.575  1.00  0.00    -0.241 NA
HETATM    5  C9  UNL     1      25.192   0.013  53.819  1.00  0.00     0.075 A 
HETATM    6  C10 UNL     1      26.572   0.036  53.877  1.00  0.00     0.072 A 
HETATM    7  C11 UNL     1      27.290   0.927  53.105  1.00  0.00     0.103 A 
HETATM    8  C13 UNL     1      26.610   1.809  52.260  1.00  0.00     0.102 A 
HETATM    9  C15 UNL     1      25.239   1.725  52.257  1.00  0.00     0.057 A 
HETATM   10  C16 UNL     1      24.467   0.858  53.004  1.00  0.00     0.042 A 
ENDROOT
BRANCH   1  11
HETATM   11  N1  UNL     1      22.430   1.777  52.046  1.00  0.00    -0.345 N 
HETATM   12  C6  UNL     1      21.797   3.075  52.182  1.00  0.00     0.157 C 
BRANCH  11  13
HETATM   13  C5  UNL     1      22.331   1.374  50.686  1.00  0.00     0.092 C 
HETATM   14  C4  UNL     1      21.285   0.705  50.225  1.00  0.00     0.017 C 
BRANCH  14  15
HETATM   15  C3  UNL     1      20.197   0.358  51.099  1.00  0.00    -0.003 C 
HETATM   16  C2  UNL     1      18.930   0.571  50.733  1.00  0.00    -0.031 C 
HETATM   17  C1  UNL     1      17.753   0.240  51.579  1.00  0.00     0.036 C 
ENDBRANCH  14  15
ENDBRANCH  11  13
ENDBRANCH   1  11
BRANCH   8  18
HETATM   18  O2  UNL     1      27.299   2.711  51.475  1.00  0.00    -0.353 OA
HETATM   19  C14 UNL     1      26.606   3.278  50.377  1.00  0.00     0.210 C 
ENDBRANCH   8  18
BRANCH   7  20
HETATM   20  O1  UNL     1      28.676   1.023  53.098  1.00  0.00    -0.353 OA
HETATM   21  C12 UNL     1      29.403   0.036  53.806  1.00  0.00     0.210 C 
ENDBRANCH   7  20
TORSDOF 5
ENDMDL
MODEL 5
REMARK VINA RESULT:      -6.7      2.233      3.175
REMARK  5 active torsions:
REMARK  status: ('A' for Active; 'I' for Inactive)
REMARK    1  A    between atoms: C3_3  and  C4_4 
REMARK    2  A    between atoms: C5_5  and  N1_6 
REMARK    3  A    between atoms: N1_6  and  C7_8 
REMARK    4  A    between atoms: C11_14  and  O1_15 
REMARK    5  A    between atoms: C13_17  and  O2_18 
ROOT
HETATM    1  C7  UNL     1      21.351   0.803  53.245  1.00  0.00     0.143 A 
HETATM    2  N2  UNL     1      20.791  -0.057  54.142  1.00  0.00    -0.223 NA
HETATM    3  C8  UNL     1      21.562  -0.975  54.762  1.00  0.00     0.236 A 
HETATM    4  N3  UNL     1      22.902  -1.089  54.532  1.00  0.00    -0.241 NA
HETATM    5  C9  UNL     1      23.514  -0.256  53.646  1.00  0.00     0.075 A 
HETATM    6  C10 UNL     1      24.869  -0.354  53.397  1.00  0.00     0.072 A 
HETATM    7  C11 UNL     1      25.478   0.497  52.496  1.00  0.00     0.103 A 
HETATM    8  C13 UNL     1      24.711   1.462  51.834  1.00  0.00     0.102 A 
HETATM    9  C15 UNL     1      23.372   1.497  52.135  1.00  0.00     0.057 A 
HETATM   10  C16 UNL     1      22.707   0.675  53.023  1.00  0.00     0.042 A 
ENDROOT
BRANCH   1  11
HETATM   11  N1  UNL     1      20.601   1.797  52.554  1.00  0.00    -0.345 N 
HETATM   12  C6  UNL     1      20.688   3.234  52.381  1.00  0.00     0.157 C 
BRANCH  11  13
HETATM   13  C5  UNL     1      19.468   1.329  51.833  1.00  0.00     0.092 C 
HETATM   14  C4  UNL     1      19.551   0.944  50.569  1.00  0.00     0.017 C 
BRANCH  14  15
HETATM   15  C3  UNL     1      20.808   0.986  49.872  1.00  0.00    -0.003 C 
HETATM   16  C2  UNL     1      20.942   1.687  48.743  1.00  0.00    -0.031 C 
HETATM   17  C1  UNL     1      22.206   1.779  47.966  1.00  0.00     0.036 C 
ENDBRANCH  14  15
ENDBRANCH  11  13
ENDBRANCH   1  11
BRANCH   8  18
HETATM   18  O2  UNL     1      25.291   2.327  50.928  1.00  0.00    -0.353 OA
HETATM   19  C14 UNL     1      24.487   3.386  50.438  1.00  0.00     0.210 C 
ENDBRANCH   8  18
BRANCH   7  20
HETATM   20  O1  UNL     1      26.831   0.474  52.183  1.00  0.00    -0.353 OA
HETATM   21  C12 UNL     1      27.714  -0.070  53.145  1.00  0.00     0.210 C 
ENDBRANCH   7  20
TORSDOF 5
ENDMDL
MODEL 6
REMARK VINA RESULT:      -6.7      2.031      4.210
REMARK  5 active torsions:
REMARK  status: ('A' for Active; 'I' for Inactive)
REMARK    1  A    between atoms: C3_3  and  C4_4 
REMARK    2  A    between atoms: C5_5  and  N1_6 
REMARK    3  A    between atoms: N1_6  and  C7_8 
REMARK    4  A    between atoms: C11_14  and  O1_15 
REMARK    5  A    between atoms: C13_17  and  O2_18 
ROOT
HETATM    1  C7  UNL     1      24.234   2.669  50.779  1.00  0.00     0.143 A 
HETATM    2  N2  UNL     1      24.872   3.485  49.892  1.00  0.00    -0.223 NA
HETATM    3  C8  UNL     1      26.221   3.522  49.865  1.00  0.00     0.236 A 
HETATM    4  N3  UNL     1      26.996   2.768  50.696  1.00  0.00    -0.241 NA
HETATM    5  C9  UNL     1      26.413   1.935  51.602  1.00  0.00     0.075 A 
HETATM    6  C10 UNL     1      27.178   1.163  52.454  1.00  0.00     0.072 A 
HETATM    7  C11 UNL     1      26.575   0.322  53.368  1.00  0.00     0.103 A 
HETATM    8  C13 UNL     1      25.179   0.257  53.426  1.00  0.00     0.102 A 
HETATM    9  C15 UNL     1      24.488   1.054  52.547  1.00  0.00     0.057 A 
HETATM   10  C16 UNL     1      25.033   1.913  51.613  1.00  0.00     0.042 A 
ENDROOT
BRANCH   1  11
HETATM   11  N1  UNL     1      22.817   2.578  50.866  1.00  0.00    -0.345 N 
HETATM   12  C6  UNL     1      21.800   3.018  51.801  1.00  0.00     0.157 C 
BRANCH  11  13
HETATM   13  C5  UNL     1      22.173   1.893  49.798  1.00  0.00     0.092 C 
HETATM   14  C4  UNL     1      21.399   0.840  50.004  1.00  0.00     0.017 C 
BRANCH  14  15
HETATM   15  C3  UNL     1      21.179   0.344  51.336  1.00  0.00    -0.003 C 
HETATM   16  C2  UNL     1      19.943   0.107  51.783  1.00  0.00    -0.031 C 
HETATM   17  C1  UNL     1      19.635  -0.405  53.145  1.00  0.00     0.036 C 
ENDBRANCH  14  15
ENDBRANCH  11  13
ENDBRANCH   1  11
BRANCH   8  18
HETATM   18  O2  UNL     1      24.547  -0.573  54.328  1.00  0.00    -0.353 OA
HETATM   19  C14 UNL     1      23.155  -0.782  54.153  1.00  0.00     0.210 C 
ENDBRANCH   8  18
BRANCH   7  20
HETATM   20  O1  UNL     1      27.261  -0.490  54.262  1.00  0.00    -0.353 OA
HETATM   21  C12 UNL     1      28.406   0.054  54.892  1.00  0.00     0.210 C 
ENDBRANCH   7  20
TORSDOF 5
ENDMDL
MODEL 7
REMARK VINA RESULT:      -6.6      2.963      5.664
REMARK  5 active torsions:
REMARK  status: ('A' for Active; 'I' for Inactive)
REMARK    1  A    between atoms: C3_3  and  C4_4 
REMARK    2  A    between atoms: C5_5  and  N1_6 
REMARK    3  A    between atoms: N1_6  and  C7_8 
REMARK    4  A    between atoms: C11_14  and  O1_15 
REMARK    5  A    between atoms: C13_17  and  O2_18 
ROOT
HETATM    1  C7  UNL     1      24.127   0.650  53.147  1.00  0.00     0.143 A 
HETATM    2  N2  UNL     1      24.009  -0.581  53.721  1.00  0.00    -0.223 NA
HETATM    3  C8  UNL     1      22.788  -1.059  54.039  1.00  0.00     0.236 A 
HETATM    4  N3  UNL     1      21.640  -0.358  53.809  1.00  0.00    -0.241 NA
HETATM    5  C9  UNL     1      21.698   0.876  53.238  1.00  0.00     0.075 A 
HETATM    6  C10 UNL     1      20.548   1.604  52.998  1.00  0.00     0.072 A 
HETATM    7  C11 UNL     1      20.620   2.854  52.418  1.00  0.00     0.103 A 
HETATM    8  C13 UNL     1      21.869   3.383  52.074  1.00  0.00     0.102 A 
HETATM    9  C15 UNL     1      22.965   2.600  52.345  1.00  0.00     0.057 A 
HETATM   10  C16 UNL     1      22.956   1.346  52.921  1.00  0.00     0.042 A 
ENDROOT
BRANCH   1  11
HETATM   11  N1  UNL     1      25.381   1.218  52.784  1.00  0.00    -0.345 N 
HETATM   12  C6  UNL     1      26.122   1.404  51.552  1.00  0.00     0.157 C 
BRANCH  11  13
HETATM   13  C5  UNL     1      26.150   1.755  53.853  1.00  0.00     0.092 C 
HETATM   14  C4  UNL     1      27.163   1.094  54.391  1.00  0.00     0.017 C 
BRANCH  14  15
HETATM   15  C3  UNL     1      27.524  -0.211  53.906  1.00  0.00    -0.003 C 
HETATM   16  C2  UNL     1      28.805  -0.541  53.716  1.00  0.00    -0.031 C 
HETATM   17  C1  UNL     1      29.256  -1.867  53.217  1.00  0.00     0.036 C 
ENDBRANCH  14  15
ENDBRANCH  11  13
ENDBRANCH   1  11
BRANCH   8  18
HETATM   18  O2  UNL     1      21.974   4.630  51.493  1.00  0.00    -0.353 OA
HETATM   19  C14 UNL     1      23.063   5.444  51.896  1.00  0.00     0.210 C 
ENDBRANCH   8  18
BRANCH   7  20
HETATM   20  O1  UNL     1      19.522   3.657  52.138  1.00  0.00    -0.353 OA
HETATM   21  C12 UNL     1      18.460   3.076  51.403  1.00  0.00     0.210 C 
ENDBRANCH   7  20
TORSDOF 5
ENDMDL
MODEL 8
REMARK VINA RESULT:      -6.4      2.007      3.597
REMARK  5 active torsions:
REMARK  status: ('A' for Active; 'I' for Inactive)
REMARK    1  A    between atoms: C3_3  and  C4_4 
REMARK    2  A    between atoms: C5_5  and  N1_6 
REMARK    3  A    between atoms: N1_6  and  C7_8 
REMARK    4  A    between atoms: C11_14  and  O1_15 
REMARK    5  A    between atoms: C13_17  and  O2_18 
ROOT
HETATM    1  C7  UNL     1      24.191   2.463  50.902  1.00  0.00     0.143 A 
HETATM    2  N2  UNL     1      24.768   3.374  50.066  1.00  0.00    -0.223 NA
HETATM    3  C8  UNL     1      26.103   3.562  50.098  1.00  0.00     0.236 A 
HETATM    4  N3  UNL     1      26.925   2.872  50.941  1.00  0.00    -0.241 NA
HETATM    5  C9  UNL     1      26.404   1.951  51.797  1.00  0.00     0.075 A 
HETATM    6  C10 UNL     1      27.217   1.242  52.659  1.00  0.00     0.072 A 
HETATM    7  C11 UNL     1      26.677   0.309  53.522  1.00  0.00     0.103 A 
HETATM    8  C13 UNL     1      25.296   0.087  53.518  1.00  0.00     0.102 A 
HETATM    9  C15 UNL     1      24.555   0.830  52.633  1.00  0.00     0.057 A 
HETATM   10  C16 UNL     1      25.036   1.774  51.748  1.00  0.00     0.042 A 
ENDROOT
BRANCH   1  11
HETATM   11  N1  UNL     1      22.791   2.212  50.924  1.00  0.00    -0.345 N 
HETATM   12  C6  UNL     1      21.833   1.573  50.041  1.00  0.00     0.157 C 
BRANCH  11  13
HETATM   13  C5  UNL     1      22.095   2.678  52.073  1.00  0.00     0.092 C 
HETATM   14  C4  UNL     1      21.577   3.895  52.134  1.00  0.00     0.017 C 
BRANCH  14  15
HETATM   15  C3  UNL     1      21.704   4.800  51.024  1.00  0.00    -0.003 C 
HETATM   16  C2  UNL     1      22.297   5.988  51.173  1.00  0.00    -0.031 C 
HETATM   17  C1  UNL     1      22.466   6.977  50.076  1.00  0.00     0.036 C 
ENDBRANCH  14  15
ENDBRANCH  11  13
ENDBRANCH   1  11
BRANCH   8  18
HETATM   18  O2  UNL     1      24.726  -0.838  54.369  1.00  0.00    -0.353 OA
HETATM   19  C14 UNL     1      23.310  -0.896  54.409  1.00  0.00     0.210 C 
ENDBRANCH   8  18
BRANCH   7  20
HETATM   20  O1  UNL     1      27.413  -0.450  54.422  1.00  0.00    -0.353 OA
HETATM   21  C12 UNL     1      28.694   0.030  54.786  1.00  0.00     0.210 C 
ENDBRANCH   7  20
TORSDOF 5
ENDMDL
MODEL 9
REMARK VINA RESULT:      -6.4      2.927      4.444
REMARK  5 active torsions:
REMARK  status: ('A' for Active; 'I' for Inactive)
REMARK    1  A    between atoms: C3_3  and  C4_4 
REMARK    2  A    between atoms: C5_5  and  N1_6 
REMARK    3  A    between atoms: N1_6  and  C7_8 
REMARK    4  A    between atoms: C11_14  and  O1_15 
REMARK    5  A    between atoms: C13_17  and  O2_18 
ROOT
HETATM    1  C7  UNL     1      24.809   3.040  51.493  1.00  0.00     0.143 A 
HETATM    2  N2  UNL     1      26.110   2.673  51.317  1.00  0.00    -0.223 NA
HETATM    3  C8  UNL     1      26.519   1.446  51.701  1.00  0.00     0.236 A 
HETATM    4  N3  UNL     1      25.678   0.534  52.269  1.00  0.00    -0.241 NA
HETATM    5  C9  UNL     1      24.369   0.846  52.469  1.00  0.00     0.075 A 
HETATM    6  C10 UNL     1      23.501  -0.062  53.042  1.00  0.00     0.072 A 
HETATM    7  C11 UNL     1      22.174   0.266  53.240  1.00  0.00     0.103 A 
HETATM    8  C13 UNL     1      21.713   1.529  52.854  1.00  0.00     0.102 A 
HETATM    9  C15 UNL     1      22.636   2.376  52.291  1.00  0.00     0.057 A 
HETATM   10  C16 UNL     1      23.972   2.106  52.068  1.00  0.00     0.042 A 
ENDROOT
BRANCH   1  11
HETATM   11  N1  UNL     1      24.306   4.316  51.112  1.00  0.00    -0.345 N 
HETATM   12  C6  UNL     1      23.541   5.368  51.753  1.00  0.00     0.157 C 
BRANCH  11  13
HETATM   13  C5  UNL     1      24.590   4.722  49.778  1.00  0.00     0.092 C 
HETATM   14  C4  UNL     1      23.831   4.356  48.757  1.00  0.00     0.017 C 
BRANCH  14  15
HETATM   15  C3  UNL     1      22.678   3.522  48.964  1.00  0.00    -0.003 C 
HETATM   16  C2  UNL     1      22.631   2.283  48.469  1.00  0.00    -0.031 C 
HETATM   17  C1  UNL     1      21.475   1.363  48.640  1.00  0.00     0.036 C 
ENDBRANCH  14  15
ENDBRANCH  11  13
ENDBRANCH   1  11
BRANCH   8  18
HETATM   18  O2  UNL     1      20.394   1.888  53.038  1.00  0.00    -0.353 OA
HETATM   19  C14 UNL     1      19.588   2.014  51.878  1.00  0.00     0.210 C 
ENDBRANCH   8  18
BRANCH   7  20
HETATM   20  O1  UNL     1      21.230  -0.579  53.807  1.00  0.00    -0.353 OA
HETATM   21  C12 UNL     1      21.705  -1.729  54.482  1.00  0.00     0.210 C 
ENDBRANCH   7  20
TORSDOF 5
ENDMDL
