MODEL 1
REMARK VINA RESULT:      -7.1      0.000      0.000
REMARK  3 active torsions:
REMARK  status: ('A' for Active; 'I' for Inactive)
REMARK    1  A    between atoms: C2_2  and  N1_3 
REMARK    2  A    between atoms: N1_3  and  C3_4 
REMARK    3  A    between atoms: C7_8  and  N2_9 
ROOT
HETATM    1  N2  UNL     1      24.931   0.376  53.301  1.00  0.00    -0.194 NA
HETATM    2  C8  UNL     1      25.333  -0.926  52.807  1.00  0.00     0.263 C 
HETATM    3  N3  UNL     1      26.647  -1.365  53.115  1.00  0.00    -0.280 NA
HETATM    4  C9  UNL     1      27.452  -0.753  53.880  1.00  0.00     0.031 C 
HETATM    5  C10 UNL     1      28.901  -0.550  53.836  1.00  0.00     0.084 C 
HETATM    6  C11 UNL     1      29.288   0.887  53.865  1.00  0.00    -0.002 C 
HETATM    7  C12 UNL     1      28.908   2.183  53.816  1.00  0.00     0.115 C 
HETATM    8  N4  UNL     1      27.584   2.718  54.087  1.00  0.00    -0.247 NA
HETATM    9  C13 UNL     1      26.392   2.245  53.795  1.00  0.00     0.112 C 
HETATM   10  C14 UNL     1      25.233   2.907  53.143  1.00  0.00     0.092 C 
HETATM   11  N5  UNL     1      25.964   0.912  54.031  1.00  0.00    -0.290 N 
HETATM   12  C15 UNL     1      26.501  -0.159  54.928  1.00  0.00     0.199 C 
ENDROOT
BRANCH   1  13
HETATM   13  C7  UNL     1      23.621   0.401  53.814  1.00  0.00     0.154 A 
HETATM   14  C3  UNL     1      22.710   0.551  52.607  1.00  0.00     0.028 A 
HETATM   15  C4  UNL     1      21.847  -0.463  52.545  1.00  0.00     0.026 A 
HETATM   16  C5  UNL     1      22.105  -1.351  53.683  1.00  0.00     0.000 A 
HETATM   17  C6  UNL     1      23.122  -0.862  54.418  1.00  0.00     0.001 A 
BRANCH  14  18
HETATM   18  N1  UNL     1      22.779   1.636  51.668  1.00  0.00    -0.392 N 
HETATM   19  H6  UNL     1      23.047   2.510  52.213  1.00  0.00     0.159 HD
BRANCH  18  20
HETATM   20  C2  UNL     1      22.543   1.616  50.260  1.00  0.00     0.115 C 
HETATM   21  C1  UNL     1      23.234   2.735  49.516  1.00  0.00     0.026 C 
ENDBRANCH  18  20
ENDBRANCH  14  18
ENDBRANCH   1  13
TORSDOF 3
ENDMDL
MODEL 2
REMARK VINA RESULT:      -7.0      1.457      3.508
REMARK  3 active torsions:
REMARK  status: ('A' for Active; 'I' for Inactive)
REMARK    1  A    between atoms: C2_2  and  N1_3 
REMARK    2  A    between atoms: N1_3  and  C3_4 
REMARK    3  A    between atoms: C7_8  and  N2_9 
ROOT
HETATM    1  N2  UNL     1      25.535   0.780  53.111  1.00  0.00    -0.194 NA
HETATM    2  C8  UNL     1      25.621   1.976  53.924  1.00  0.00     0.263 C 
HETATM    3  N3  UNL     1      26.917   2.483  54.207  1.00  0.00    -0.280 NA
HETATM    4  C9  UNL     1      27.992   2.033  53.709  1.00  0.00     0.031 C 
HETATM    5  C10 UNL     1      29.336   1.846  54.259  1.00  0.00     0.084 C 
HETATM    6  C11 UNL     1      29.823   0.445  54.142  1.00  0.00    -0.002 C 
HETATM    7  C12 UNL     1      29.559  -0.844  53.832  1.00  0.00     0.115 C 
HETATM    8  N4  UNL     1      28.474  -1.340  53.002  1.00  0.00    -0.247 NA
HETATM    9  C13 UNL     1      27.223  -0.946  52.900  1.00  0.00     0.112 C 
HETATM   10  C14 UNL     1      25.964  -1.733  52.953  1.00  0.00     0.092 C 
HETATM   11  N5  UNL     1      26.803   0.402  52.742  1.00  0.00    -0.290 N 
HETATM   12  C15 UNL     1      27.542   1.626  52.300  1.00  0.00     0.199 C 
ENDROOT
BRANCH   1  13
HETATM   13  C7  UNL     1      24.510   0.830  52.148  1.00  0.00     0.154 A 
HETATM   14  C3  UNL     1      23.214   0.641  52.918  1.00  0.00     0.028 A 
HETATM   15  C4  UNL     1      22.400   1.679  52.724  1.00  0.00     0.026 A 
HETATM   16  C5  UNL     1      23.072   2.623  51.824  1.00  0.00     0.000 A 
HETATM   17  C6  UNL     1      24.284   2.142  51.487  1.00  0.00     0.001 A 
BRANCH  14  18
HETATM   18  N1  UNL     1      22.917  -0.499  53.740  1.00  0.00    -0.392 N 
HETATM   19  H6  UNL     1      23.655  -1.238  53.535  1.00  0.00     0.159 HD
BRANCH  18  20
HETATM   20  C2  UNL     1      21.852  -0.673  54.675  1.00  0.00     0.115 C 
HETATM   21  C1  UNL     1      20.791  -1.642  54.208  1.00  0.00     0.026 C 
ENDBRANCH  18  20
ENDBRANCH  14  18
ENDBRANCH   1  13
TORSDOF 3
ENDMDL
MODEL 3
REMARK VINA RESULT:      -6.7      3.044      5.552
REMARK  3 active torsions:
REMARK  status: ('A' for Active; 'I' for Inactive)
REMARK    1  A    between atoms: C2_2  and  N1_3 
REMARK    2  A    between atoms: N1_3  and  C3_4 
REMARK    3  A    between atoms: C7_8  and  N2_9 
ROOT
HETATM    1  N2  UNL     1      24.447   3.080  51.503  1.00  0.00    -0.194 NA
HETATM    2  C8  UNL     1      23.808   3.718  52.635  1.00  0.00     0.263 C 
HETATM    3  N3  UNL     1      23.465   5.090  52.505  1.00  0.00    -0.280 NA
HETATM    4  C9  UNL     1      23.574   5.763  51.437  1.00  0.00     0.031 C 
HETATM    5  C10 UNL     1      23.964   7.150  51.175  1.00  0.00     0.084 C 
HETATM    6  C11 UNL     1      25.108   7.264  50.230  1.00  0.00    -0.002 C 
HETATM    7  C12 UNL     1      26.083   6.651  49.523  1.00  0.00     0.115 C 
HETATM    8  N4  UNL     1      26.140   5.250  49.143  1.00  0.00    -0.247 NA
HETATM    9  C13 UNL     1      25.788   4.167  49.802  1.00  0.00     0.112 C 
HETATM   10  C14 UNL     1      26.538   2.909  50.046  1.00  0.00     0.092 C 
HETATM   11  N5  UNL     1      24.553   3.991  50.480  1.00  0.00    -0.290 N 
HETATM   12  C15 UNL     1      23.246   4.713  50.367  1.00  0.00     0.199 C 
ENDROOT
BRANCH   1  13
HETATM   13  C7  UNL     1      23.962   1.785  51.241  1.00  0.00     0.154 A 
HETATM   14  C3  UNL     1      24.467   0.919  52.383  1.00  0.00     0.028 A 
HETATM   15  C4  UNL     1      23.446   0.344  53.020  1.00  0.00     0.026 A 
HETATM   16  C5  UNL     1      22.204   0.769  52.364  1.00  0.00     0.000 A 
HETATM   17  C6  UNL     1      22.491   1.596  51.341  1.00  0.00     0.001 A 
BRANCH  14  18
HETATM   18  N1  UNL     1      25.852   0.751  52.724  1.00  0.00    -0.392 N 
HETATM   19  H6  UNL     1      26.062   1.413  53.530  1.00  0.00     0.159 HD
BRANCH  18  20
HETATM   20  C2  UNL     1      26.818  -0.118  52.133  1.00  0.00     0.115 C 
HETATM   21  C1  UNL     1      26.760  -1.533  52.661  1.00  0.00     0.026 C 
ENDBRANCH  18  20
ENDBRANCH  14  18
ENDBRANCH   1  13
TORSDOF 3
ENDMDL
MODEL 4
REMARK VINA RESULT:      -6.4      2.312      6.620
REMARK  3 active torsions:
REMARK  status: ('A' for Active; 'I' for Inactive)
REMARK    1  A    between atoms: C2_2  and  N1_3 
REMARK    2  A    between atoms: N1_3  and  C3_4 
REMARK    3  A    between atoms: C7_8  and  N2_9 
ROOT
HETATM    1  N2  UNL     1      22.409   0.878  52.319  1.00  0.00    -0.194 NA
HETATM    2  C8  UNL     1      22.293   1.100  50.891  1.00  0.00     0.263 C 
HETATM    3  N3  UNL     1      20.985   1.148  50.341  1.00  0.00    -0.280 NA
HETATM    4  C9  UNL     1      19.915   1.124  51.021  1.00  0.00     0.031 C 
HETATM    5  C10 UNL     1      18.610   0.500  50.792  1.00  0.00     0.084 C 
HETATM    6  C11 UNL     1      18.199  -0.410  51.895  1.00  0.00    -0.002 C 
HETATM    7  C12 UNL     1      18.521  -1.048  53.042  1.00  0.00     0.115 C 
HETATM    8  N4  UNL     1      19.593  -0.707  53.962  1.00  0.00    -0.247 NA
HETATM    9  C13 UNL     1      20.813  -0.273  53.734  1.00  0.00     0.112 C 
HETATM   10  C14 UNL     1      22.116  -0.759  54.257  1.00  0.00     0.092 C 
HETATM   11  N5  UNL     1      21.149   0.795  52.859  1.00  0.00    -0.290 N 
HETATM   12  C15 UNL     1      20.322   1.900  52.280  1.00  0.00     0.199 C 
ENDROOT
BRANCH   1  13
HETATM   13  C7  UNL     1      23.385   1.684  52.934  1.00  0.00     0.154 A 
HETATM   14  C3  UNL     1      24.723   1.126  52.482  1.00  0.00     0.028 A 
HETATM   15  C4  UNL     1      25.436   2.067  51.862  1.00  0.00     0.026 A 
HETATM   16  C5  UNL     1      24.648   3.305  51.855  1.00  0.00     0.000 A 
HETATM   17  C6  UNL     1      23.468   3.093  52.469  1.00  0.00     0.001 A 
BRANCH  14  18
HETATM   18  N1  UNL     1      25.151  -0.229  52.694  1.00  0.00    -0.392 N 
HETATM   19  H6  UNL     1      24.602  -0.843  52.021  1.00  0.00     0.159 HD
BRANCH  18  20
HETATM   20  C2  UNL     1      26.123  -0.725  53.615  1.00  0.00     0.115 C 
HETATM   21  C1  UNL     1      26.237   0.101  54.875  1.00  0.00     0.026 C 
ENDBRANCH  18  20
ENDBRANCH  14  18
ENDBRANCH   1  13
TORSDOF 3
ENDMDL
MODEL 5
REMARK VINA RESULT:      -6.3      2.440      4.441
REMARK  3 active torsions:
REMARK  status: ('A' for Active; 'I' for Inactive)
REMARK    1  A    between atoms: C2_2  and  N1_3 
REMARK    2  A    between atoms: N1_3  and  C3_4 
REMARK    3  A    between atoms: C7_8  and  N2_9 
ROOT
HETATM    1  N2  UNL     1      23.942   3.233  51.005  1.00  0.00    -0.194 NA
HETATM    2  C8  UNL     1      22.750   2.492  51.360  1.00  0.00     0.263 C 
HETATM    3  N3  UNL     1      22.886   1.456  52.322  1.00  0.00    -0.280 NA
HETATM    4  C9  UNL     1      23.946   1.209  52.971  1.00  0.00     0.031 C 
HETATM    5  C10 UNL     1      24.569  -0.040  53.412  1.00  0.00     0.084 C 
HETATM    6  C11 UNL     1      25.970  -0.191  52.933  1.00  0.00    -0.002 C 
HETATM    7  C12 UNL     1      26.977   0.265  52.156  1.00  0.00     0.115 C 
HETATM    8  N4  UNL     1      27.124   1.603  51.609  1.00  0.00    -0.247 NA
HETATM    9  C13 UNL     1      26.227   2.434  51.123  1.00  0.00     0.112 C 
HETATM   10  C14 UNL     1      26.218   3.192  49.846  1.00  0.00     0.092 C 
HETATM   11  N5  UNL     1      24.996   2.764  51.750  1.00  0.00    -0.290 N 
HETATM   12  C15 UNL     1      24.532   2.614  53.165  1.00  0.00     0.199 C 
ENDROOT
BRANCH   1  13
HETATM   13  C7  UNL     1      23.727   4.619  50.889  1.00  0.00     0.154 A 
HETATM   14  C3  UNL     1      22.812   4.794  49.689  1.00  0.00     0.028 A 
HETATM   15  C4  UNL     1      21.692   5.424  50.044  1.00  0.00     0.026 A 
HETATM   16  C5  UNL     1      21.770   5.718  51.480  1.00  0.00     0.000 A 
HETATM   17  C6  UNL     1      22.936   5.259  51.972  1.00  0.00     0.001 A 
BRANCH  14  18
HETATM   18  N1  UNL     1      23.118   4.338  48.362  1.00  0.00    -0.392 N 
HETATM   19  H6  UNL     1      24.089   4.700  48.119  1.00  0.00     0.159 HD
BRANCH  18  20
HETATM   20  C2  UNL     1      22.318   3.549  47.481  1.00  0.00     0.115 C 
HETATM   21  C1  UNL     1      22.471   2.062  47.696  1.00  0.00     0.026 C 
ENDBRANCH  18  20
ENDBRANCH  14  18
ENDBRANCH   1  13
TORSDOF 3
ENDMDL
MODEL 6
REMARK VINA RESULT:      -6.3      2.044      4.274
REMARK  3 active torsions:
REMARK  status: ('A' for Active; 'I' for Inactive)
REMARK    1  A    between atoms: C2_2  and  N1_3 
REMARK    2  A    between atoms: N1_3  and  C3_4 
REMARK    3  A    between atoms: C7_8  and  N2_9 
ROOT
HETATM    1  N2  UNL     1      22.482   0.857  52.512  1.00  0.00    -0.194 NA
HETATM    2  C8  UNL     1      22.547   2.304  52.480  1.00  0.00     0.263 C 
HETATM    3  N3  UNL     1      23.814   2.907  52.702  1.00  0.00    -0.280 NA
HETATM    4  C9  UNL     1      24.905   2.272  52.814  1.00  0.00     0.031 C 
HETATM    5  C10 UNL     1      26.086   2.472  53.657  1.00  0.00     0.084 C 
HETATM    6  C11 UNL     1      26.418   1.280  54.483  1.00  0.00    -0.002 C 
HETATM    7  C12 UNL     1      26.071   0.051  54.924  1.00  0.00     0.115 C 
HETATM    8  N4  UNL     1      25.117  -0.861  54.314  1.00  0.00    -0.247 NA
HETATM    9  C13 UNL     1      23.965  -0.627  53.724  1.00  0.00     0.112 C 
HETATM   10  C14 UNL     1      22.637  -1.258  53.935  1.00  0.00     0.092 C 
HETATM   11  N5  UNL     1      23.744   0.360  52.727  1.00  0.00    -0.290 N 
HETATM   12  C15 UNL     1      24.693   1.104  51.841  1.00  0.00     0.199 C 
ENDROOT
BRANCH   1  13
HETATM   13  C7  UNL     1      21.676   0.310  51.496  1.00  0.00     0.154 A 
HETATM   14  C3  UNL     1      20.243   0.610  51.902  1.00  0.00     0.028 A 
HETATM   15  C4  UNL     1      19.627   1.317  50.954  1.00  0.00     0.026 A 
HETATM   16  C5  UNL     1      20.579   1.537  49.859  1.00  0.00     0.000 A 
HETATM   17  C6  UNL     1      21.758   0.961  50.162  1.00  0.00     0.001 A 
BRANCH  14  18
HETATM   18  N1  UNL     1      19.645   0.189  53.139  1.00  0.00    -0.392 N 
HETATM   19  H6  UNL     1      19.737   0.997  53.826  1.00  0.00     0.159 HD
BRANCH  18  20
HETATM   20  C2  UNL     1      19.029  -1.059  53.453  1.00  0.00     0.115 C 
HETATM   21  C1  UNL     1      17.575  -1.134  53.048  1.00  0.00     0.026 C 
ENDBRANCH  18  20
ENDBRANCH  14  18
ENDBRANCH   1  13
TORSDOF 3
ENDMDL
MODEL 7
REMARK VINA RESULT:      -6.2      5.714      7.974
REMARK  3 active torsions:
REMARK  status: ('A' for Active; 'I' for Inactive)
REMARK    1  A    between atoms: C2_2  and  N1_3 
REMARK    2  A    between atoms: N1_3  and  C3_4 
REMARK    3  A    between atoms: C7_8  and  N2_9 
ROOT
HETATM    1  N2  UNL     1      25.961   6.714  49.647  1.00  0.00    -0.194 NA
HETATM    2  C8  UNL     1      26.228   8.025  50.205  1.00  0.00     0.263 C 
HETATM    3  N3  UNL     1      27.378   8.713  49.735  1.00  0.00    -0.280 NA
HETATM    4  C9  UNL     1      28.120   8.316  48.788  1.00  0.00     0.031 C 
HETATM    5  C10 UNL     1      29.567   8.372  48.572  1.00  0.00     0.084 C 
HETATM    6  C11 UNL     1      30.170   7.034  48.326  1.00  0.00    -0.002 C 
HETATM    7  C12 UNL     1      30.020   5.691  48.297  1.00  0.00     0.115 C 
HETATM    8  N4  UNL     1      28.774   4.951  48.191  1.00  0.00    -0.247 NA
HETATM    9  C13 UNL     1      27.593   5.180  48.723  1.00  0.00     0.112 C 
HETATM   10  C14 UNL     1      26.693   4.273  49.480  1.00  0.00     0.092 C 
HETATM   11  N5  UNL     1      26.918   6.429  48.704  1.00  0.00    -0.290 N 
HETATM   12  C15 UNL     1      27.105   7.645  47.852  1.00  0.00     0.199 C 
ENDROOT
BRANCH   1  13
HETATM   13  C7  UNL     1      24.602   6.496  49.356  1.00  0.00     0.154 A 
HETATM   14  C3  UNL     1      23.893   6.469  50.699  1.00  0.00     0.028 A 
HETATM   15  C4  UNL     1      22.943   7.404  50.745  1.00  0.00     0.026 A 
HETATM   16  C5  UNL     1      22.940   8.113  49.460  1.00  0.00     0.000 A 
HETATM   17  C6  UNL     1      23.889   7.597  48.656  1.00  0.00     0.001 A 
BRANCH  14  18
HETATM   18  N1  UNL     1      24.210   5.561  51.766  1.00  0.00    -0.392 N 
HETATM   19  H6  UNL     1      25.266   5.580  51.895  1.00  0.00     0.159 HD
BRANCH  18  20
HETATM   20  C2  UNL     1      23.326   4.757  52.547  1.00  0.00     0.115 C 
HETATM   21  C1  UNL     1      23.698   3.292  52.563  1.00  0.00     0.026 C 
ENDBRANCH  18  20
ENDBRANCH  14  18
ENDBRANCH   1  13
TORSDOF 3
ENDMDL
MODEL 8
REMARK VINA RESULT:      -6.2      9.367     11.309
REMARK  3 active torsions:
REMARK  status: ('A' for Active; 'I' for Inactive)
REMARK    1  A    between atoms: C2_2  and  N1_3 
REMARK    2  A    between atoms: N1_3  and  C3_4 
REMARK    3  A    between atoms: C7_8  and  N2_9 
ROOT
HETATM    1  N2  UNL     1      31.988   7.364  48.053  1.00  0.00    -0.194 NA
HETATM    2  C8  UNL     1      33.161   7.785  48.793  1.00  0.00     0.263 C 
HETATM    3  N3  UNL     1      34.322   6.974  48.693  1.00  0.00    -0.280 NA
HETATM    4  C9  UNL     1      34.442   5.977  47.920  1.00  0.00     0.031 C 
HETATM    5  C10 UNL     1      35.101   4.678  48.073  1.00  0.00     0.084 C 
HETATM    6  C11 UNL     1      34.182   3.530  47.844  1.00  0.00    -0.002 C 
HETATM    7  C12 UNL     1      32.923   3.086  47.640  1.00  0.00     0.115 C 
HETATM    8  N4  UNL     1      31.790   3.858  47.155  1.00  0.00    -0.247 NA
HETATM    9  C13 UNL     1      31.429   5.098  47.403  1.00  0.00     0.112 C 
HETATM   10  C14 UNL     1      30.113   5.647  47.818  1.00  0.00     0.092 C 
HETATM   11  N5  UNL     1      32.292   6.225  47.349  1.00  0.00    -0.290 N 
HETATM   12  C15 UNL     1      33.626   6.423  46.700  1.00  0.00     0.199 C 
ENDROOT
BRANCH   1  13
HETATM   13  C7  UNL     1      31.317   8.425  47.417  1.00  0.00     0.154 A 
HETATM   14  C3  UNL     1      30.586   9.170  48.520  1.00  0.00     0.028 A 
HETATM   15  C4  UNL     1      30.971  10.446  48.556  1.00  0.00     0.026 A 
HETATM   16  C5  UNL     1      31.965  10.652  47.497  1.00  0.00     0.000 A 
HETATM   17  C6  UNL     1      32.169   9.495  46.837  1.00  0.00     0.001 A 
BRANCH  14  18
HETATM   18  N1  UNL     1      29.620   8.574  49.401  1.00  0.00    -0.392 N 
HETATM   19  H6  UNL     1      30.151   8.180  50.234  1.00  0.00     0.159 HD
BRANCH  18  20
HETATM   20  C2  UNL     1      28.203   8.490  49.246  1.00  0.00     0.115 C 
HETATM   21  C1  UNL     1      27.436   9.312  50.256  1.00  0.00     0.026 C 
ENDBRANCH  18  20
ENDBRANCH  14  18
ENDBRANCH   1  13
TORSDOF 3
ENDMDL
MODEL 9
REMARK VINA RESULT:      -6.1      7.867     10.126
REMARK  3 active torsions:
REMARK  status: ('A' for Active; 'I' for Inactive)
REMARK    1  A    between atoms: C2_2  and  N1_3 
REMARK    2  A    between atoms: N1_3  and  C3_4 
REMARK    3  A    between atoms: C7_8  and  N2_9 
ROOT
HETATM    1  N2  UNL     1      29.709   7.804  48.551  1.00  0.00    -0.194 NA
HETATM    2  C8  UNL     1      30.572   8.713  49.278  1.00  0.00     0.263 C 
HETATM    3  N3  UNL     1      31.974   8.523  49.156  1.00  0.00    -0.280 NA
HETATM    4  C9  UNL     1      32.524   7.691  48.373  1.00  0.00     0.031 C 
HETATM    5  C10 UNL     1      33.705   6.837  48.507  1.00  0.00     0.084 C 
HETATM    6  C11 UNL     1      33.410   5.396  48.281  1.00  0.00    -0.002 C 
HETATM    7  C12 UNL     1      32.489   4.426  48.090  1.00  0.00     0.115 C 
HETATM    8  N4  UNL     1      31.121   4.595  47.627  1.00  0.00    -0.247 NA
HETATM    9  C13 UNL     1      30.237   5.533  47.889  1.00  0.00     0.112 C 
HETATM   10  C14 UNL     1      28.822   5.419  48.327  1.00  0.00     0.092 C 
HETATM   11  N5  UNL     1      30.489   6.930  47.833  1.00  0.00    -0.290 N 
HETATM   12  C15 UNL     1      31.575   7.717  47.168  1.00  0.00     0.199 C 
ENDROOT
BRANCH   1  13
HETATM   13  C7  UNL     1      28.618   8.441  47.932  1.00  0.00     0.154 A 
HETATM   14  C3  UNL     1      27.655   8.789  49.054  1.00  0.00     0.028 A 
HETATM   15  C4  UNL     1      27.423  10.102  49.081  1.00  0.00     0.026 A 
HETATM   16  C5  UNL     1      28.194  10.722  47.998  1.00  0.00     0.000 A 
HETATM   17  C6  UNL     1      28.883   9.775  47.333  1.00  0.00     0.001 A 
BRANCH  14  18
HETATM   18  N1  UNL     1      27.082   7.830  49.958  1.00  0.00    -0.392 N 
HETATM   19  H6  UNL     1      27.824   7.595  50.683  1.00  0.00     0.159 HD
BRANCH  18  20
HETATM   20  C2  UNL     1      25.773   7.261  49.943  1.00  0.00     0.115 C 
HETATM   21  C1  UNL     1      25.362   6.726  48.591  1.00  0.00     0.026 C 
ENDBRANCH  18  20
ENDBRANCH  14  18
ENDBRANCH   1  13
TORSDOF 3
ENDMDL
