MODEL 1
REMARK VINA RESULT:      -9.7      0.000      0.000
REMARK  6 active torsions:
REMARK  status: ('A' for Active; 'I' for Inactive)
REMARK    1  A    between atoms: O1_2  and  C2_3 
REMARK    2  A    between atoms: C2_3  and  C3_5 
REMARK    3  A    between atoms: C4_6  and  O3_7 
REMARK    4  A    between atoms: O3_7  and  C5_8 
REMARK    5  A    between atoms: C5_8  and  C6_9 
REMARK    6  A    between atoms: C6_9  and  N1_10 
ROOT
HETATM    1  C3  UNL     1      24.004   2.110  51.665  1.00  0.00     0.087 A 
HETATM    2  C4  UNL     1      25.341   2.511  51.712  1.00  0.00     0.097 A 
HETATM    3  C9  UNL     1      26.215   1.889  52.610  1.00  0.00     0.011 A 
HETATM    4  C10 UNL     1      27.550   2.211  52.737  1.00  0.00     0.015 A 
HETATM    5  C11 UNL     1      28.405   1.598  53.624  1.00  0.00     0.001 A 
HETATM    6  C12 UNL     1      27.921   0.600  54.442  1.00  0.00     0.001 A 
HETATM    7  C13 UNL     1      26.594   0.233  54.363  1.00  0.00     0.015 A 
HETATM    8  C14 UNL     1      25.761   0.881  53.450  1.00  0.00     0.012 A 
HETATM    9  C15 UNL     1      24.451   0.502  53.391  1.00  0.00     0.100 A 
HETATM   10  O4  UNL     1      23.788  -0.392  54.050  1.00  0.00    -0.304 OA
HETATM   11  C16 UNL     1      22.539  -0.403  53.648  1.00  0.00     0.142 A 
HETATM   12  C17 UNL     1      22.373   0.553  52.656  1.00  0.00     0.067 A 
HETATM   13  C18 UNL     1      23.587   1.125  52.495  1.00  0.00     0.035 A 
HETATM   14  C19 UNL     1      21.108   0.779  52.017  1.00  0.00     0.197 A 
HETATM   15  O5  UNL     1      20.827   1.587  51.131  1.00  0.00    -0.286 OA
HETATM   16  C20 UNL     1      19.973  -0.033  52.440  1.00  0.00     0.025 A 
HETATM   17  C21 UNL     1      18.730   0.013  51.989  1.00  0.00    -0.010 A 
HETATM   18  C22 UNL     1      17.504  -0.741  52.326  1.00  0.00     0.032 A 
HETATM   19  C23 UNL     1      17.689  -1.775  53.397  1.00  0.00     0.032 A 
HETATM   20  C24 UNL     1      19.084  -1.771  53.853  1.00  0.00    -0.010 A 
HETATM   21  C25 UNL     1      20.135  -1.053  53.496  1.00  0.00     0.027 A 
HETATM   22  C26 UNL     1      21.442  -1.239  54.109  1.00  0.00     0.217 A 
HETATM   23  O6  UNL     1      21.624  -2.097  55.010  1.00  0.00    -0.284 OA
ENDROOT
BRANCH   2  24
HETATM   24  O3  UNL     1      25.977   3.490  50.960  1.00  0.00    -0.347 OA
BRANCH  24  25
HETATM   25  C5  UNL     1      26.417   3.375  49.646  1.00  0.00     0.206 C 
BRANCH  25  26
HETATM   26  C6  UNL     1      26.696   4.721  49.002  1.00  0.00     0.297 C 
BRANCH  26  27
HETATM   27  N1  UNL     1      25.867   5.765  49.525  1.00  0.00     0.082 N 
HETATM   28  C7  UNL     1      26.456   7.076  49.458  1.00  0.00     0.309 C 
HETATM   29  C8  UNL     1      24.630   5.784  48.763  1.00  0.00     0.309 C 
ENDBRANCH  26  27
ENDBRANCH  25  26
ENDBRANCH  24  25
ENDBRANCH   2  24
BRANCH   1  30
HETATM   30  C2  UNL     1      23.252   2.842  50.694  1.00  0.00     0.296 C 
HETATM   31  O2  UNL     1      22.906   3.862  51.390  1.00  0.00    -0.259 OA
BRANCH  30  32
HETATM   32  O1  UNL     1      23.192   2.201  49.444  1.00  0.00    -0.322 OA
HETATM   33  C1  UNL     1      22.514   2.907  48.392  1.00  0.00     0.213 C 
ENDBRANCH  30  32
ENDBRANCH   1  30
TORSDOF 6
ENDMDL
MODEL 2
REMARK VINA RESULT:      -9.2      2.385      6.874
REMARK  6 active torsions:
REMARK  status: ('A' for Active; 'I' for Inactive)
REMARK    1  A    between atoms: O1_2  and  C2_3 
REMARK    2  A    between atoms: C2_3  and  C3_5 
REMARK    3  A    between atoms: C4_6  and  O3_7 
REMARK    4  A    between atoms: O3_7  and  C5_8 
REMARK    5  A    between atoms: C5_8  and  C6_9 
REMARK    6  A    between atoms: C6_9  and  N1_10 
ROOT
HETATM    1  C3  UNL     1      21.877   1.468  51.616  1.00  0.00     0.087 A 
HETATM    2  C4  UNL     1      20.520   1.204  51.413  1.00  0.00     0.097 A 
HETATM    3  C9  UNL     1      19.897   0.198  52.160  1.00  0.00     0.011 A 
HETATM    4  C10 UNL     1      18.566  -0.143  52.035  1.00  0.00     0.015 A 
HETATM    5  C11 UNL     1      17.958  -1.135  52.770  1.00  0.00     0.001 A 
HETATM    6  C12 UNL     1      18.703  -1.842  53.689  1.00  0.00     0.001 A 
HETATM    7  C13 UNL     1      20.039  -1.547  53.860  1.00  0.00     0.015 A 
HETATM    8  C14 UNL     1      20.616  -0.533  53.094  1.00  0.00     0.012 A 
HETATM    9  C15 UNL     1      21.942  -0.262  53.279  1.00  0.00     0.100 A 
HETATM   10  O4  UNL     1      22.821  -0.786  54.069  1.00  0.00    -0.304 OA
HETATM   11  C16 UNL     1      23.979  -0.195  53.897  1.00  0.00     0.142 A 
HETATM   12  C17 UNL     1      23.849   0.785  52.923  1.00  0.00     0.067 A 
HETATM   13  C18 UNL     1      22.555   0.741  52.533  1.00  0.00     0.035 A 
HETATM   14  C19 UNL     1      24.952   1.607  52.513  1.00  0.00     0.197 A 
HETATM   15  O5  UNL     1      24.971   2.503  51.669  1.00  0.00    -0.286 OA
HETATM   16  C20 UNL     1      26.244   1.387  53.153  1.00  0.00     0.025 A 
HETATM   17  C21 UNL     1      27.381   2.023  52.925  1.00  0.00    -0.010 A 
HETATM   18  C22 UNL     1      28.740   1.901  53.495  1.00  0.00     0.032 A 
HETATM   19  C23 UNL     1      28.875   0.842  54.548  1.00  0.00     0.032 A 
HETATM   20  C24 UNL     1      27.583   0.175  54.749  1.00  0.00    -0.010 A 
HETATM   21  C25 UNL     1      26.398   0.346  54.190  1.00  0.00     0.027 A 
HETATM   22  C26 UNL     1      25.244  -0.458  54.567  1.00  0.00     0.217 A 
HETATM   23  O6  UNL     1      25.331  -1.352  55.445  1.00  0.00    -0.284 OA
ENDROOT
BRANCH   2  24
HETATM   24  O3  UNL     1      19.640   1.821  50.534  1.00  0.00    -0.347 OA
BRANCH  24  25
HETATM   25  C5  UNL     1      18.998   3.041  50.720  1.00  0.00     0.206 C 
BRANCH  25  26
HETATM   26  C6  UNL     1      17.505   2.962  50.458  1.00  0.00     0.297 C 
BRANCH  26  27
HETATM   27  N1  UNL     1      16.732   2.976  51.663  1.00  0.00     0.082 N 
HETATM   28  C7  UNL     1      16.212   4.270  52.017  1.00  0.00     0.309 C 
HETATM   29  C8  UNL     1      15.610   2.069  51.489  1.00  0.00     0.309 C 
ENDBRANCH  26  27
ENDBRANCH  25  26
ENDBRANCH  24  25
ENDBRANCH   2  24
BRANCH   1  30
HETATM   30  C2  UNL     1      22.355   2.525  50.778  1.00  0.00     0.296 C 
HETATM   31  O2  UNL     1      22.691   1.859  49.735  1.00  0.00    -0.259 OA
BRANCH  30  32
HETATM   32  O1  UNL     1      22.272   3.791  51.384  1.00  0.00    -0.322 OA
HETATM   33  C1  UNL     1      22.525   4.925  50.540  1.00  0.00     0.213 C 
ENDBRANCH  30  32
ENDBRANCH   1  30
TORSDOF 6
ENDMDL
MODEL 3
REMARK VINA RESULT:      -9.1      1.941      6.318
REMARK  6 active torsions:
REMARK  status: ('A' for Active; 'I' for Inactive)
REMARK    1  A    between atoms: O1_2  and  C2_3 
REMARK    2  A    between atoms: C2_3  and  C3_5 
REMARK    3  A    between atoms: C4_6  and  O3_7 
REMARK    4  A    between atoms: O3_7  and  C5_8 
REMARK    5  A    between atoms: C5_8  and  C6_9 
REMARK    6  A    between atoms: C6_9  and  N1_10 
ROOT
HETATM    1  C3  UNL     1      21.890   1.755  51.806  1.00  0.00     0.087 A 
HETATM    2  C4  UNL     1      20.532   1.508  51.593  1.00  0.00     0.097 A 
HETATM    3  C9  UNL     1      19.918   0.435  52.248  1.00  0.00     0.011 A 
HETATM    4  C10 UNL     1      18.587   0.104  52.105  1.00  0.00     0.015 A 
HETATM    5  C11 UNL     1      17.988  -0.955  52.750  1.00  0.00     0.001 A 
HETATM    6  C12 UNL     1      18.742  -1.742  53.591  1.00  0.00     0.001 A 
HETATM    7  C13 UNL     1      20.080  -1.463  53.775  1.00  0.00     0.015 A 
HETATM    8  C14 UNL     1      20.648  -0.380  53.102  1.00  0.00     0.012 A 
HETATM    9  C15 UNL     1      21.975  -0.124  53.298  1.00  0.00     0.100 A 
HETATM   10  O4  UNL     1      22.863  -0.717  54.026  1.00  0.00    -0.304 OA
HETATM   11  C16 UNL     1      24.019  -0.111  53.899  1.00  0.00     0.142 A 
HETATM   12  C17 UNL     1      23.877   0.956  53.023  1.00  0.00     0.067 A 
HETATM   13  C18 UNL     1      22.579   0.946  52.644  1.00  0.00     0.035 A 
HETATM   14  C19 UNL     1      24.975   1.815  52.680  1.00  0.00     0.197 A 
HETATM   15  O5  UNL     1      24.984   2.787  51.925  1.00  0.00    -0.286 OA
HETATM   16  C20 UNL     1      26.274   1.539  53.284  1.00  0.00     0.025 A 
HETATM   17  C21 UNL     1      27.407   2.197  53.106  1.00  0.00    -0.010 A 
HETATM   18  C22 UNL     1      28.772   2.025  53.647  1.00  0.00     0.032 A 
HETATM   19  C23 UNL     1      28.919   0.872  54.595  1.00  0.00     0.032 A 
HETATM   20  C24 UNL     1      27.631   0.186  54.746  1.00  0.00    -0.010 A 
HETATM   21  C25 UNL     1      26.439   0.406  54.217  1.00  0.00     0.027 A 
HETATM   22  C26 UNL     1      25.290  -0.432  54.528  1.00  0.00     0.217 A 
HETATM   23  O6  UNL     1      25.387  -1.405  55.318  1.00  0.00    -0.284 OA
ENDROOT
BRANCH   2  24
HETATM   24  O3  UNL     1      19.642   2.203  50.785  1.00  0.00    -0.347 OA
BRANCH  24  25
HETATM   25  C5  UNL     1      18.835   3.270  51.163  1.00  0.00     0.206 C 
BRANCH  25  26
HETATM   26  C6  UNL     1      18.584   4.245  50.027  1.00  0.00     0.297 C 
BRANCH  26  27
HETATM   27  N1  UNL     1      19.777   4.573  49.307  1.00  0.00     0.082 N 
HETATM   28  C7  UNL     1      19.614   4.608  47.878  1.00  0.00     0.309 C 
HETATM   29  C8  UNL     1      20.222   5.885  49.745  1.00  0.00     0.309 C 
ENDBRANCH  26  27
ENDBRANCH  25  26
ENDBRANCH  24  25
ENDBRANCH   2  24
BRANCH   1  30
HETATM   30  C2  UNL     1      22.358   2.886  51.066  1.00  0.00     0.296 C 
HETATM   31  O2  UNL     1      22.175   3.818  51.927  1.00  0.00    -0.259 OA
BRANCH  30  32
HETATM   32  O1  UNL     1      22.805   2.555  49.775  1.00  0.00    -0.322 OA
HETATM   33  C1  UNL     1      23.268   3.641  48.956  1.00  0.00     0.213 C 
ENDBRANCH  30  32
ENDBRANCH   1  30
TORSDOF 6
ENDMDL
MODEL 4
REMARK VINA RESULT:      -9.1      2.452      7.792
REMARK  6 active torsions:
REMARK  status: ('A' for Active; 'I' for Inactive)
REMARK    1  A    between atoms: O1_2  and  C2_3 
REMARK    2  A    between atoms: C2_3  and  C3_5 
REMARK    3  A    between atoms: C4_6  and  O3_7 
REMARK    4  A    between atoms: O3_7  and  C5_8 
REMARK    5  A    between atoms: C5_8  and  C6_9 
REMARK    6  A    between atoms: C6_9  and  N1_10 
ROOT
HETATM    1  C3  UNL     1      23.813   3.679  51.286  1.00  0.00     0.087 A 
HETATM    2  C4  UNL     1      23.570   2.556  52.081  1.00  0.00     0.097 A 
HETATM    3  C9  UNL     1      24.570   1.588  52.227  1.00  0.00     0.011 A 
HETATM    4  C10 UNL     1      24.432   0.444  52.985  1.00  0.00     0.015 A 
HETATM    5  C11 UNL     1      25.418  -0.506  53.123  1.00  0.00     0.001 A 
HETATM    6  C12 UNL     1      26.621  -0.325  52.476  1.00  0.00     0.001 A 
HETATM    7  C13 UNL     1      26.820   0.799  51.702  1.00  0.00     0.015 A 
HETATM    8  C14 UNL     1      25.793   1.738  51.589  1.00  0.00     0.012 A 
HETATM    9  C15 UNL     1      26.013   2.841  50.815  1.00  0.00     0.100 A 
HETATM   10  O4  UNL     1      27.042   3.214  50.128  1.00  0.00    -0.304 OA
HETATM   11  C16 UNL     1      26.792   4.360  49.540  1.00  0.00     0.142 A 
HETATM   12  C17 UNL     1      25.506   4.766  49.865  1.00  0.00     0.067 A 
HETATM   13  C18 UNL     1      25.014   3.801  50.675  1.00  0.00     0.035 A 
HETATM   14  C19 UNL     1      24.941   5.989  49.370  1.00  0.00     0.197 A 
HETATM   15  O5  UNL     1      23.824   6.461  49.581  1.00  0.00    -0.286 OA
HETATM   16  C20 UNL     1      25.764   6.817  48.496  1.00  0.00     0.025 A 
HETATM   17  C21 UNL     1      25.443   7.969  47.932  1.00  0.00    -0.010 A 
HETATM   18  C22 UNL     1      26.171   8.897  47.040  1.00  0.00     0.032 A 
HETATM   19  C23 UNL     1      27.562   8.455  46.693  1.00  0.00     0.032 A 
HETATM   20  C24 UNL     1      27.852   7.173  47.346  1.00  0.00    -0.010 A 
HETATM   21  C25 UNL     1      27.135   6.397  48.140  1.00  0.00     0.027 A 
HETATM   22  C26 UNL     1      27.656   5.146  48.673  1.00  0.00     0.217 A 
HETATM   23  O6  UNL     1      28.817   4.752  48.396  1.00  0.00    -0.284 OA
ENDROOT
BRANCH   2  24
HETATM   24  O3  UNL     1      22.423   2.231  52.792  1.00  0.00    -0.347 OA
BRANCH  24  25
HETATM   25  C5  UNL     1      21.368   1.439  52.352  1.00  0.00     0.206 C 
BRANCH  25  26
HETATM   26  C6  UNL     1      20.616   0.779  53.494  1.00  0.00     0.297 C 
BRANCH  26  27
HETATM   27  N1  UNL     1      20.390  -0.618  53.271  1.00  0.00     0.082 N 
HETATM   28  C7  UNL     1      20.952  -1.475  54.280  1.00  0.00     0.309 C 
HETATM   29  C8  UNL     1      18.954  -0.842  53.235  1.00  0.00     0.309 C 
ENDBRANCH  26  27
ENDBRANCH  25  26
ENDBRANCH  24  25
ENDBRANCH   2  24
BRANCH   1  30
HETATM   30  C2  UNL     1      22.692   4.567  51.247  1.00  0.00     0.296 C 
HETATM   31  O2  UNL     1      22.964   5.327  52.243  1.00  0.00    -0.259 OA
BRANCH  30  32
HETATM   32  O1  UNL     1      21.796   4.279  50.202  1.00  0.00    -0.322 OA
HETATM   33  C1  UNL     1      20.494   4.880  50.289  1.00  0.00     0.213 C 
ENDBRANCH  30  32
ENDBRANCH   1  30
TORSDOF 6
ENDMDL
MODEL 5
REMARK VINA RESULT:      -8.6      2.875      5.721
REMARK  6 active torsions:
REMARK  status: ('A' for Active; 'I' for Inactive)
REMARK    1  A    between atoms: O1_2  and  C2_3 
REMARK    2  A    between atoms: C2_3  and  C3_5 
REMARK    3  A    between atoms: C4_6  and  O3_7 
REMARK    4  A    between atoms: O3_7  and  C5_8 
REMARK    5  A    between atoms: C5_8  and  C6_9 
REMARK    6  A    between atoms: C6_9  and  N1_10 
ROOT
HETATM    1  C3  UNL     1      24.431   5.684  49.332  1.00  0.00     0.087 A 
HETATM    2  C4  UNL     1      25.049   6.644  48.526  1.00  0.00     0.097 A 
HETATM    3  C9  UNL     1      26.415   6.528  48.245  1.00  0.00     0.011 A 
HETATM    4  C10 UNL     1      27.119   7.420  47.464  1.00  0.00     0.015 A 
HETATM    5  C11 UNL     1      28.464   7.304  47.192  1.00  0.00     0.001 A 
HETATM    6  C12 UNL     1      29.166   6.242  47.720  1.00  0.00     0.001 A 
HETATM    7  C13 UNL     1      28.517   5.317  48.510  1.00  0.00     0.015 A 
HETATM    8  C14 UNL     1      27.153   5.472  48.761  1.00  0.00     0.012 A 
HETATM    9  C15 UNL     1      26.533   4.545  49.547  1.00  0.00     0.100 A 
HETATM   10  O4  UNL     1      26.981   3.487  50.140  1.00  0.00    -0.304 OA
HETATM   11  C16 UNL     1      26.008   2.897  50.791  1.00  0.00     0.142 A 
HETATM   12  C17 UNL     1      24.837   3.620  50.612  1.00  0.00     0.067 A 
HETATM   13  C18 UNL     1      25.173   4.665  49.822  1.00  0.00     0.035 A 
HETATM   14  C19 UNL     1      23.593   3.221  51.206  1.00  0.00     0.197 A 
HETATM   15  O5  UNL     1      22.493   3.768  51.127  1.00  0.00    -0.286 OA
HETATM   16  C20 UNL     1      23.581   2.012  52.022  1.00  0.00     0.025 A 
HETATM   17  C21 UNL     1      22.555   1.472  52.657  1.00  0.00    -0.010 A 
HETATM   18  C22 UNL     1      22.408   0.269  53.504  1.00  0.00     0.032 A 
HETATM   19  C23 UNL     1      23.675  -0.511  53.692  1.00  0.00     0.032 A 
HETATM   20  C24 UNL     1      24.771   0.141  52.967  1.00  0.00    -0.010 A 
HETATM   21  C25 UNL     1      24.820   1.233  52.222  1.00  0.00     0.027 A 
HETATM   22  C26 UNL     1      26.054   1.684  51.595  1.00  0.00     0.217 A 
HETATM   23  O6  UNL     1      27.129   1.050  51.738  1.00  0.00    -0.284 OA
ENDROOT
BRANCH   2  24
HETATM   24  O3  UNL     1      24.485   7.760  47.923  1.00  0.00    -0.347 OA
BRANCH  24  25
HETATM   25  C5  UNL     1      24.397   9.040  48.460  1.00  0.00     0.206 C 
BRANCH  25  26
HETATM   26  C6  UNL     1      24.361  10.120  47.394  1.00  0.00     0.297 C 
BRANCH  26  27
HETATM   27  N1  UNL     1      25.447  11.046  47.509  1.00  0.00     0.082 N 
HETATM   28  C7  UNL     1      26.307  10.811  48.639  1.00  0.00     0.309 C 
HETATM   29  C8  UNL     1      26.249  10.952  46.301  1.00  0.00     0.309 C 
ENDBRANCH  26  27
ENDBRANCH  25  26
ENDBRANCH  24  25
ENDBRANCH   2  24
BRANCH   1  30
HETATM   30  C2  UNL     1      23.037   5.948  49.517  1.00  0.00     0.296 C 
HETATM   31  O2  UNL     1      22.546   5.312  48.518  1.00  0.00    -0.259 OA
BRANCH  30  32
HETATM   32  O1  UNL     1      22.771   6.746  50.644  1.00  0.00    -0.322 OA
HETATM   33  C1  UNL     1      21.489   7.395  50.684  1.00  0.00     0.213 C 
ENDBRANCH  30  32
ENDBRANCH   1  30
TORSDOF 6
ENDMDL
MODEL 6
REMARK VINA RESULT:      -8.4      2.816      8.450
REMARK  6 active torsions:
REMARK  status: ('A' for Active; 'I' for Inactive)
REMARK    1  A    between atoms: O1_2  and  C2_3 
REMARK    2  A    between atoms: C2_3  and  C3_5 
REMARK    3  A    between atoms: C4_6  and  O3_7 
REMARK    4  A    between atoms: O3_7  and  C5_8 
REMARK    5  A    between atoms: C5_8  and  C6_9 
REMARK    6  A    between atoms: C6_9  and  N1_10 
ROOT
HETATM    1  C3  UNL     1      24.062   4.706  49.781  1.00  0.00     0.087 A 
HETATM    2  C4  UNL     1      23.503   3.685  50.554  1.00  0.00     0.097 A 
HETATM    3  C9  UNL     1      24.330   2.677  51.064  1.00  0.00     0.011 A 
HETATM    4  C10 UNL     1      23.880   1.626  51.834  1.00  0.00     0.015 A 
HETATM    5  C11 UNL     1      24.697   0.636  52.331  1.00  0.00     0.001 A 
HETATM    6  C12 UNL     1      26.047   0.678  52.056  1.00  0.00     0.001 A 
HETATM    7  C13 UNL     1      26.558   1.705  51.290  1.00  0.00     0.015 A 
HETATM    8  C14 UNL     1      25.694   2.689  50.806  1.00  0.00     0.012 A 
HETATM    9  C15 UNL     1      26.223   3.694  50.048  1.00  0.00     0.100 A 
HETATM   10  O4  UNL     1      27.435   3.933  49.669  1.00  0.00    -0.304 OA
HETATM   11  C16 UNL     1      27.466   5.027  48.945  1.00  0.00     0.142 A 
HETATM   12  C17 UNL     1      26.181   5.540  48.844  1.00  0.00     0.067 A 
HETATM   13  C18 UNL     1      25.394   4.693  49.545  1.00  0.00     0.035 A 
HETATM   14  C19 UNL     1      25.892   6.740  48.110  1.00  0.00     0.197 A 
HETATM   15  O5  UNL     1      24.808   7.297  47.944  1.00  0.00    -0.286 OA
HETATM   16  C20 UNL     1      27.001   7.425  47.456  1.00  0.00     0.025 A 
HETATM   17  C21 UNL     1      26.958   8.532  46.734  1.00  0.00    -0.010 A 
HETATM   18  C22 UNL     1      27.991   9.320  46.027  1.00  0.00     0.032 A 
HETATM   19  C23 UNL     1      29.379   8.762  46.142  1.00  0.00     0.032 A 
HETATM   20  C24 UNL     1      29.355   7.537  46.950  1.00  0.00    -0.010 A 
HETATM   21  C25 UNL     1      28.375   6.889  47.555  1.00  0.00     0.027 A 
HETATM   22  C26 UNL     1      28.609   5.668  48.313  1.00  0.00     0.217 A 
HETATM   23  O6  UNL     1      29.761   5.179  48.423  1.00  0.00    -0.284 OA
ENDROOT
BRANCH   2  24
HETATM   24  O3  UNL     1      22.176   3.503  50.918  1.00  0.00    -0.347 OA
BRANCH  24  25
HETATM   25  C5  UNL     1      21.555   3.981  52.067  1.00  0.00     0.206 C 
BRANCH  25  26
HETATM   26  C6  UNL     1      20.490   3.037  52.593  1.00  0.00     0.297 C 
BRANCH  26  27
HETATM   27  N1  UNL     1      19.910   2.229  51.562  1.00  0.00     0.082 N 
HETATM   28  C7  UNL     1      19.908   0.819  51.847  1.00  0.00     0.309 C 
HETATM   29  C8  UNL     1      18.534   2.656  51.376  1.00  0.00     0.309 C 
ENDBRANCH  26  27
ENDBRANCH  25  26
ENDBRANCH  24  25
ENDBRANCH   2  24
BRANCH   1  30
HETATM   30  C2  UNL     1      23.082   5.652  49.344  1.00  0.00     0.296 C 
HETATM   31  O2  UNL     1      22.716   5.113  48.240  1.00  0.00    -0.259 OA
BRANCH  30  32
HETATM   32  O1  UNL     1      22.916   6.726  50.236  1.00  0.00    -0.322 OA
HETATM   33  C1  UNL     1      21.594   7.279  50.337  1.00  0.00     0.213 C 
ENDBRANCH  30  32
ENDBRANCH   1  30
TORSDOF 6
ENDMDL
MODEL 7
REMARK VINA RESULT:      -8.3      2.569      6.145
REMARK  6 active torsions:
REMARK  status: ('A' for Active; 'I' for Inactive)
REMARK    1  A    between atoms: O1_2  and  C2_3 
REMARK    2  A    between atoms: C2_3  and  C3_5 
REMARK    3  A    between atoms: C4_6  and  O3_7 
REMARK    4  A    between atoms: O3_7  and  C5_8 
REMARK    5  A    between atoms: C5_8  and  C6_9 
REMARK    6  A    between atoms: C6_9  and  N1_10 
ROOT
HETATM    1  C3  UNL     1      23.663   2.131  52.399  1.00  0.00     0.087 A 
HETATM    2  C4  UNL     1      23.839   0.923  53.080  1.00  0.00     0.097 A 
HETATM    3  C9  UNL     1      22.719   0.152  53.412  1.00  0.00     0.011 A 
HETATM    4  C10 UNL     1      22.782  -1.050  54.083  1.00  0.00     0.015 A 
HETATM    5  C11 UNL     1      21.678  -1.804  54.410  1.00  0.00     0.001 A 
HETATM    6  C12 UNL     1      20.426  -1.350  54.055  1.00  0.00     0.001 A 
HETATM    7  C13 UNL     1      20.297  -0.153  53.382  1.00  0.00     0.015 A 
HETATM    8  C14 UNL     1      21.444   0.580  53.070  1.00  0.00     0.012 A 
HETATM    9  C15 UNL     1      21.290   1.763  52.406  1.00  0.00     0.100 A 
HETATM   10  O4  UNL     1      20.235   2.376  51.981  1.00  0.00    -0.304 OA
HETATM   11  C16 UNL     1      20.579   3.496  51.391  1.00  0.00     0.142 A 
HETATM   12  C17 UNL     1      21.960   3.626  51.434  1.00  0.00     0.067 A 
HETATM   13  C18 UNL     1      22.409   2.525  52.078  1.00  0.00     0.035 A 
HETATM   14  C19 UNL     1      22.640   4.755  50.867  1.00  0.00     0.197 A 
HETATM   15  O5  UNL     1      23.848   4.990  50.837  1.00  0.00    -0.286 OA
HETATM   16  C20 UNL     1      21.834   5.790  50.229  1.00  0.00     0.025 A 
HETATM   17  C21 UNL     1      22.252   6.903  49.653  1.00  0.00    -0.010 A 
HETATM   18  C22 UNL     1      21.552   8.019  48.980  1.00  0.00     0.032 A 
HETATM   19  C23 UNL     1      20.060   7.873  48.934  1.00  0.00     0.032 A 
HETATM   20  C24 UNL     1      19.664   6.622  49.591  1.00  0.00    -0.010 A 
HETATM   21  C25 UNL     1      20.363   5.665  50.177  1.00  0.00     0.027 A 
HETATM   22  C26 UNL     1      19.726   4.497  50.769  1.00  0.00     0.217 A 
HETATM   23  O6  UNL     1      18.478   4.352  50.745  1.00  0.00    -0.284 OA
ENDROOT
BRANCH   2  24
HETATM   24  O3  UNL     1      25.022   0.333  53.503  1.00  0.00    -0.347 OA
BRANCH  24  25
HETATM   25  C5  UNL     1      25.833  -0.524  52.767  1.00  0.00     0.206 C 
BRANCH  25  26
HETATM   26  C6  UNL     1      27.307  -0.187  52.894  1.00  0.00     0.297 C 
BRANCH  26  27
HETATM   27  N1  UNL     1      27.576   0.718  53.971  1.00  0.00     0.082 N 
HETATM   28  C7  UNL     1      28.454   0.191  54.981  1.00  0.00     0.309 C 
HETATM   29  C8  UNL     1      28.189   1.912  53.415  1.00  0.00     0.309 C 
ENDBRANCH  26  27
ENDBRANCH  25  26
ENDBRANCH  24  25
ENDBRANCH   2  24
BRANCH   1  30
HETATM   30  C2  UNL     1      24.905   2.790  52.135  1.00  0.00     0.296 C 
HETATM   31  O2  UNL     1      25.014   3.510  53.190  1.00  0.00    -0.259 OA
BRANCH  30  32
HETATM   32  O1  UNL     1      25.479   2.413  50.908  1.00  0.00    -0.322 OA
HETATM   33  C1  UNL     1      26.537   3.249  50.410  1.00  0.00     0.213 C 
ENDBRANCH  30  32
ENDBRANCH   1  30
TORSDOF 6
ENDMDL
MODEL 8
REMARK VINA RESULT:      -8.3      2.759      7.152
REMARK  6 active torsions:
REMARK  status: ('A' for Active; 'I' for Inactive)
REMARK    1  A    between atoms: O1_2  and  C2_3 
REMARK    2  A    between atoms: C2_3  and  C3_5 
REMARK    3  A    between atoms: C4_6  and  O3_7 
REMARK    4  A    between atoms: O3_7  and  C5_8 
REMARK    5  A    between atoms: C5_8  and  C6_9 
REMARK    6  A    between atoms: C6_9  and  N1_10 
ROOT
HETATM    1  C3  UNL     1      21.227   2.255  51.514  1.00  0.00     0.087 A 
HETATM    2  C4  UNL     1      20.485   1.335  52.258  1.00  0.00     0.097 A 
HETATM    3  C9  UNL     1      21.152   0.351  52.996  1.00  0.00     0.011 A 
HETATM    4  C10 UNL     1      20.515  -0.604  53.760  1.00  0.00     0.015 A 
HETATM    5  C11 UNL     1      21.176  -1.572  54.482  1.00  0.00     0.001 A 
HETATM    6  C12 UNL     1      22.553  -1.608  54.455  1.00  0.00     0.001 A 
HETATM    7  C13 UNL     1      23.247  -0.679  53.709  1.00  0.00     0.015 A 
HETATM    8  C14 UNL     1      22.538   0.286  52.991  1.00  0.00     0.012 A 
HETATM    9  C15 UNL     1      23.248   1.192  52.257  1.00  0.00     0.100 A 
HETATM   10  O4  UNL     1      24.519   1.348  52.085  1.00  0.00    -0.304 OA
HETATM   11  C16 UNL     1      24.738   2.366  51.287  1.00  0.00     0.142 A 
HETATM   12  C17 UNL     1      23.521   2.916  50.909  1.00  0.00     0.067 A 
HETATM   13  C18 UNL     1      22.578   2.170  51.526  1.00  0.00     0.035 A 
HETATM   14  C19 UNL     1      23.434   4.049  50.033  1.00  0.00     0.197 A 
HETATM   15  O5  UNL     1      22.428   4.629  49.623  1.00  0.00    -0.286 OA
HETATM   16  C20 UNL     1      24.677   4.626  49.534  1.00  0.00     0.025 A 
HETATM   17  C21 UNL     1      24.823   5.660  48.723  1.00  0.00    -0.010 A 
HETATM   18  C22 UNL     1      26.007   6.336  48.149  1.00  0.00     0.032 A 
HETATM   19  C23 UNL     1      27.319   5.740  48.563  1.00  0.00     0.032 A 
HETATM   20  C24 UNL     1      27.086   4.600  49.458  1.00  0.00    -0.010 A 
HETATM   21  C25 UNL     1      25.979   4.051  49.928  1.00  0.00     0.027 A 
HETATM   22  C26 UNL     1      26.008   2.900  50.820  1.00  0.00     0.217 A 
HETATM   23  O6  UNL     1      27.094   2.381  51.180  1.00  0.00    -0.284 OA
ENDROOT
BRANCH   2  24
HETATM   24  O3  UNL     1      19.106   1.239  52.389  1.00  0.00    -0.347 OA
BRANCH  24  25
HETATM   25  C5  UNL     1      18.234   0.577  51.532  1.00  0.00     0.206 C 
BRANCH  25  26
HETATM   26  C6  UNL     1      16.806   1.080  51.648  1.00  0.00     0.297 C 
BRANCH  26  27
HETATM   27  N1  UNL     1      16.593   2.306  50.938  1.00  0.00     0.082 N 
HETATM   28  C7  UNL     1      15.794   2.169  49.750  1.00  0.00     0.309 C 
HETATM   29  C8  UNL     1      15.922   3.234  51.832  1.00  0.00     0.309 C 
ENDBRANCH  26  27
ENDBRANCH  25  26
ENDBRANCH  24  25
ENDBRANCH   2  24
BRANCH   1  30
HETATM   30  C2  UNL     1      20.394   3.192  50.824  1.00  0.00     0.296 C 
HETATM   31  O2  UNL     1      20.298   4.113  51.710  1.00  0.00    -0.259 OA
BRANCH  30  32
HETATM   32  O1  UNL     1      20.035   2.764  49.534  1.00  0.00    -0.322 OA
HETATM   33  C1  UNL     1      19.160   3.628  48.791  1.00  0.00     0.213 C 
ENDBRANCH  30  32
ENDBRANCH   1  30
TORSDOF 6
ENDMDL
MODEL 9
REMARK VINA RESULT:      -8.3      2.504      4.580
REMARK  6 active torsions:
REMARK  status: ('A' for Active; 'I' for Inactive)
REMARK    1  A    between atoms: O1_2  and  C2_3 
REMARK    2  A    between atoms: C2_3  and  C3_5 
REMARK    3  A    between atoms: C4_6  and  O3_7 
REMARK    4  A    between atoms: O3_7  and  C5_8 
REMARK    5  A    between atoms: C5_8  and  C6_9 
REMARK    6  A    between atoms: C6_9  and  N1_10 
ROOT
HETATM    1  C3  UNL     1      23.088   4.765  50.397  1.00  0.00     0.087 A 
HETATM    2  C4  UNL     1      23.708   5.713  49.578  1.00  0.00     0.097 A 
HETATM    3  C9  UNL     1      25.055   5.548  49.234  1.00  0.00     0.011 A 
HETATM    4  C10 UNL     1      25.759   6.424  48.436  1.00  0.00     0.015 A 
HETATM    5  C11 UNL     1      27.084   6.260  48.103  1.00  0.00     0.001 A 
HETATM    6  C12 UNL     1      27.766   5.163  48.583  1.00  0.00     0.001 A 
HETATM    7  C13 UNL     1      27.116   4.251  49.387  1.00  0.00     0.015 A 
HETATM    8  C14 UNL     1      25.772   4.456  49.701  1.00  0.00     0.012 A 
HETATM    9  C15 UNL     1      25.151   3.540  50.501  1.00  0.00     0.100 A 
HETATM   10  O4  UNL     1      25.583   2.457  51.058  1.00  0.00    -0.304 OA
HETATM   11  C16 UNL     1      24.616   1.894  51.744  1.00  0.00     0.142 A 
HETATM   12  C17 UNL     1      23.469   2.666  51.628  1.00  0.00     0.067 A 
HETATM   13  C18 UNL     1      23.810   3.710  50.839  1.00  0.00     0.035 A 
HETATM   14  C19 UNL     1      22.237   2.307  52.271  1.00  0.00     0.197 A 
HETATM   15  O5  UNL     1      21.157   2.897  52.249  1.00  0.00    -0.286 OA
HETATM   16  C20 UNL     1      22.212   1.086  53.069  1.00  0.00     0.025 A 
HETATM   17  C21 UNL     1      21.194   0.577  53.741  1.00  0.00    -0.010 A 
HETATM   18  C22 UNL     1      21.037  -0.634  54.577  1.00  0.00     0.032 A 
HETATM   19  C23 UNL     1      22.279  -1.466  54.696  1.00  0.00     0.032 A 
HETATM   20  C24 UNL     1      23.368  -0.845  53.932  1.00  0.00    -0.010 A 
HETATM   21  C25 UNL     1      23.427   0.255  53.202  1.00  0.00     0.027 A 
HETATM   22  C26 UNL     1      24.648   0.668  52.527  1.00  0.00     0.217 A 
HETATM   23  O6  UNL     1      25.703  -0.010  52.612  1.00  0.00    -0.284 OA
ENDROOT
BRANCH   2  24
HETATM   24  O3  UNL     1      23.164   6.860  49.017  1.00  0.00    -0.347 OA
BRANCH  24  25
HETATM   25  C5  UNL     1      22.173   6.920  48.043  1.00  0.00     0.206 C 
BRANCH  25  26
HETATM   26  C6  UNL     1      22.739   6.950  46.635  1.00  0.00     0.297 C 
BRANCH  26  27
HETATM   27  N1  UNL     1      21.903   6.272  45.690  1.00  0.00     0.082 N 
HETATM   28  C7  UNL     1      21.915   4.838  45.812  1.00  0.00     0.309 C 
HETATM   29  C8  UNL     1      20.538   6.732  45.883  1.00  0.00     0.309 C 
ENDBRANCH  26  27
ENDBRANCH  25  26
ENDBRANCH  24  25
ENDBRANCH   2  24
BRANCH   1  30
HETATM   30  C2  UNL     1      21.716   5.081  50.648  1.00  0.00     0.296 C 
HETATM   31  O2  UNL     1      21.836   5.842  51.672  1.00  0.00    -0.259 OA
BRANCH  30  32
HETATM   32  O1  UNL     1      20.835   4.475  49.735  1.00  0.00    -0.322 OA
HETATM   33  C1  UNL     1      19.454   4.864  49.819  1.00  0.00     0.213 C 
ENDBRANCH  30  32
ENDBRANCH   1  30
TORSDOF 6
ENDMDL
