MODEL 1
REMARK VINA RESULT:      -8.6      0.000      0.000
REMARK  2 active torsions:
REMARK  status: ('A' for Active; 'I' for Inactive)
REMARK    1  A    between atoms: C6_7  and  O1_8 
REMARK    2  A    between atoms: O1_8  and  C7_9 
ROOT
HETATM    1  C1  UNL     1      25.273   7.719  50.457  1.00  0.00     0.038 C 
HETATM    2  C2  UNL     1      24.049   7.271  51.156  1.00  0.00    -0.007 C 
HETATM    3  C3  UNL     1      23.794   5.994  51.240  1.00  0.00     0.011 C 
HETATM    4  C4  UNL     1      24.966   5.432  50.520  1.00  0.00     0.045 C 
HETATM    5  C5  UNL     1      25.457   4.228  50.193  1.00  0.00     0.043 A 
HETATM    6 CL1  UNL     1      26.164   2.702  49.728  1.00  0.00    -0.146 Cl
HETATM    7  C6  UNL     1      24.971   3.169  51.079  1.00  0.00     0.241 A 
HETATM    8  C13 UNL     1      23.714   2.544  50.724  1.00  0.00    -0.013 C 
HETATM    9  C14 UNL     1      23.186   2.083  49.523  1.00  0.00     0.023 C 
HETATM   10  P1  UNL     1      21.473   1.706  49.417  1.00  0.00    -0.048 P 
HETATM   11  C15 UNL     1      20.339   2.776  48.612  1.00  0.00     0.150 C 
HETATM   12  N1  UNL     1      20.569   4.004  49.151  1.00  0.00    -0.160 NA
HETATM   13  N2  UNL     1      20.578   4.222  50.430  1.00  0.00    -0.138 NA
HETATM   14  C16 UNL     1      21.728   4.305  51.192  1.00  0.00     0.138 C 
HETATM   15  N3  UNL     1      22.963   4.922  51.624  1.00  0.00    -0.242 NA
HETATM   16  C17 UNL     1      21.715   3.109  51.953  1.00  0.00     0.008 C 
HETATM   17  C18 UNL     1      22.874   2.339  51.847  1.00  0.00     0.023 C 
HETATM   18  C19 UNL     1      20.417   2.952  52.707  1.00  0.00     0.209 C 
HETATM   19  O2  UNL     1      19.467   2.536  51.823  1.00  0.00    -0.386 OA
HETATM   20  C20 UNL     1      19.478   1.284  51.333  1.00  0.00     0.173 C 
HETATM   21  C21 UNL     1      20.693   0.689  50.752  1.00  0.00     0.070 C 
HETATM   22  H15 UNL     1      22.511   5.387  50.807  1.00  0.00     0.135 HD
ENDROOT
BRANCH   7  23
HETATM   23  O1  UNL     1      26.020   2.223  51.189  1.00  0.00    -0.354 OA
BRANCH  23  24
HETATM   24  C7  UNL     1      26.082   1.725  52.466  1.00  0.00     0.184 A 
HETATM   25  C8  UNL     1      25.944   0.233  52.333  1.00  0.00     0.008 A 
HETATM   26  C9  UNL     1      26.656  -0.825  52.657  1.00  0.00    -0.002 A 
HETATM   27  C10 UNL     1      27.915  -0.546  53.323  1.00  0.00    -0.001 A 
HETATM   28  C11 UNL     1      28.141   0.744  53.496  1.00  0.00     0.013 A 
HETATM   29  C12 UNL     1      27.375   1.992  53.154  1.00  0.00     0.225 A 
HETATM   30  F1  UNL     1      28.163   2.857  52.449  1.00  0.00    -0.242 F 
ENDBRANCH  23  24
ENDBRANCH   7  23
TORSDOF 2
ENDMDL
MODEL 2
REMARK VINA RESULT:      -8.4      2.489      4.854
REMARK  2 active torsions:
REMARK  status: ('A' for Active; 'I' for Inactive)
REMARK    1  A    between atoms: C6_7  and  O1_8 
REMARK    2  A    between atoms: O1_8  and  C7_9 
ROOT
HETATM    1  C1  UNL     1      21.180   0.683  49.008  1.00  0.00     0.038 C 
HETATM    2  C2  UNL     1      21.889   1.709  48.214  1.00  0.00    -0.007 C 
HETATM    3  C3  UNL     1      22.750   2.491  48.805  1.00  0.00     0.011 C 
HETATM    4  C4  UNL     1      22.668   1.985  50.200  1.00  0.00     0.045 C 
HETATM    5  C5  UNL     1      23.237   2.230  51.389  1.00  0.00     0.043 A 
HETATM    6 CL1  UNL     1      23.926   2.486  52.971  1.00  0.00    -0.146 Cl
HETATM    7  C6  UNL     1      24.548   2.869  51.258  1.00  0.00     0.241 A 
HETATM    8  C13 UNL     1      24.565   4.314  51.163  1.00  0.00    -0.013 C 
HETATM    9  C14 UNL     1      23.899   5.322  51.851  1.00  0.00     0.023 C 
HETATM   10  P1  UNL     1      23.906   6.959  51.213  1.00  0.00    -0.048 P 
HETATM   11  C15 UNL     1      22.503   7.644  50.412  1.00  0.00     0.150 C 
HETATM   12  N1  UNL     1      22.146   6.723  49.477  1.00  0.00    -0.160 NA
HETATM   13  N2  UNL     1      22.981   6.239  48.609  1.00  0.00    -0.138 NA
HETATM   14  C16 UNL     1      23.611   5.017  48.741  1.00  0.00     0.138 C 
HETATM   15  N3  UNL     1      23.656   3.571  48.786  1.00  0.00    -0.242 NA
HETATM   16  C17 UNL     1      24.957   5.360  49.023  1.00  0.00     0.008 C 
HETATM   17  C18 UNL     1      25.476   4.782  50.182  1.00  0.00     0.023 C 
HETATM   18  C19 UNL     1      25.516   6.296  47.979  1.00  0.00     0.209 C 
HETATM   19  O2  UNL     1      25.024   7.542  48.229  1.00  0.00    -0.386 OA
HETATM   20  C20 UNL     1      25.456   8.259  49.280  1.00  0.00     0.173 C 
HETATM   21  C21 UNL     1      25.505   7.692  50.638  1.00  0.00     0.070 C 
HETATM   22  H15 UNL     1      22.694   3.972  48.729  1.00  0.00     0.135 HD
ENDROOT
BRANCH   7  23
HETATM   23  O1  UNL     1      25.333   2.401  52.340  1.00  0.00    -0.354 OA
BRANCH  23  24
HETATM   24  C7  UNL     1      26.500   1.847  51.878  1.00  0.00     0.184 A 
HETATM   25  C8  UNL     1      27.596   2.430  52.727  1.00  0.00     0.008 A 
HETATM   26  C9  UNL     1      28.536   1.967  53.523  1.00  0.00    -0.002 A 
HETATM   27  C10 UNL     1      28.580   0.522  53.659  1.00  0.00    -0.001 A 
HETATM   28  C11 UNL     1      27.655  -0.098  52.948  1.00  0.00     0.013 A 
HETATM   29  C12 UNL     1      26.563   0.367  52.025  1.00  0.00     0.225 A 
HETATM   30  F1  UNL     1      25.362  -0.164  52.402  1.00  0.00    -0.242 F 
ENDBRANCH  23  24
ENDBRANCH   7  23
TORSDOF 2
ENDMDL
MODEL 3
REMARK VINA RESULT:      -7.9      2.033      2.520
REMARK  2 active torsions:
REMARK  status: ('A' for Active; 'I' for Inactive)
REMARK    1  A    between atoms: C6_7  and  O1_8 
REMARK    2  A    between atoms: O1_8  and  C7_9 
ROOT
HETATM    1  C1  UNL     1      28.338   6.602  48.234  1.00  0.00     0.038 C 
HETATM    2  C2  UNL     1      27.084   7.153  48.791  1.00  0.00    -0.007 C 
HETATM    3  C3  UNL     1      26.197   6.339  49.293  1.00  0.00     0.011 C 
HETATM    4  C4  UNL     1      26.873   5.032  49.083  1.00  0.00     0.045 C 
HETATM    5  C5  UNL     1      26.644   3.736  49.334  1.00  0.00     0.043 A 
HETATM    6 CL1  UNL     1      26.425   2.029  49.622  1.00  0.00    -0.146 Cl
HETATM    7  C6  UNL     1      25.700   3.539  50.435  1.00  0.00     0.241 A 
HETATM    8  C13 UNL     1      24.293   3.528  50.096  1.00  0.00    -0.013 C 
HETATM    9  C14 UNL     1      23.564   2.929  49.075  1.00  0.00     0.023 C 
HETATM   10  P1  UNL     1      21.907   3.435  48.778  1.00  0.00    -0.048 P 
HETATM   11  C15 UNL     1      21.485   4.467  47.423  1.00  0.00     0.150 C 
HETATM   12  N1  UNL     1      22.345   5.519  47.500  1.00  0.00    -0.160 NA
HETATM   13  N2  UNL     1      22.507   6.220  48.580  1.00  0.00    -0.138 NA
HETATM   14  C16 UNL     1      23.550   6.042  49.468  1.00  0.00     0.138 C 
HETATM   15  N3  UNL     1      24.937   6.089  49.875  1.00  0.00    -0.242 NA
HETATM   16  C17 UNL     1      22.931   5.456  50.601  1.00  0.00     0.008 C 
HETATM   17  C18 UNL     1      23.505   4.257  51.023  1.00  0.00     0.023 C 
HETATM   18  C19 UNL     1      21.770   6.290  51.085  1.00  0.00     0.209 C 
HETATM   19  O2  UNL     1      20.717   6.065  50.250  1.00  0.00    -0.386 OA
HETATM   20  C20 UNL     1      20.050   4.898  50.275  1.00  0.00     0.173 C 
HETATM   21  C21 UNL     1      20.750   3.603  50.212  1.00  0.00     0.070 C 
HETATM   22  H15 UNL     1      24.774   6.322  48.871  1.00  0.00     0.135 HD
ENDROOT
BRANCH   7  23
HETATM   23  O1  UNL     1      26.095   2.350  51.096  1.00  0.00    -0.354 OA
BRANCH  23  24
HETATM   24  C7  UNL     1      25.687   2.374  52.406  1.00  0.00     0.184 A 
HETATM   25  C8  UNL     1      24.807   1.167  52.585  1.00  0.00     0.008 A 
HETATM   26  C9  UNL     1      24.796   0.099  53.354  1.00  0.00    -0.002 A 
HETATM   27  C10 UNL     1      25.893   0.002  54.300  1.00  0.00    -0.001 A 
HETATM   28  C11 UNL     1      26.733   1.020  54.231  1.00  0.00     0.013 A 
HETATM   29  C12 UNL     1      26.802   2.261  53.385  1.00  0.00     0.225 A 
HETATM   30  F1  UNL     1      28.026   2.363  52.786  1.00  0.00    -0.242 F 
ENDBRANCH  23  24
ENDBRANCH   7  23
TORSDOF 2
ENDMDL
MODEL 4
REMARK VINA RESULT:      -7.8      8.065     10.927
REMARK  2 active torsions:
REMARK  status: ('A' for Active; 'I' for Inactive)
REMARK    1  A    between atoms: C6_7  and  O1_8 
REMARK    2  A    between atoms: O1_8  and  C7_9 
ROOT
HETATM    1  C1  UNL     1      30.328  12.157  45.499  1.00  0.00     0.038 C 
HETATM    2  C2  UNL     1      31.035  11.026  44.859  1.00  0.00    -0.007 C 
HETATM    3  C3  UNL     1      31.108   9.884  45.485  1.00  0.00     0.011 C 
HETATM    4  C4  UNL     1      30.371  10.207  46.734  1.00  0.00     0.045 C 
HETATM    5  C5  UNL     1      29.990   9.587  47.860  1.00  0.00     0.043 A 
HETATM    6 CL1  UNL     1      29.458   8.857  49.353  1.00  0.00    -0.146 Cl
HETATM    7  C6  UNL     1      29.908   8.135  47.697  1.00  0.00     0.241 A 
HETATM    8  C13 UNL     1      31.124   7.381  47.917  1.00  0.00    -0.013 C 
HETATM    9  C14 UNL     1      32.115   7.435  48.891  1.00  0.00     0.023 C 
HETATM   10  P1  UNL     1      33.636   6.595  48.631  1.00  0.00    -0.048 P 
HETATM   11  C15 UNL     1      35.103   7.453  48.194  1.00  0.00     0.150 C 
HETATM   12  N1  UNL     1      34.752   8.235  47.137  1.00  0.00    -0.160 NA
HETATM   13  N2  UNL     1      34.160   7.769  46.080  1.00  0.00    -0.138 NA
HETATM   14  C16 UNL     1      32.799   7.852  45.858  1.00  0.00     0.138 C 
HETATM   15  N3  UNL     1      31.564   8.553  45.580  1.00  0.00    -0.242 NA
HETATM   16  C17 UNL     1      32.349   6.518  46.024  1.00  0.00     0.008 C 
HETATM   17  C18 UNL     1      31.315   6.364  46.949  1.00  0.00     0.023 C 
HETATM   18  C19 UNL     1      33.118   5.565  45.143  1.00  0.00     0.209 C 
HETATM   19  O2  UNL     1      34.333   5.349  45.722  1.00  0.00    -0.386 OA
HETATM   20  C20 UNL     1      34.447   4.607  46.837  1.00  0.00     0.173 C 
HETATM   21  C21 UNL     1      33.603   4.849  48.019  1.00  0.00     0.070 C 
HETATM   22  H15 UNL     1      32.386   9.175  45.742  1.00  0.00     0.135 HD
ENDROOT
BRANCH   7  23
HETATM   23  O1  UNL     1      28.854   7.694  48.536  1.00  0.00    -0.354 OA
BRANCH  23  24
HETATM   24  C7  UNL     1      27.962   6.935  47.822  1.00  0.00     0.184 A 
HETATM   25  C8  UNL     1      28.040   5.551  48.407  1.00  0.00     0.008 A 
HETATM   26  C9  UNL     1      27.205   4.705  48.971  1.00  0.00    -0.002 A 
HETATM   27  C10 UNL     1      25.834   5.167  49.087  1.00  0.00    -0.001 A 
HETATM   28  C11 UNL     1      25.649   6.380  48.598  1.00  0.00     0.013 A 
HETATM   29  C12 UNL     1      26.551   7.391  47.944  1.00  0.00     0.225 A 
HETATM   30  F1  UNL     1      26.453   8.598  48.578  1.00  0.00    -0.242 F 
ENDBRANCH  23  24
ENDBRANCH   7  23
TORSDOF 2
ENDMDL
MODEL 5
REMARK VINA RESULT:      -7.8      2.734      4.761
REMARK  2 active torsions:
REMARK  status: ('A' for Active; 'I' for Inactive)
REMARK    1  A    between atoms: C6_7  and  O1_8 
REMARK    2  A    between atoms: O1_8  and  C7_9 
ROOT
HETATM    1  C1  UNL     1      23.150  -0.716  54.112  1.00  0.00     0.038 C 
HETATM    2  C2  UNL     1      22.276  -0.785  52.922  1.00  0.00    -0.007 C 
HETATM    3  C3  UNL     1      22.164   0.262  52.152  1.00  0.00     0.011 C 
HETATM    4  C4  UNL     1      23.059   1.217  52.854  1.00  0.00     0.045 C 
HETATM    5  C5  UNL     1      23.501   2.473  52.701  1.00  0.00     0.043 A 
HETATM    6 CL1  UNL     1      24.122   4.099  52.576  1.00  0.00    -0.146 Cl
HETATM    7  C6  UNL     1      23.429   2.924  51.309  1.00  0.00     0.241 A 
HETATM    8  C13 UNL     1      22.178   3.509  50.875  1.00  0.00    -0.013 C 
HETATM    9  C14 UNL     1      21.309   4.431  51.448  1.00  0.00     0.023 C 
HETATM   10  P1  UNL     1      19.697   4.636  50.779  1.00  0.00    -0.048 P 
HETATM   11  C15 UNL     1      18.278   3.971  51.569  1.00  0.00     0.150 C 
HETATM   12  N1  UNL     1      18.583   2.666  51.803  1.00  0.00    -0.160 NA
HETATM   13  N2  UNL     1      19.011   1.865  50.876  1.00  0.00    -0.138 NA
HETATM   14  C16 UNL     1      20.341   1.546  50.683  1.00  0.00     0.138 C 
HETATM   15  N3  UNL     1      21.599   0.929  51.045  1.00  0.00    -0.242 NA
HETATM   16  C17 UNL     1      20.681   2.224  49.486  1.00  0.00     0.008 C 
HETATM   17  C18 UNL     1      21.789   3.065  49.586  1.00  0.00     0.023 C 
HETATM   18  C19 UNL     1      19.735   1.867  48.365  1.00  0.00     0.209 C 
HETATM   19  O2  UNL     1      18.575   2.555  48.563  1.00  0.00    -0.386 OA
HETATM   20  C20 UNL     1      18.514   3.882  48.358  1.00  0.00     0.173 C 
HETATM   21  C21 UNL     1      19.500   4.804  48.947  1.00  0.00     0.070 C 
HETATM   22  H15 UNL     1      20.861   0.866  51.780  1.00  0.00     0.135 HD
ENDROOT
BRANCH   7  23
HETATM   23  O1  UNL     1      24.522   3.804  51.114  1.00  0.00    -0.354 OA
BRANCH  23  24
HETATM   24  C7  UNL     1      24.956   3.744  49.814  1.00  0.00     0.184 A 
HETATM   25  C8  UNL     1      24.889   5.155  49.294  1.00  0.00     0.008 A 
HETATM   26  C9  UNL     1      25.733   6.023  48.778  1.00  0.00    -0.002 A 
HETATM   27  C10 UNL     1      27.102   5.558  48.649  1.00  0.00    -0.001 A 
HETATM   28  C11 UNL     1      27.276   4.320  49.077  1.00  0.00     0.013 A 
HETATM   29  C12 UNL     1      26.363   3.283  49.670  1.00  0.00     0.225 A 
HETATM   30  F1  UNL     1      26.874   2.815  50.847  1.00  0.00    -0.242 F 
ENDBRANCH  23  24
ENDBRANCH   7  23
TORSDOF 2
ENDMDL
MODEL 6
REMARK VINA RESULT:      -7.4      3.003      4.414
REMARK  2 active torsions:
REMARK  status: ('A' for Active; 'I' for Inactive)
REMARK    1  A    between atoms: C6_7  and  O1_8 
REMARK    2  A    between atoms: O1_8  and  C7_9 
ROOT
HETATM    1  C1  UNL     1      27.168   4.160  48.957  1.00  0.00     0.038 C 
HETATM    2  C2  UNL     1      26.414   5.369  49.352  1.00  0.00    -0.007 C 
HETATM    3  C3  UNL     1      25.135   5.274  49.586  1.00  0.00     0.011 C 
HETATM    4  C4  UNL     1      24.915   3.826  49.333  1.00  0.00     0.045 C 
HETATM    5  C5  UNL     1      23.907   2.944  49.375  1.00  0.00     0.043 A 
HETATM    6 CL1  UNL     1      22.652   1.733  49.404  1.00  0.00    -0.146 Cl
HETATM    7  C6  UNL     1      22.825   3.376  50.262  1.00  0.00     0.241 A 
HETATM    8  C13 UNL     1      21.807   4.228  49.685  1.00  0.00    -0.013 C 
HETATM    9  C14 UNL     1      21.105   4.195  48.485  1.00  0.00     0.023 C 
HETATM   10  P1  UNL     1      20.196   5.608  47.971  1.00  0.00    -0.048 P 
HETATM   11  C15 UNL     1      20.782   6.672  46.704  1.00  0.00     0.150 C 
HETATM   12  N1  UNL     1      22.059   6.976  47.061  1.00  0.00    -0.160 NA
HETATM   13  N2  UNL     1      22.373   7.439  48.232  1.00  0.00    -0.138 NA
HETATM   14  C16 UNL     1      22.879   6.664  49.259  1.00  0.00     0.138 C 
HETATM   15  N3  UNL     1      23.889   5.854  49.904  1.00  0.00    -0.242 NA
HETATM   16  C17 UNL     1      21.807   6.589  50.184  1.00  0.00     0.008 C 
HETATM   17  C18 UNL     1      21.439   5.293  50.545  1.00  0.00     0.023 C 
HETATM   18  C19 UNL     1      21.309   7.963  50.560  1.00  0.00     0.209 C 
HETATM   19  O2  UNL     1      20.542   8.426  49.532  1.00  0.00    -0.386 OA
HETATM   20  C20 UNL     1      19.323   7.913  49.294  1.00  0.00     0.173 C 
HETATM   21  C21 UNL     1      19.098   6.461  49.191  1.00  0.00     0.070 C 
HETATM   22  H15 UNL     1      24.118   6.130  48.924  1.00  0.00     0.135 HD
ENDROOT
BRANCH   7  23
HETATM   23  O1  UNL     1      22.273   2.199  50.826  1.00  0.00    -0.354 OA
BRANCH  23  24
HETATM   24  C7  UNL     1      22.278   2.280  52.196  1.00  0.00     0.184 A 
HETATM   25  C8  UNL     1      20.910   1.835  52.638  1.00  0.00     0.008 A 
HETATM   26  C9  UNL     1      20.417   0.894  53.414  1.00  0.00    -0.002 A 
HETATM   27  C10 UNL     1      21.397   0.025  54.038  1.00  0.00    -0.001 A 
HETATM   28  C11 UNL     1      22.643   0.328  53.719  1.00  0.00     0.013 A 
HETATM   29  C12 UNL     1      23.270   1.382  52.847  1.00  0.00     0.225 A 
HETATM   30  F1  UNL     1      24.118   0.809  51.942  1.00  0.00    -0.242 F 
ENDBRANCH  23  24
ENDBRANCH   7  23
TORSDOF 2
ENDMDL
MODEL 7
REMARK VINA RESULT:      -7.2      7.369     10.821
REMARK  2 active torsions:
REMARK  status: ('A' for Active; 'I' for Inactive)
REMARK    1  A    between atoms: C6_7  and  O1_8 
REMARK    2  A    between atoms: O1_8  and  C7_9 
ROOT
HETATM    1  C1  UNL     1      26.093   5.045  48.570  1.00  0.00     0.038 C 
HETATM    2  C2  UNL     1      27.413   4.717  49.149  1.00  0.00    -0.007 C 
HETATM    3  C3  UNL     1      28.444   5.456  48.846  1.00  0.00     0.011 C 
HETATM    4  C4  UNL     1      27.814   6.447  47.935  1.00  0.00     0.045 C 
HETATM    5  C5  UNL     1      28.173   7.529  47.230  1.00  0.00     0.043 A 
HETATM    6 CL1  UNL     1      28.556   8.944  46.284  1.00  0.00    -0.146 Cl
HETATM    7  C6  UNL     1      29.376   8.169  47.765  1.00  0.00     0.241 A 
HETATM    8  C13 UNL     1      30.649   7.670  47.291  1.00  0.00    -0.013 C 
HETATM    9  C14 UNL     1      31.128   7.325  46.032  1.00  0.00     0.023 C 
HETATM   10  P1  UNL     1      32.623   6.413  45.891  1.00  0.00    -0.048 P 
HETATM   11  C15 UNL     1      32.627   4.700  45.509  1.00  0.00     0.150 C 
HETATM   12  N1  UNL     1      31.755   4.139  46.391  1.00  0.00    -0.160 NA
HETATM   13  N2  UNL     1      31.833   4.324  47.673  1.00  0.00    -0.138 NA
HETATM   14  C16 UNL     1      31.062   5.234  48.370  1.00  0.00     0.138 C 
HETATM   15  N3  UNL     1      29.823   5.745  48.916  1.00  0.00    -0.242 NA
HETATM   16  C17 UNL     1      31.980   6.254  48.723  1.00  0.00     0.008 C 
HETATM   17  C18 UNL     1      31.603   7.539  48.332  1.00  0.00     0.023 C 
HETATM   18  C19 UNL     1      33.176   5.689  49.450  1.00  0.00     0.209 C 
HETATM   19  O2  UNL     1      33.994   5.113  48.524  1.00  0.00    -0.386 OA
HETATM   20  C20 UNL     1      34.711   5.864  47.671  1.00  0.00     0.173 C 
HETATM   21  C21 UNL     1      34.095   6.942  46.879  1.00  0.00     0.070 C 
HETATM   22  H15 UNL     1      29.712   4.906  48.304  1.00  0.00     0.135 HD
ENDROOT
BRANCH   7  23
HETATM   23  O1  UNL     1      29.231   9.559  47.530  1.00  0.00    -0.354 OA
BRANCH  23  24
HETATM   24  C7  UNL     1      29.245  10.248  48.716  1.00  0.00     0.184 A 
HETATM   25  C8  UNL     1      30.541  11.013  48.731  1.00  0.00     0.008 A 
HETATM   26  C9  UNL     1      30.904  12.274  48.824  1.00  0.00    -0.002 A 
HETATM   27  C10 UNL     1      29.816  13.227  48.949  1.00  0.00    -0.001 A 
HETATM   28  C11 UNL     1      28.623  12.660  48.949  1.00  0.00     0.013 A 
HETATM   29  C12 UNL     1      28.142  11.238  48.849  1.00  0.00     0.225 A 
HETATM   30  F1  UNL     1      27.218  11.117  47.851  1.00  0.00    -0.242 F 
ENDBRANCH  23  24
ENDBRANCH   7  23
TORSDOF 2
ENDMDL
MODEL 8
REMARK VINA RESULT:      -7.1      8.374     10.961
REMARK  2 active torsions:
REMARK  status: ('A' for Active; 'I' for Inactive)
REMARK    1  A    between atoms: C6_7  and  O1_8 
REMARK    2  A    between atoms: O1_8  and  C7_9 
ROOT
HETATM    1  C1  UNL     1      26.961   6.085  48.881  1.00  0.00     0.038 C 
HETATM    2  C2  UNL     1      27.083   6.955  47.692  1.00  0.00    -0.007 C 
HETATM    3  C3  UNL     1      28.268   7.321  47.289  1.00  0.00     0.011 C 
HETATM    4  C4  UNL     1      29.124   6.644  48.298  1.00  0.00     0.045 C 
HETATM    5  C5  UNL     1      30.428   6.501  48.570  1.00  0.00     0.043 A 
HETATM    6 CL1  UNL     1      32.104   6.265  48.995  1.00  0.00    -0.146 Cl
HETATM    7  C6  UNL     1      31.270   6.712  47.391  1.00  0.00     0.241 A 
HETATM    8  C13 UNL     1      31.671   8.075  47.109  1.00  0.00    -0.013 C 
HETATM    9  C14 UNL     1      32.144   9.112  47.904  1.00  0.00     0.023 C 
HETATM   10  P1  UNL     1      32.188  10.747  47.262  1.00  0.00    -0.048 P 
HETATM   11  C15 UNL     1      31.008  11.957  47.736  1.00  0.00     0.150 C 
HETATM   12  N1  UNL     1      29.799  11.360  47.558  1.00  0.00    -0.160 NA
HETATM   13  N2  UNL     1      29.451  10.790  46.446  1.00  0.00    -0.138 NA
HETATM   14  C16 UNL     1      29.514   9.428  46.222  1.00  0.00     0.138 C 
HETATM   15  N3  UNL     1      29.109   8.054  46.426  1.00  0.00    -0.242 NA
HETATM   16  C17 UNL     1      30.596   9.284  45.318  1.00  0.00     0.008 C 
HETATM   17  C18 UNL     1      31.585   8.391  45.730  1.00  0.00     0.023 C 
HETATM   18  C19 UNL     1      30.414  10.157  44.100  1.00  0.00     0.209 C 
HETATM   19  O2  UNL     1      30.727  11.436  44.453  1.00  0.00    -0.386 OA
HETATM   20  C20 UNL     1      32.002  11.800  44.676  1.00  0.00     0.173 C 
HETATM   21  C21 UNL     1      32.883  11.030  45.571  1.00  0.00     0.070 C 
HETATM   22  H15 UNL     1      28.654   8.737  47.069  1.00  0.00     0.135 HD
ENDROOT
BRANCH   7  23
HETATM   23  O1  UNL     1      32.386   5.851  47.534  1.00  0.00    -0.354 OA
BRANCH  23  24
HETATM   24  C7  UNL     1      32.444   4.967  46.487  1.00  0.00     0.184 A 
HETATM   25  C8  UNL     1      33.664   5.350  45.693  1.00  0.00     0.008 A 
HETATM   26  C9  UNL     1      34.777   4.763  45.310  1.00  0.00    -0.002 A 
HETATM   27  C10 UNL     1      34.928   3.381  45.731  1.00  0.00    -0.001 A 
HETATM   28  C11 UNL     1      33.905   2.936  46.439  1.00  0.00     0.013 A 
HETATM   29  C12 UNL     1      32.613   3.549  46.906  1.00  0.00     0.225 A 
HETATM   30  F1  UNL     1      32.470   3.390  48.255  1.00  0.00    -0.242 F 
ENDBRANCH  23  24
ENDBRANCH   7  23
TORSDOF 2
ENDMDL
MODEL 9
REMARK VINA RESULT:      -7.1      6.452      9.520
REMARK  2 active torsions:
REMARK  status: ('A' for Active; 'I' for Inactive)
REMARK    1  A    between atoms: C6_7  and  O1_8 
REMARK    2  A    between atoms: O1_8  and  C7_9 
ROOT
HETATM    1  C1  UNL     1      24.965  12.106  47.012  1.00  0.00     0.038 C 
HETATM    2  C2  UNL     1      25.974  11.608  46.053  1.00  0.00    -0.007 C 
HETATM    3  C3  UNL     1      26.759  10.628  46.405  1.00  0.00     0.011 C 
HETATM    4  C4  UNL     1      26.276  10.370  47.787  1.00  0.00     0.045 C 
HETATM    5  C5  UNL     1      26.536   9.531  48.798  1.00  0.00     0.043 A 
HETATM    6 CL1  UNL     1      26.811   8.478  50.162  1.00  0.00    -0.146 Cl
HETATM    7  C6  UNL     1      27.164   8.288  48.344  1.00  0.00     0.241 A 
HETATM    8  C13 UNL     1      28.607   8.291  48.224  1.00  0.00    -0.013 C 
HETATM    9  C14 UNL     1      29.629   8.769  49.036  1.00  0.00     0.023 C 
HETATM   10  P1  UNL     1      31.257   8.912  48.389  1.00  0.00    -0.048 P 
HETATM   11  C15 UNL     1      31.938  10.465  47.939  1.00  0.00     0.150 C 
HETATM   12  N1  UNL     1      31.005  11.040  47.133  1.00  0.00    -0.160 NA
HETATM   13  N2  UNL     1      30.502  10.441  46.097  1.00  0.00    -0.138 NA
HETATM   14  C16 UNL     1      29.279   9.801  46.093  1.00  0.00     0.138 C 
HETATM   15  N3  UNL     1      27.834   9.750  46.150  1.00  0.00    -0.242 NA
HETATM   16  C17 UNL     1      29.618   8.425  46.036  1.00  0.00     0.008 C 
HETATM   17  C18 UNL     1      29.054   7.644  47.045  1.00  0.00     0.023 C 
HETATM   18  C19 UNL     1      30.534   8.134  44.872  1.00  0.00     0.209 C 
HETATM   19  O2  UNL     1      31.787   8.548  45.213  1.00  0.00    -0.386 OA
HETATM   20  C20 UNL     1      32.517   7.873  46.117  1.00  0.00     0.173 C 
HETATM   21  C21 UNL     1      31.970   7.498  47.432  1.00  0.00     0.070 C 
HETATM   22  H15 UNL     1      28.239  10.696  46.321  1.00  0.00     0.135 HD
ENDROOT
BRANCH   7  23
HETATM   23  O1  UNL     1      26.707   7.266  49.212  1.00  0.00    -0.354 OA
BRANCH  23  24
HETATM   24  C7  UNL     1      26.197   6.218  48.487  1.00  0.00     0.184 A 
HETATM   25  C8  UNL     1      27.031   5.021  48.852  1.00  0.00     0.008 A 
HETATM   26  C9  UNL     1      26.817   3.829  49.367  1.00  0.00    -0.002 A 
HETATM   27  C10 UNL     1      25.434   3.529  49.686  1.00  0.00    -0.001 A 
HETATM   28  C11 UNL     1      24.605   4.518  49.402  1.00  0.00     0.013 A 
HETATM   29  C12 UNL     1      24.782   5.892  48.817  1.00  0.00     0.225 A 
HETATM   30  F1  UNL     1      24.213   6.833  49.628  1.00  0.00    -0.242 F 
ENDBRANCH  23  24
ENDBRANCH   7  23
TORSDOF 2
ENDMDL
