MODEL 1
REMARK VINA RESULT:      -8.4      0.000      0.000
REMARK  7 active torsions:
REMARK  status: ('A' for Active; 'I' for Inactive)
REMARK    1  A    between atoms: C2_2  and  C14_18 
REMARK    2  A    between atoms: C3_3  and  C4_4 
REMARK    3  A    between atoms: C14_18  and  O1_19 
REMARK    4  A    between atoms: O1_19  and  C15_20 
REMARK    5  A    between atoms: C15_20  and  N4_21 
REMARK    6  A    between atoms: N4_21  and  O2_22 
REMARK    7  A    between atoms: N4_21  and  C16_23 
ROOT
HETATM    1  C1  UNL     1      26.127   3.485  49.779  1.00  0.00     0.046 C 
HETATM    2  C2  UNL     1      26.089   2.732  51.040  1.00  0.00    -0.058 C 
HETATM    3  C3  UNL     1      24.938   2.821  51.740  1.00  0.00     0.037 C 
ENDROOT
BRANCH   2   4
HETATM    4  C14 UNL     1      27.095   1.890  51.718  1.00  0.00     0.203 C 
BRANCH   4   5
HETATM    5  O1  UNL     1      28.131   2.496  52.329  1.00  0.00    -0.371 OA
BRANCH   5   6
HETATM    6  C15 UNL     1      28.221   2.604  53.668  1.00  0.00     0.290 C 
BRANCH   6   7
HETATM    7  N4  UNL     1      29.233   1.790  54.315  1.00  0.00    -0.151 NA
BRANCH   7   8
HETATM    8  O2  UNL     1      30.016   2.425  55.172  1.00  0.00    -0.309 OA
HETATM    9  H16 UNL     1      29.626   2.470  56.081  1.00  0.00     0.237 HD
ENDBRANCH   7   8
BRANCH   7  10
HETATM   10  C16 UNL     1      28.737   0.544  54.830  1.00  0.00     0.214 C 
HETATM   11  C17 UNL     1      28.875  -0.558  53.803  1.00  0.00     0.223 C 
HETATM   12  O3  UNL     1      27.677  -1.317  53.865  1.00  0.00    -0.301 OA
HETATM   13  C18 UNL     1      26.677  -0.553  54.454  1.00  0.00     0.362 C 
HETATM   14  O4  UNL     1      25.518  -1.016  54.394  1.00  0.00    -0.238 OA
HETATM   15  N5  UNL     1      27.299   0.627  54.999  1.00  0.00    -0.316 N 
HETATM   16  H20 UNL     1      26.575   1.289  55.400  1.00  0.00     0.166 HD
ENDBRANCH   7  10
ENDBRANCH   6   7
ENDBRANCH   5   6
ENDBRANCH   4   5
ENDBRANCH   2   4
BRANCH   3  17
HETATM   17  C4  UNL     1      23.696   3.512  51.519  1.00  0.00     0.072 A 
HETATM   18  N1  UNL     1      23.445   4.833  51.488  1.00  0.00    -0.241 NA
HETATM   19  C5  UNL     1      22.187   5.346  51.294  1.00  0.00     0.236 A 
HETATM   20  N2  UNL     1      21.042   4.586  51.109  1.00  0.00    -0.224 NA
HETATM   21  C6  UNL     1      21.284   3.299  51.142  1.00  0.00     0.140 A 
HETATM   22  C7  UNL     1      22.581   2.739  51.345  1.00  0.00     0.039 A 
HETATM   23  N3  UNL     1      20.292   2.356  51.045  1.00  0.00    -0.357 N 
HETATM   24  C8  UNL     1      22.694   1.232  51.546  1.00  0.00     0.027 C 
HETATM   25  C9  UNL     1      21.454   0.749  51.476  1.00  0.00    -0.022 C 
HETATM   26  C10 UNL     1      20.626   1.138  50.192  1.00  0.00     0.164 C 
HETATM   27  C13 UNL     1      20.643   0.098  52.549  1.00  0.00     0.016 C 
HETATM   28  C12 UNL     1      19.407   0.744  52.527  1.00  0.00     0.012 C 
HETATM   29 BR1  UNL     1      21.802  -1.158  53.340  1.00  0.00    -0.051 Br
HETATM   30  C11 UNL     1      19.090   2.106  51.753  1.00  0.00     0.153 C 
ENDBRANCH   3  17
TORSDOF 7
ENDMDL
MODEL 2
REMARK VINA RESULT:      -8.4      2.147      4.398
REMARK  7 active torsions:
REMARK  status: ('A' for Active; 'I' for Inactive)
REMARK    1  A    between atoms: C2_2  and  C14_18 
REMARK    2  A    between atoms: C3_3  and  C4_4 
REMARK    3  A    between atoms: C14_18  and  O1_19 
REMARK    4  A    between atoms: O1_19  and  C15_20 
REMARK    5  A    between atoms: C15_20  and  N4_21 
REMARK    6  A    between atoms: N4_21  and  O2_22 
REMARK    7  A    between atoms: N4_21  and  C16_23 
ROOT
HETATM    1  C1  UNL     1      21.764  -0.471  54.429  1.00  0.00     0.046 C 
HETATM    2  C2  UNL     1      23.092  -0.153  53.885  1.00  0.00    -0.058 C 
HETATM    3  C3  UNL     1      23.146   0.915  53.061  1.00  0.00     0.037 C 
ENDROOT
BRANCH   2   4
HETATM    4  C14 UNL     1      24.408  -0.802  54.051  1.00  0.00     0.203 C 
BRANCH   4   5
HETATM    5  O1  UNL     1      25.466  -0.282  53.400  1.00  0.00    -0.371 OA
BRANCH   5   6
HETATM    6  C15 UNL     1      26.335  -1.039  52.706  1.00  0.00     0.290 C 
BRANCH   6   7
HETATM    7  N4  UNL     1      27.435  -1.615  53.458  1.00  0.00    -0.151 NA
BRANCH   7   8
HETATM    8  O2  UNL     1      27.785  -2.843  53.111  1.00  0.00    -0.309 OA
HETATM    9  H16 UNL     1      27.842  -3.454  53.888  1.00  0.00     0.237 HD
ENDBRANCH   7   8
BRANCH   7  10
HETATM   10  C16 UNL     1      28.561  -0.735  53.609  1.00  0.00     0.214 C 
HETATM   11  C17 UNL     1      28.566  -0.096  54.980  1.00  0.00     0.223 C 
HETATM   12  O3  UNL     1      28.926   1.264  54.788  1.00  0.00    -0.301 OA
HETATM   13  C18 UNL     1      28.690   1.621  53.465  1.00  0.00     0.362 C 
HETATM   14  O4  UNL     1      28.769   2.839  53.198  1.00  0.00    -0.238 OA
HETATM   15  N5  UNL     1      28.401   0.412  52.737  1.00  0.00    -0.316 N 
HETATM   16  H20 UNL     1      28.138   0.626  51.733  1.00  0.00     0.166 HD
ENDBRANCH   7  10
ENDBRANCH   6   7
ENDBRANCH   5   6
ENDBRANCH   4   5
ENDBRANCH   2   4
BRANCH   3  17
HETATM   17  C4  UNL     1      22.160   1.846  52.582  1.00  0.00     0.072 A 
HETATM   18  N1  UNL     1      20.819   1.742  52.569  1.00  0.00    -0.241 NA
HETATM   19  C5  UNL     1      20.004   2.713  52.044  1.00  0.00     0.236 A 
HETATM   20  N2  UNL     1      20.447   3.897  51.475  1.00  0.00    -0.224 NA
HETATM   21  C6  UNL     1      21.753   4.000  51.485  1.00  0.00     0.140 A 
HETATM   22  C7  UNL     1      22.625   3.004  52.021  1.00  0.00     0.039 A 
HETATM   23  N3  UNL     1      22.418   5.057  50.918  1.00  0.00    -0.357 N 
HETATM   24  C8  UNL     1      24.125   3.164  51.802  1.00  0.00     0.027 C 
HETATM   25  C9  UNL     1      24.287   4.288  51.107  1.00  0.00    -0.022 C 
HETATM   26  C10 UNL     1      23.612   5.581  51.707  1.00  0.00     0.164 C 
HETATM   27  C13 UNL     1      24.802   4.461  49.715  1.00  0.00     0.016 C 
HETATM   28  C12 UNL     1      23.876   5.285  49.074  1.00  0.00     0.012 C 
HETATM   29 BR1  UNL     1      26.357   3.403  49.637  1.00  0.00    -0.051 Br
HETATM   30  C11 UNL     1      22.422   5.650  49.630  1.00  0.00     0.153 C 
ENDBRANCH   3  17
TORSDOF 7
ENDMDL
MODEL 3
REMARK VINA RESULT:      -8.1      1.766      2.238
REMARK  7 active torsions:
REMARK  status: ('A' for Active; 'I' for Inactive)
REMARK    1  A    between atoms: C2_2  and  C14_18 
REMARK    2  A    between atoms: C3_3  and  C4_4 
REMARK    3  A    between atoms: C14_18  and  O1_19 
REMARK    4  A    between atoms: O1_19  and  C15_20 
REMARK    5  A    between atoms: C15_20  and  N4_21 
REMARK    6  A    between atoms: N4_21  and  O2_22 
REMARK    7  A    between atoms: N4_21  and  C16_23 
ROOT
HETATM    1  C1  UNL     1      24.080   4.296  48.947  1.00  0.00     0.046 C 
HETATM    2  C2  UNL     1      24.934   3.641  49.947  1.00  0.00    -0.058 C 
HETATM    3  C3  UNL     1      24.305   3.215  51.064  1.00  0.00     0.037 C 
ENDROOT
BRANCH   2   4
HETATM    4  C14 UNL     1      26.385   3.369  49.981  1.00  0.00     0.203 C 
BRANCH   4   5
HETATM    5  O1  UNL     1      26.839   2.414  50.816  1.00  0.00    -0.371 OA
BRANCH   5   6
HETATM    6  C15 UNL     1      27.075   2.644  52.121  1.00  0.00     0.290 C 
BRANCH   6   7
HETATM    7  N4  UNL     1      28.260   2.023  52.683  1.00  0.00    -0.151 NA
BRANCH   7   8
HETATM    8  O2  UNL     1      29.159   2.854  53.184  1.00  0.00    -0.309 OA
HETATM    9  H16 UNL     1      29.693   2.443  53.910  1.00  0.00     0.237 HD
ENDBRANCH   7   8
BRANCH   7  10
HETATM   10  C16 UNL     1      27.979   0.914  53.552  1.00  0.00     0.214 C 
HETATM   11  C17 UNL     1      29.184   0.577  54.403  1.00  0.00     0.223 C 
HETATM   12  O3  UNL     1      29.271  -0.840  54.433  1.00  0.00    -0.301 OA
HETATM   13  C18 UNL     1      28.566  -1.368  53.357  1.00  0.00     0.362 C 
HETATM   14  O4  UNL     1      28.720  -2.588  53.139  1.00  0.00    -0.238 OA
HETATM   15  N5  UNL     1      27.814  -0.291  52.764  1.00  0.00    -0.316 N 
HETATM   16  H20 UNL     1      27.310  -0.615  51.890  1.00  0.00     0.166 HD
ENDBRANCH   7  10
ENDBRANCH   6   7
ENDBRANCH   5   6
ENDBRANCH   4   5
ENDBRANCH   2   4
BRANCH   3  17
HETATM   17  C4  UNL     1      22.938   3.258  51.507  1.00  0.00     0.072 A 
HETATM   18  N1  UNL     1      22.076   4.291  51.523  1.00  0.00    -0.241 NA
HETATM   19  C5  UNL     1      20.797   4.183  52.011  1.00  0.00     0.236 A 
HETATM   20  N2  UNL     1      20.244   3.025  52.535  1.00  0.00    -0.224 NA
HETATM   21  C6  UNL     1      21.084   2.018  52.522  1.00  0.00     0.140 A 
HETATM   22  C7  UNL     1      22.418   2.103  52.025  1.00  0.00     0.039 A 
HETATM   23  N3  UNL     1      20.776   0.790  53.050  1.00  0.00    -0.357 N 
HETATM   24  C8  UNL     1      23.346   0.912  52.239  1.00  0.00     0.027 C 
HETATM   25  C9  UNL     1      22.636  -0.006  52.891  1.00  0.00    -0.022 C 
HETATM   26  C10 UNL     1      21.257  -0.410  52.242  1.00  0.00     0.164 C 
HETATM   27  C13 UNL     1      22.834  -0.531  54.275  1.00  0.00     0.016 C 
HETATM   28  C12 UNL     1      21.581  -0.460  54.885  1.00  0.00     0.012 C 
HETATM   29 BR1  UNL     1      24.675  -0.908  54.395  1.00  0.00    -0.051 Br
HETATM   30  C11 UNL     1      20.320   0.340  54.314  1.00  0.00     0.153 C 
ENDBRANCH   3  17
TORSDOF 7
ENDMDL
MODEL 4
REMARK VINA RESULT:      -8.0      3.211      7.126
REMARK  7 active torsions:
REMARK  status: ('A' for Active; 'I' for Inactive)
REMARK    1  A    between atoms: C2_2  and  C14_18 
REMARK    2  A    between atoms: C3_3  and  C4_4 
REMARK    3  A    between atoms: C14_18  and  O1_19 
REMARK    4  A    between atoms: O1_19  and  C15_20 
REMARK    5  A    between atoms: C15_20  and  N4_21 
REMARK    6  A    between atoms: N4_21  and  O2_22 
REMARK    7  A    between atoms: N4_21  and  C16_23 
ROOT
HETATM    1  C1  UNL     1      20.739   0.844  53.804  1.00  0.00     0.046 C 
HETATM    2  C2  UNL     1      21.231   0.278  52.541  1.00  0.00    -0.058 C 
HETATM    3  C3  UNL     1      22.411  -0.374  52.612  1.00  0.00     0.037 C 
ENDROOT
BRANCH   2   4
HETATM    4  C14 UNL     1      20.683   0.301  51.169  1.00  0.00     0.203 C 
BRANCH   4   5
HETATM    5  O1  UNL     1      20.759   1.448  50.467  1.00  0.00    -0.371 OA
BRANCH   5   6
HETATM    6  C15 UNL     1      21.646   1.631  49.471  1.00  0.00     0.290 C 
BRANCH   6   7
HETATM    7  N4  UNL     1      22.707   2.589  49.718  1.00  0.00    -0.151 NA
BRANCH   7   8
HETATM    8  O2  UNL     1      23.417   2.941  48.658  1.00  0.00    -0.309 OA
HETATM    9  H16 UNL     1      22.979   2.686  47.807  1.00  0.00     0.237 HD
ENDBRANCH   7   8
BRANCH   7  10
HETATM   10  C16 UNL     1      22.305   3.711  50.519  1.00  0.00     0.214 C 
HETATM   11  C17 UNL     1      23.115   4.940  50.171  1.00  0.00     0.223 C 
HETATM   12  O3  UNL     1      23.430   5.576  51.401  1.00  0.00    -0.301 OA
HETATM   13  C18 UNL     1      23.312   4.657  52.438  1.00  0.00     0.362 C 
HETATM   14  O4  UNL     1      23.751   5.018  53.550  1.00  0.00    -0.238 OA
HETATM   15  N5  UNL     1      22.679   3.479  51.901  1.00  0.00    -0.316 N 
HETATM   16  H20 UNL     1      22.627   2.710  52.628  1.00  0.00     0.166 HD
ENDBRANCH   7  10
ENDBRANCH   6   7
ENDBRANCH   5   6
ENDBRANCH   4   5
ENDBRANCH   2   4
BRANCH   3  17
HETATM   17  C4  UNL     1      23.325  -0.651  53.686  1.00  0.00     0.072 A 
HETATM   18  N1  UNL     1      23.074  -1.091  54.932  1.00  0.00    -0.241 NA
HETATM   19  C5  UNL     1      24.061  -1.280  55.866  1.00  0.00     0.236 A 
HETATM   20  N2  UNL     1      25.411  -1.050  55.650  1.00  0.00    -0.224 NA
HETATM   21  C6  UNL     1      25.658  -0.619  54.437  1.00  0.00     0.140 A 
HETATM   22  C7  UNL     1      24.651  -0.410  53.448  1.00  0.00     0.039 A 
HETATM   23  N3  UNL     1      26.915  -0.264  54.019  1.00  0.00    -0.357 N 
HETATM   24  C8  UNL     1      25.051   0.268  52.142  1.00  0.00     0.027 C 
HETATM   25  C9  UNL     1      26.354   0.526  52.236  1.00  0.00    -0.022 C 
HETATM   26  C10 UNL     1      27.281  -0.695  52.603  1.00  0.00     0.164 C 
HETATM   27  C13 UNL     1      27.043   1.850  52.288  1.00  0.00     0.016 C 
HETATM   28  C12 UNL     1      27.918   1.774  53.372  1.00  0.00     0.012 C 
HETATM   29 BR1  UNL     1      26.264   2.860  50.902  1.00  0.00    -0.051 Br
HETATM   30  C11 UNL     1      27.901   0.636  54.494  1.00  0.00     0.153 C 
ENDBRANCH   3  17
TORSDOF 7
ENDMDL
MODEL 5
REMARK VINA RESULT:      -7.9      3.937      6.703
REMARK  7 active torsions:
REMARK  status: ('A' for Active; 'I' for Inactive)
REMARK    1  A    between atoms: C2_2  and  C14_18 
REMARK    2  A    between atoms: C3_3  and  C4_4 
REMARK    3  A    between atoms: C14_18  and  O1_19 
REMARK    4  A    between atoms: O1_19  and  C15_20 
REMARK    5  A    between atoms: C15_20  and  N4_21 
REMARK    6  A    between atoms: N4_21  and  O2_22 
REMARK    7  A    between atoms: N4_21  and  C16_23 
ROOT
HETATM    1  C1  UNL     1      23.551   4.985  51.514  1.00  0.00     0.046 C 
HETATM    2  C2  UNL     1      24.318   4.334  50.442  1.00  0.00    -0.058 C 
HETATM    3  C3  UNL     1      24.307   2.984  50.452  1.00  0.00     0.037 C 
ENDROOT
BRANCH   2   4
HETATM    4  C14 UNL     1      25.135   4.882  49.340  1.00  0.00     0.203 C 
BRANCH   4   5
HETATM    5  O1  UNL     1      26.474   4.901  49.484  1.00  0.00    -0.371 OA
BRANCH   5   6
HETATM    6  C15 UNL     1      27.300   5.354  48.523  1.00  0.00     0.290 C 
BRANCH   6   7
HETATM    7  N4  UNL     1      27.614   6.771  48.554  1.00  0.00    -0.151 NA
BRANCH   7   8
HETATM    8  O2  UNL     1      27.343   7.391  49.691  1.00  0.00    -0.309 OA
HETATM    9  H16 UNL     1      26.705   6.886  50.256  1.00  0.00     0.237 HD
ENDBRANCH   7   8
BRANCH   7  10
HETATM   10  C16 UNL     1      28.916   7.090  48.040  1.00  0.00     0.214 C 
HETATM   11  C17 UNL     1      29.826   5.882  48.086  1.00  0.00     0.223 C 
HETATM   12  O3  UNL     1      31.093   6.350  48.526  1.00  0.00    -0.301 OA
HETATM   13  C18 UNL     1      30.934   7.569  49.176  1.00  0.00     0.362 C 
HETATM   14  O4  UNL     1      31.930   8.002  49.792  1.00  0.00    -0.238 OA
HETATM   15  N5  UNL     1      29.582   8.010  48.941  1.00  0.00    -0.316 N 
HETATM   16  H20 UNL     1      29.375   8.902  49.474  1.00  0.00     0.166 HD
ENDBRANCH   7  10
ENDBRANCH   6   7
ENDBRANCH   5   6
ENDBRANCH   4   5
ENDBRANCH   2   4
BRANCH   3  17
HETATM   17  C4  UNL     1      23.689   2.005  51.305  1.00  0.00     0.072 A 
HETATM   18  N1  UNL     1      22.385   1.794  51.560  1.00  0.00    -0.241 NA
HETATM   19  C5  UNL     1      21.946   0.829  52.432  1.00  0.00     0.236 A 
HETATM   20  N2  UNL     1      22.769  -0.030  53.143  1.00  0.00    -0.224 NA
HETATM   21  C6  UNL     1      24.040   0.176  52.897  1.00  0.00     0.140 A 
HETATM   22  C7  UNL     1      24.524   1.173  51.999  1.00  0.00     0.039 A 
HETATM   23  N3  UNL     1      25.039  -0.514  53.536  1.00  0.00    -0.357 N 
HETATM   24  C8  UNL     1      26.026   1.430  51.946  1.00  0.00     0.027 C 
HETATM   25  C9  UNL     1      26.582   0.594  52.820  1.00  0.00    -0.022 C 
HETATM   26  C10 UNL     1      26.213  -0.931  52.657  1.00  0.00     0.164 C 
HETATM   27  C13 UNL     1      27.308   0.912  54.086  1.00  0.00     0.016 C 
HETATM   28  C12 UNL     1      26.739   0.091  55.060  1.00  0.00     0.012 C 
HETATM   29 BR1  UNL     1      28.510   2.287  53.626  1.00  0.00    -0.051 Br
HETATM   30  C11 UNL     1      25.380  -0.735  54.894  1.00  0.00     0.153 C 
ENDBRANCH   3  17
TORSDOF 7
ENDMDL
MODEL 6
REMARK VINA RESULT:      -7.9      5.414      8.320
REMARK  7 active torsions:
REMARK  status: ('A' for Active; 'I' for Inactive)
REMARK    1  A    between atoms: C2_2  and  C14_18 
REMARK    2  A    between atoms: C3_3  and  C4_4 
REMARK    3  A    between atoms: C14_18  and  O1_19 
REMARK    4  A    between atoms: O1_19  and  C15_20 
REMARK    5  A    between atoms: C15_20  and  N4_21 
REMARK    6  A    between atoms: N4_21  and  O2_22 
REMARK    7  A    between atoms: N4_21  and  C16_23 
ROOT
HETATM    1  C1  UNL     1      25.476   6.182  49.609  1.00  0.00     0.046 C 
HETATM    2  C2  UNL     1      26.310   5.047  49.190  1.00  0.00    -0.058 C 
HETATM    3  C3  UNL     1      27.438   5.366  48.520  1.00  0.00     0.037 C 
ENDROOT
BRANCH   2   4
HETATM    4  C14 UNL     1      26.141   3.588  49.346  1.00  0.00     0.203 C 
BRANCH   4   5
HETATM    5  O1  UNL     1      26.955   2.936  50.199  1.00  0.00    -0.371 OA
BRANCH   5   6
HETATM    6  C15 UNL     1      26.673   2.800  51.508  1.00  0.00     0.290 C 
BRANCH   6   7
HETATM    7  N4  UNL     1      27.653   2.091  52.310  1.00  0.00    -0.151 NA
BRANCH   7   8
HETATM    8  O2  UNL     1      28.489   2.853  52.996  1.00  0.00    -0.309 OA
HETATM    9  H16 UNL     1      29.332   3.028  52.505  1.00  0.00     0.237 HD
ENDBRANCH   7   8
BRANCH   7  10
HETATM   10  C16 UNL     1      27.100   1.021  53.094  1.00  0.00     0.214 C 
HETATM   11  C17 UNL     1      28.020   0.662  54.240  1.00  0.00     0.223 C 
HETATM   12  O3  UNL     1      28.028  -0.756  54.318  1.00  0.00    -0.301 OA
HETATM   13  C18 UNL     1      27.608  -1.287  53.104  1.00  0.00     0.362 C 
HETATM   14  O4  UNL     1      27.757  -2.519  52.958  1.00  0.00    -0.238 OA
HETATM   15  N5  UNL     1      27.092  -0.200  52.313  1.00  0.00    -0.316 N 
HETATM   16  H20 UNL     1      26.822  -0.529  51.342  1.00  0.00     0.166 HD
ENDBRANCH   7  10
ENDBRANCH   6   7
ENDBRANCH   5   6
ENDBRANCH   4   5
ENDBRANCH   2   4
BRANCH   3  17
HETATM   17  C4  UNL     1      28.028   6.611  48.111  1.00  0.00     0.072 A 
HETATM   18  N1  UNL     1      27.434   7.773  47.783  1.00  0.00    -0.241 NA
HETATM   19  C5  UNL     1      28.139   8.879  47.379  1.00  0.00     0.236 A 
HETATM   20  N2  UNL     1      29.519   8.940  47.261  1.00  0.00    -0.224 NA
HETATM   21  C6  UNL     1      30.099   7.808  47.579  1.00  0.00     0.140 A 
HETATM   22  C7  UNL     1      29.392   6.643  47.998  1.00  0.00     0.039 A 
HETATM   23  N3  UNL     1      31.454   7.616  47.475  1.00  0.00    -0.357 N 
HETATM   24  C8  UNL     1      30.171   5.342  48.157  1.00  0.00     0.027 C 
HETATM   25  C9  UNL     1      31.435   5.620  47.844  1.00  0.00    -0.022 C 
HETATM   26  C10 UNL     1      32.093   6.830  48.614  1.00  0.00     0.164 C 
HETATM   27  C13 UNL     1      32.247   5.116  46.696  1.00  0.00     0.016 C 
HETATM   28  C12 UNL     1      32.821   6.249  46.118  1.00  0.00     0.012 C 
HETATM   29 BR1  UNL     1      31.950   3.257  46.669  1.00  0.00    -0.051 Br
HETATM   30  C11 UNL     1      32.399   7.759  46.428  1.00  0.00     0.153 C 
ENDBRANCH   3  17
TORSDOF 7
ENDMDL
MODEL 7
REMARK VINA RESULT:      -7.8      3.060      5.049
REMARK  7 active torsions:
REMARK  status: ('A' for Active; 'I' for Inactive)
REMARK    1  A    between atoms: C2_2  and  C14_18 
REMARK    2  A    between atoms: C3_3  and  C4_4 
REMARK    3  A    between atoms: C14_18  and  O1_19 
REMARK    4  A    between atoms: O1_19  and  C15_20 
REMARK    5  A    between atoms: C15_20  and  N4_21 
REMARK    6  A    between atoms: N4_21  and  O2_22 
REMARK    7  A    between atoms: N4_21  and  C16_23 
ROOT
HETATM    1  C1  UNL     1      22.971   2.486  50.478  1.00  0.00     0.046 C 
HETATM    2  C2  UNL     1      23.600   2.937  51.727  1.00  0.00    -0.058 C 
HETATM    3  C3  UNL     1      23.497   4.258  51.991  1.00  0.00     0.037 C 
ENDROOT
BRANCH   2   4
HETATM    4  C14 UNL     1      24.359   2.214  52.767  1.00  0.00     0.203 C 
BRANCH   4   5
HETATM    5  O1  UNL     1      25.616   2.614  53.038  1.00  0.00    -0.371 OA
BRANCH   5   6
HETATM    6  C15 UNL     1      26.691   2.109  52.403  1.00  0.00     0.290 C 
BRANCH   6   7
HETATM    7  N4  UNL     1      27.865   1.858  53.218  1.00  0.00    -0.151 NA
BRANCH   7   8
HETATM    8  O2  UNL     1      28.241   2.856  54.002  1.00  0.00    -0.309 OA
HETATM    9  H16 UNL     1      28.295   2.589  54.954  1.00  0.00     0.237 HD
ENDBRANCH   7   8
BRANCH   7  10
HETATM   10  C16 UNL     1      27.844   0.592  53.896  1.00  0.00     0.214 C 
HETATM   11  C17 UNL     1      27.263  -0.486  53.008  1.00  0.00     0.223 C 
HETATM   12  O3  UNL     1      26.416  -1.273  53.832  1.00  0.00    -0.301 OA
HETATM   13  C18 UNL     1      26.064  -0.542  54.961  1.00  0.00     0.362 C 
HETATM   14  O4  UNL     1      25.163  -1.028  55.677  1.00  0.00    -0.238 OA
HETATM   15  N5  UNL     1      26.887   0.640  54.985  1.00  0.00    -0.316 N 
HETATM   16  H20 UNL     1      26.615   1.278  55.786  1.00  0.00     0.166 HD
ENDBRANCH   7  10
ENDBRANCH   6   7
ENDBRANCH   5   6
ENDBRANCH   4   5
ENDBRANCH   2   4
BRANCH   3  17
HETATM   17  C4  UNL     1      22.886   5.360  51.299  1.00  0.00     0.072 A 
HETATM   18  N1  UNL     1      21.583   5.665  51.158  1.00  0.00    -0.241 NA
HETATM   19  C5  UNL     1      21.149   6.747  50.434  1.00  0.00     0.236 A 
HETATM   20  N2  UNL     1      21.976   7.642  49.773  1.00  0.00    -0.224 NA
HETATM   21  C6  UNL     1      23.245   7.345  49.908  1.00  0.00     0.140 A 
HETATM   22  C7  UNL     1      23.724   6.225  50.651  1.00  0.00     0.039 A 
HETATM   23  N3  UNL     1      24.242   8.054  49.287  1.00  0.00    -0.357 N 
HETATM   24  C8  UNL     1      25.209   5.889  50.573  1.00  0.00     0.027 C 
HETATM   25  C9  UNL     1      25.759   6.794  49.765  1.00  0.00    -0.022 C 
HETATM   26  C10 UNL     1      25.489   8.305  50.127  1.00  0.00     0.164 C 
HETATM   27  C13 UNL     1      26.387   6.592  48.425  1.00  0.00     0.016 C 
HETATM   28  C12 UNL     1      25.808   7.550  47.593  1.00  0.00     0.012 C 
HETATM   29 BR1  UNL     1      27.533   5.113  48.642  1.00  0.00    -0.051 Br
HETATM   30  C11 UNL     1      24.512   8.417  47.944  1.00  0.00     0.153 C 
ENDBRANCH   3  17
TORSDOF 7
ENDMDL
MODEL 8
REMARK VINA RESULT:      -7.7      4.447      6.797
REMARK  7 active torsions:
REMARK  status: ('A' for Active; 'I' for Inactive)
REMARK    1  A    between atoms: C2_2  and  C14_18 
REMARK    2  A    between atoms: C3_3  and  C4_4 
REMARK    3  A    between atoms: C14_18  and  O1_19 
REMARK    4  A    between atoms: O1_19  and  C15_20 
REMARK    5  A    between atoms: C15_20  and  N4_21 
REMARK    6  A    between atoms: N4_21  and  O2_22 
REMARK    7  A    between atoms: N4_21  and  C16_23 
ROOT
HETATM    1  C1  UNL     1      25.185   5.811  50.429  1.00  0.00     0.046 C 
HETATM    2  C2  UNL     1      26.014   4.992  49.534  1.00  0.00    -0.058 C 
HETATM    3  C3  UNL     1      25.733   3.671  49.522  1.00  0.00     0.037 C 
ENDROOT
BRANCH   2   4
HETATM    4  C14 UNL     1      27.135   5.336  48.637  1.00  0.00     0.203 C 
BRANCH   4   5
HETATM    5  O1  UNL     1      28.362   4.867  48.934  1.00  0.00    -0.371 OA
BRANCH   5   6
HETATM    6  C15 UNL     1      29.446   5.145  48.187  1.00  0.00     0.290 C 
BRANCH   6   7
HETATM    7  N4  UNL     1      30.601   5.669  48.893  1.00  0.00    -0.151 NA
BRANCH   7   8
HETATM    8  O2  UNL     1      31.646   4.860  48.960  1.00  0.00    -0.309 OA
HETATM    9  H16 UNL     1      31.772   4.335  48.130  1.00  0.00     0.237 HD
ENDBRANCH   7   8
BRANCH   7  10
HETATM   10  C16 UNL     1      30.955   7.009  48.516  1.00  0.00     0.214 C 
HETATM   11  C17 UNL     1      31.749   7.686  49.611  1.00  0.00     0.223 C 
HETATM   12  O3  UNL     1      31.257   9.015  49.702  1.00  0.00    -0.301 OA
HETATM   13  C18 UNL     1      29.990   9.077  49.134  1.00  0.00     0.362 C 
HETATM   14  O4  UNL     1      29.350  10.134  49.320  1.00  0.00    -0.238 OA
HETATM   15  N5  UNL     1      29.760   7.828  48.453  1.00  0.00    -0.316 N 
HETATM   16  H20 UNL     1      28.777   7.784  48.060  1.00  0.00     0.166 HD
ENDBRANCH   7  10
ENDBRANCH   6   7
ENDBRANCH   5   6
ENDBRANCH   4   5
ENDBRANCH   2   4
BRANCH   3  17
HETATM   17  C4  UNL     1      24.769   2.858  50.212  1.00  0.00     0.072 A 
HETATM   18  N1  UNL     1      23.426   2.886  50.151  1.00  0.00    -0.241 NA
HETATM   19  C5  UNL     1      22.630   2.057  50.903  1.00  0.00     0.236 A 
HETATM   20  N2  UNL     1      23.098   1.108  51.798  1.00  0.00    -0.224 NA
HETATM   21  C6  UNL     1      24.407   1.081  51.860  1.00  0.00     0.140 A 
HETATM   22  C7  UNL     1      25.258   1.933  51.094  1.00  0.00     0.039 A 
HETATM   23  N3  UNL     1      25.091   0.264  52.726  1.00  0.00    -0.357 N 
HETATM   24  C8  UNL     1      26.751   1.926  51.399  1.00  0.00     0.027 C 
HETATM   25  C9  UNL     1      26.930   1.054  52.389  1.00  0.00    -0.022 C 
HETATM   26  C10 UNL     1      26.343  -0.392  52.157  1.00  0.00     0.164 C 
HETATM   27  C13 UNL     1      27.385   1.308  53.788  1.00  0.00     0.016 C 
HETATM   28  C12 UNL     1      26.467   0.647  54.606  1.00  0.00     0.012 C 
HETATM   29 BR1  UNL     1      28.886   2.432  53.615  1.00  0.00    -0.051 Br
HETATM   30  C11 UNL     1      25.060   0.059  54.128  1.00  0.00     0.153 C 
ENDBRANCH   3  17
TORSDOF 7
ENDMDL
MODEL 9
REMARK VINA RESULT:      -7.4      4.539      6.666
REMARK  7 active torsions:
REMARK  status: ('A' for Active; 'I' for Inactive)
REMARK    1  A    between atoms: C2_2  and  C14_18 
REMARK    2  A    between atoms: C3_3  and  C4_4 
REMARK    3  A    between atoms: C14_18  and  O1_19 
REMARK    4  A    between atoms: O1_19  and  C15_20 
REMARK    5  A    between atoms: C15_20  and  N4_21 
REMARK    6  A    between atoms: N4_21  and  O2_22 
REMARK    7  A    between atoms: N4_21  and  C16_23 
ROOT
HETATM    1  C1  UNL     1      25.211   5.804  50.399  1.00  0.00     0.046 C 
HETATM    2  C2  UNL     1      26.020   4.970  49.501  1.00  0.00    -0.058 C 
HETATM    3  C3  UNL     1      25.729   3.652  49.505  1.00  0.00     0.037 C 
ENDROOT
BRANCH   2   4
HETATM    4  C14 UNL     1      27.132   5.297  48.585  1.00  0.00     0.203 C 
BRANCH   4   5
HETATM    5  O1  UNL     1      28.394   5.086  49.007  1.00  0.00    -0.371 OA
BRANCH   5   6
HETATM    6  C15 UNL     1      29.468   5.339  48.238  1.00  0.00     0.290 C 
BRANCH   6   7
HETATM    7  N4  UNL     1      30.284   6.478  48.619  1.00  0.00    -0.151 NA
BRANCH   7   8
HETATM    8  O2  UNL     1      29.646   7.454  49.245  1.00  0.00    -0.309 OA
HETATM    9  H16 UNL     1      28.951   7.115  49.865  1.00  0.00     0.237 HD
ENDBRANCH   7   8
BRANCH   7  10
HETATM   10  C16 UNL     1      31.522   6.122  49.254  1.00  0.00     0.214 C 
HETATM   11  C17 UNL     1      32.587   7.160  48.979  1.00  0.00     0.223 C 
HETATM   12  O3  UNL     1      33.786   6.446  48.717  1.00  0.00    -0.301 OA
HETATM   13  C18 UNL     1      33.475   5.141  48.353  1.00  0.00     0.362 C 
HETATM   14  O4  UNL     1      34.415   4.454  47.899  1.00  0.00    -0.238 OA
HETATM   15  N5  UNL     1      32.072   4.942  48.616  1.00  0.00    -0.316 N 
HETATM   16  H20 UNL     1      31.756   3.985  48.289  1.00  0.00     0.166 HD
ENDBRANCH   7  10
ENDBRANCH   6   7
ENDBRANCH   5   6
ENDBRANCH   4   5
ENDBRANCH   2   4
BRANCH   3  17
HETATM   17  C4  UNL     1      24.767   2.853  50.215  1.00  0.00     0.072 A 
HETATM   18  N1  UNL     1      23.423   2.890  50.169  1.00  0.00    -0.241 NA
HETATM   19  C5  UNL     1      22.632   2.075  50.939  1.00  0.00     0.236 A 
HETATM   20  N2  UNL     1      23.104   1.132  51.840  1.00  0.00    -0.224 NA
HETATM   21  C6  UNL     1      24.413   1.097  51.887  1.00  0.00     0.140 A 
HETATM   22  C7  UNL     1      25.260   1.934  51.101  1.00  0.00     0.039 A 
HETATM   23  N3  UNL     1      25.101   0.286  52.754  1.00  0.00    -0.357 N 
HETATM   24  C8  UNL     1      26.757   1.921  51.389  1.00  0.00     0.027 C 
HETATM   25  C9  UNL     1      26.941   1.059  52.387  1.00  0.00    -0.022 C 
HETATM   26  C10 UNL     1      26.342  -0.385  52.178  1.00  0.00     0.164 C 
HETATM   27  C13 UNL     1      27.415   1.326  53.778  1.00  0.00     0.016 C 
HETATM   28  C12 UNL     1      26.502   0.681  54.614  1.00  0.00     0.012 C 
HETATM   29 BR1  UNL     1      28.921   2.437  53.575  1.00  0.00    -0.051 Br
HETATM   30  C11 UNL     1      25.086   0.097  54.159  1.00  0.00     0.153 C 
ENDBRANCH   3  17
TORSDOF 7
ENDMDL
