MODEL 1
REMARK VINA RESULT:      -8.5      0.000      0.000
REMARK  6 active torsions:
REMARK  status: ('A' for Active; 'I' for Inactive)
REMARK    1  A    between atoms: C3_3  and  C4_4 
REMARK    2  A    between atoms: C4_4  and  C5_5 
REMARK    3  A    between atoms: C5_5  and  C6_6 
REMARK    4  A    between atoms: C6_6  and  O1_7 
REMARK    5  A    between atoms: C6_6  and  N1_14 
REMARK    6  A    between atoms: O1_7  and  C7_8 
ROOT
HETATM    1  C6  UNL     1      25.475   1.646  51.961  1.00  0.00     0.250 C 
ENDROOT
BRANCH   1   2
HETATM    2  C5  UNL     1      25.118   2.694  50.919  1.00  0.00     0.060 C 
BRANCH   2   3
HETATM    3  C4  UNL     1      26.406   2.858  50.121  1.00  0.00     0.042 C 
BRANCH   3   4
HETATM    4  C3  UNL     1      26.482   4.153  49.463  1.00  0.00    -0.058 A 
HETATM    5  C2  UNL     1      25.262   4.960  49.402  1.00  0.00     0.031 A 
HETATM    6  C1  UNL     1      25.311   6.151  48.800  1.00  0.00     0.135 A 
HETATM    7  O3  UNL     1      26.419   6.729  48.208  1.00  0.00    -0.359 OA
HETATM    8  C17 UNL     1      27.634   6.044  48.216  1.00  0.00     0.202 A 
HETATM    9  C16 UNL     1      27.546   4.726  48.888  1.00  0.00     0.007 A 
ENDBRANCH   3   4
ENDBRANCH   2   3
ENDBRANCH   1   2
BRANCH   1  10
HETATM   10  O1  UNL     1      24.366   1.181  52.527  1.00  0.00    -0.324 OA
BRANCH  10  11
HETATM   11  C7  UNL     1      23.317   0.741  53.062  1.00  0.00     0.071 A 
HETATM   12  C8  UNL     1      23.524  -0.446  53.821  1.00  0.00     0.037 A 
HETATM   13  C9  UNL     1      22.450  -1.054  54.479  1.00  0.00     0.003 A 
HETATM   14  C10 UNL     1      21.188  -0.467  54.367  1.00  0.00     0.000 A 
HETATM   15  C11 UNL     1      20.928   0.673  53.652  1.00  0.00     0.003 A 
HETATM   16  C12 UNL     1      22.040   1.194  53.045  1.00  0.00     0.037 A 
ENDBRANCH  10  11
ENDBRANCH   1  10
BRANCH   1  17
HETATM   17  N1  UNL     1      26.426   1.946  52.958  1.00  0.00    -0.231 N 
HETATM   18  N2  UNL     1      27.190   2.591  53.924  1.00  0.00    -0.104 NA
HETATM   19  O2  UNL     1      28.535   2.331  53.941  1.00  0.00    -0.236 OA
HETATM   20  H13 UNL     1      26.792   2.375  54.857  1.00  0.00     0.180 HD
HETATM   21  C13 UNL     1      29.155   1.104  53.984  1.00  0.00     0.377 A 
HETATM   22  C14 UNL     1      29.654  -0.378  53.928  1.00  0.00     0.375 A 
HETATM   23  N3  UNL     1      28.331   0.143  53.454  1.00  0.00     0.099 N 
HETATM   24  S1  UNL     1      27.990  -1.073  53.082  1.00  0.00     0.106 SA
HETATM   25  C15 UNL     1      27.188   0.620  53.048  1.00  0.00     0.299 A 
ENDBRANCH   1  17
TORSDOF 6
ENDMDL
MODEL 2
REMARK VINA RESULT:      -8.3      2.624      7.018
REMARK  6 active torsions:
REMARK  status: ('A' for Active; 'I' for Inactive)
REMARK    1  A    between atoms: C3_3  and  C4_4 
REMARK    2  A    between atoms: C4_4  and  C5_5 
REMARK    3  A    between atoms: C5_5  and  C6_6 
REMARK    4  A    between atoms: C6_6  and  O1_7 
REMARK    5  A    between atoms: C6_6  and  N1_14 
REMARK    6  A    between atoms: O1_7  and  C7_8 
ROOT
HETATM    1  C6  UNL     1      25.186   1.881  51.593  1.00  0.00     0.250 C 
ENDROOT
BRANCH   1   2
HETATM    2  C5  UNL     1      24.058   1.979  52.607  1.00  0.00     0.060 C 
BRANCH   2   3
HETATM    3  C4  UNL     1      23.122   0.843  52.213  1.00  0.00     0.042 C 
BRANCH   3   4
HETATM    4  C3  UNL     1      22.896  -0.086  53.308  1.00  0.00    -0.058 A 
HETATM    5  C2  UNL     1      21.571  -0.697  53.423  1.00  0.00     0.031 A 
HETATM    6  C1  UNL     1      21.344  -1.552  54.424  1.00  0.00     0.135 A 
HETATM    7  O3  UNL     1      22.249  -1.940  55.396  1.00  0.00    -0.359 OA
HETATM    8  C17 UNL     1      23.542  -1.419  55.373  1.00  0.00     0.202 A 
HETATM    9  C16 UNL     1      23.761  -0.473  54.255  1.00  0.00     0.007 A 
ENDBRANCH   3   4
ENDBRANCH   2   3
ENDBRANCH   1   2
BRANCH   1  10
HETATM   10  O1  UNL     1      26.239   1.290  52.148  1.00  0.00    -0.324 OA
BRANCH  10  11
HETATM   11  C7  UNL     1      27.234   0.729  52.674  1.00  0.00     0.071 A 
HETATM   12  C8  UNL     1      27.177  -0.693  52.616  1.00  0.00     0.037 A 
HETATM   13  C9  UNL     1      28.214  -1.459  53.158  1.00  0.00     0.003 A 
HETATM   14  C10 UNL     1      29.290  -0.792  53.748  1.00  0.00     0.000 A 
HETATM   15  C11 UNL     1      29.400   0.571  53.833  1.00  0.00     0.003 A 
HETATM   16  C12 UNL     1      28.338   1.233  53.275  1.00  0.00     0.037 A 
ENDBRANCH  10  11
ENDBRANCH   1  10
BRANCH   1  17
HETATM   17  N1  UNL     1      25.603   3.033  50.896  1.00  0.00    -0.231 N 
HETATM   18  N2  UNL     1      26.311   4.147  50.461  1.00  0.00    -0.104 NA
HETATM   19  O2  UNL     1      25.590   5.261  50.122  1.00  0.00    -0.236 OA
HETATM   20  H13 UNL     1      26.902   3.868  49.655  1.00  0.00     0.180 HD
HETATM   21  C13 UNL     1      24.532   5.344  49.247  1.00  0.00     0.377 A 
HETATM   22  C14 UNL     1      23.291   5.200  48.303  1.00  0.00     0.375 A 
HETATM   23  N3  UNL     1      23.902   4.129  49.156  1.00  0.00     0.099 N 
HETATM   24  S1  UNL     1      22.995   3.276  48.725  1.00  0.00     0.106 SA
HETATM   25  C15 UNL     1      24.448   3.214  49.905  1.00  0.00     0.299 A 
ENDBRANCH   1  17
TORSDOF 6
ENDMDL
MODEL 3
REMARK VINA RESULT:      -8.1      3.322      5.938
REMARK  6 active torsions:
REMARK  status: ('A' for Active; 'I' for Inactive)
REMARK    1  A    between atoms: C3_3  and  C4_4 
REMARK    2  A    between atoms: C4_4  and  C5_5 
REMARK    3  A    between atoms: C5_5  and  C6_6 
REMARK    4  A    between atoms: C6_6  and  O1_7 
REMARK    5  A    between atoms: C6_6  and  N1_14 
REMARK    6  A    between atoms: O1_7  and  C7_8 
ROOT
HETATM    1  C6  UNL     1      24.793   2.221  52.924  1.00  0.00     0.250 C 
ENDROOT
BRANCH   1   2
HETATM    2  C5  UNL     1      25.740   1.630  51.892  1.00  0.00     0.060 C 
BRANCH   2   3
HETATM    3  C4  UNL     1      27.054   1.488  52.651  1.00  0.00     0.042 C 
BRANCH   3   4
HETATM    4  C3  UNL     1      27.462   0.099  52.785  1.00  0.00    -0.058 A 
HETATM    5  C2  UNL     1      28.782  -0.173  53.357  1.00  0.00     0.031 A 
HETATM    6  C1  UNL     1      29.174  -1.443  53.486  1.00  0.00     0.135 A 
HETATM    7  O3  UNL     1      28.453  -2.568  53.130  1.00  0.00    -0.359 OA
HETATM    8  C17 UNL     1      27.180  -2.418  52.580  1.00  0.00     0.202 A 
HETATM    9  C16 UNL     1      26.775  -1.000  52.447  1.00  0.00     0.007 A 
ENDBRANCH   3   4
ENDBRANCH   2   3
ENDBRANCH   1   2
BRANCH   1  10
HETATM   10  O1  UNL     1      23.862   1.328  53.241  1.00  0.00    -0.324 OA
BRANCH  10  11
HETATM   11  C7  UNL     1      22.981   0.483  53.543  1.00  0.00     0.071 A 
HETATM   12  C8  UNL     1      21.663   0.891  53.188  1.00  0.00     0.037 A 
HETATM   13  C9  UNL     1      20.574   0.054  53.457  1.00  0.00     0.003 A 
HETATM   14  C10 UNL     1      20.820  -1.173  54.076  1.00  0.00     0.000 A 
HETATM   15  C11 UNL     1      22.065  -1.619  54.439  1.00  0.00     0.003 A 
HETATM   16  C12 UNL     1      23.064  -0.732  54.135  1.00  0.00     0.037 A 
ENDBRANCH  10  11
ENDBRANCH   1  10
BRANCH   1  17
HETATM   17  N1  UNL     1      24.189   3.472  52.685  1.00  0.00    -0.231 N 
HETATM   18  N2  UNL     1      23.710   4.770  52.817  1.00  0.00    -0.104 NA
HETATM   19  O2  UNL     1      22.484   5.049  52.272  1.00  0.00    -0.236 OA
HETATM   20  H13 UNL     1      24.412   5.423  52.421  1.00  0.00     0.180 HD
HETATM   21  C13 UNL     1      22.062   4.810  50.985  1.00  0.00     0.377 A 
HETATM   22  C14 UNL     1      21.751   4.361  49.518  1.00  0.00     0.375 A 
HETATM   23  N3  UNL     1      22.776   3.773  50.441  1.00  0.00     0.099 N 
HETATM   24  S1  UNL     1      23.119   2.913  49.505  1.00  0.00     0.106 SA
HETATM   25  C15 UNL     1      23.660   3.278  51.260  1.00  0.00     0.299 A 
ENDBRANCH   1  17
TORSDOF 6
ENDMDL
MODEL 4
REMARK VINA RESULT:      -8.0      2.300      2.999
REMARK  6 active torsions:
REMARK  status: ('A' for Active; 'I' for Inactive)
REMARK    1  A    between atoms: C3_3  and  C4_4 
REMARK    2  A    between atoms: C4_4  and  C5_5 
REMARK    3  A    between atoms: C5_5  and  C6_6 
REMARK    4  A    between atoms: C6_6  and  O1_7 
REMARK    5  A    between atoms: C6_6  and  N1_14 
REMARK    6  A    between atoms: O1_7  and  C7_8 
ROOT
HETATM    1  C6  UNL     1      24.796   2.000  52.204  1.00  0.00     0.250 C 
ENDROOT
BRANCH   1   2
HETATM    2  C5  UNL     1      24.192   3.216  51.521  1.00  0.00     0.060 C 
BRANCH   2   3
HETATM    3  C4  UNL     1      24.382   2.925  50.037  1.00  0.00     0.042 C 
BRANCH   3   4
HETATM    4  C3  UNL     1      23.120   2.660  49.365  1.00  0.00    -0.058 A 
HETATM    5  C2  UNL     1      22.728   3.551  48.273  1.00  0.00     0.031 A 
HETATM    6  C1  UNL     1      21.571   3.325  47.644  1.00  0.00     0.135 A 
HETATM    7  O3  UNL     1      20.671   2.310  47.917  1.00  0.00    -0.359 OA
HETATM    8  C17 UNL     1      20.953   1.403  48.938  1.00  0.00     0.202 A 
HETATM    9  C16 UNL     1      22.240   1.682  49.616  1.00  0.00     0.007 A 
ENDBRANCH   3   4
ENDBRANCH   2   3
ENDBRANCH   1   2
BRANCH   1  10
HETATM   10  O1  UNL     1      23.832   1.263  52.745  1.00  0.00    -0.324 OA
BRANCH  10  11
HETATM   11  C7  UNL     1      22.919   0.568  53.257  1.00  0.00     0.071 A 
HETATM   12  C8  UNL     1      23.407  -0.528  54.026  1.00  0.00     0.037 A 
HETATM   13  C9  UNL     1      22.510  -1.393  54.661  1.00  0.00     0.003 A 
HETATM   14  C10 UNL     1      21.142  -1.150  54.517  1.00  0.00     0.000 A 
HETATM   15  C11 UNL     1      20.614  -0.114  53.792  1.00  0.00     0.003 A 
HETATM   16  C12 UNL     1      21.569   0.677  53.209  1.00  0.00     0.037 A 
ENDBRANCH  10  11
ENDBRANCH   1  10
BRANCH   1  17
HETATM   17  N1  UNL     1      25.843   2.167  53.134  1.00  0.00    -0.231 N 
HETATM   18  N2  UNL     1      26.715   2.688  54.083  1.00  0.00    -0.104 NA
HETATM   19  O2  UNL     1      28.044   2.382  53.953  1.00  0.00    -0.236 OA
HETATM   20  H13 UNL     1      26.391   2.396  55.024  1.00  0.00     0.180 HD
HETATM   21  C13 UNL     1      28.612   1.136  53.823  1.00  0.00     0.377 A 
HETATM   22  C14 UNL     1      29.041  -0.350  53.582  1.00  0.00     0.375 A 
HETATM   23  N3  UNL     1      27.705   0.261  53.282  1.00  0.00     0.099 N 
HETATM   24  S1  UNL     1      27.281  -0.901  52.828  1.00  0.00     0.106 SA
HETATM   25  C15 UNL     1      26.553   0.814  53.028  1.00  0.00     0.299 A 
ENDBRANCH   1  17
TORSDOF 6
ENDMDL
MODEL 5
REMARK VINA RESULT:      -7.9      1.819      6.503
REMARK  6 active torsions:
REMARK  status: ('A' for Active; 'I' for Inactive)
REMARK    1  A    between atoms: C3_3  and  C4_4 
REMARK    2  A    between atoms: C4_4  and  C5_5 
REMARK    3  A    between atoms: C5_5  and  C6_6 
REMARK    4  A    between atoms: C6_6  and  O1_7 
REMARK    5  A    between atoms: C6_6  and  N1_14 
REMARK    6  A    between atoms: O1_7  and  C7_8 
ROOT
HETATM    1  C6  UNL     1      24.977   1.640  51.879  1.00  0.00     0.250 C 
ENDROOT
BRANCH   1   2
HETATM    2  C5  UNL     1      23.542   1.296  51.515  1.00  0.00     0.060 C 
BRANCH   2   3
HETATM    3  C4  UNL     1      22.757   1.661  52.769  1.00  0.00     0.042 C 
BRANCH   3   4
HETATM    4  C3  UNL     1      22.198   0.490  53.425  1.00  0.00    -0.058 A 
HETATM    5  C2  UNL     1      23.073  -0.277  54.315  1.00  0.00     0.031 A 
HETATM    6  C1  UNL     1      22.578  -1.357  54.926  1.00  0.00     0.135 A 
HETATM    7  O3  UNL     1      21.291  -1.850  54.810  1.00  0.00    -0.359 OA
HETATM    8  C17 UNL     1      20.377  -1.190  53.990  1.00  0.00     0.202 A 
HETATM    9  C16 UNL     1      20.956   0.000  53.325  1.00  0.00     0.007 A 
ENDBRANCH   3   4
ENDBRANCH   2   3
ENDBRANCH   1   2
BRANCH   1  10
HETATM   10  O1  UNL     1      25.414   2.624  51.101  1.00  0.00    -0.324 OA
BRANCH  10  11
HETATM   11  C7  UNL     1      25.827   3.556  50.365  1.00  0.00     0.071 A 
HETATM   12  C8  UNL     1      25.009   4.721  50.416  1.00  0.00     0.037 A 
HETATM   13  C9  UNL     1      25.340   5.844  49.652  1.00  0.00     0.003 A 
HETATM   14  C10 UNL     1      26.481   5.785  48.849  1.00  0.00     0.000 A 
HETATM   15  C11 UNL     1      27.306   4.694  48.759  1.00  0.00     0.003 A 
HETATM   16  C12 UNL     1      26.900   3.646  49.543  1.00  0.00     0.037 A 
ENDBRANCH  10  11
ENDBRANCH   1  10
BRANCH   1  17
HETATM   17  N1  UNL     1      25.948   0.618  51.941  1.00  0.00    -0.231 N 
HETATM   18  N2  UNL     1      26.623  -0.591  51.822  1.00  0.00    -0.104 NA
HETATM   19  O2  UNL     1      27.386  -0.995  52.884  1.00  0.00    -0.236 OA
HETATM   20  H13 UNL     1      27.217  -0.554  50.972  1.00  0.00     0.180 HD
HETATM   21  C13 UNL     1      28.367  -0.283  53.534  1.00  0.00     0.377 A 
HETATM   22  C14 UNL     1      29.364   0.728  54.195  1.00  0.00     0.375 A 
HETATM   23  N3  UNL     1      28.145   1.063  53.389  1.00  0.00     0.099 N 
HETATM   24  S1  UNL     1      28.392   2.346  53.558  1.00  0.00     0.106 SA
HETATM   25  C15 UNL     1      27.080   1.331  52.687  1.00  0.00     0.299 A 
ENDBRANCH   1  17
TORSDOF 6
ENDMDL
MODEL 6
REMARK VINA RESULT:      -7.9      2.554      6.792
REMARK  6 active torsions:
REMARK  status: ('A' for Active; 'I' for Inactive)
REMARK    1  A    between atoms: C3_3  and  C4_4 
REMARK    2  A    between atoms: C4_4  and  C5_5 
REMARK    3  A    between atoms: C5_5  and  C6_6 
REMARK    4  A    between atoms: C6_6  and  O1_7 
REMARK    5  A    between atoms: C6_6  and  N1_14 
REMARK    6  A    between atoms: O1_7  and  C7_8 
ROOT
HETATM    1  C6  UNL     1      24.605   2.316  51.012  1.00  0.00     0.250 C 
ENDROOT
BRANCH   1   2
HETATM    2  C5  UNL     1      23.325   1.537  51.270  1.00  0.00     0.060 C 
BRANCH   2   3
HETATM    3  C4  UNL     1      23.203   1.539  52.789  1.00  0.00     0.042 C 
BRANCH   3   4
HETATM    4  C3  UNL     1      22.287   0.516  53.266  1.00  0.00    -0.058 A 
HETATM    5  C2  UNL     1      22.828  -0.536  54.129  1.00  0.00     0.031 A 
HETATM    6  C1  UNL     1      22.002  -1.486  54.576  1.00  0.00     0.135 A 
HETATM    7  O3  UNL     1      20.650  -1.593  54.308  1.00  0.00    -0.359 OA
HETATM    8  C17 UNL     1      20.035  -0.638  53.499  1.00  0.00     0.202 A 
HETATM    9  C16 UNL     1      20.976   0.399  53.018  1.00  0.00     0.007 A 
ENDBRANCH   3   4
ENDBRANCH   2   3
ENDBRANCH   1   2
BRANCH   1  10
HETATM   10  O1  UNL     1      25.620   1.732  51.639  1.00  0.00    -0.324 OA
BRANCH  10  11
HETATM   11  C7  UNL     1      26.581   1.178  52.230  1.00  0.00     0.071 A 
HETATM   12  C8  UNL     1      26.476  -0.243  52.272  1.00  0.00     0.037 A 
HETATM   13  C9  UNL     1      27.472  -1.002  52.895  1.00  0.00     0.003 A 
HETATM   14  C10 UNL     1      28.555  -0.330  53.466  1.00  0.00     0.000 A 
HETATM   15  C11 UNL     1      28.711   1.031  53.456  1.00  0.00     0.003 A 
HETATM   16  C12 UNL     1      27.687   1.687  52.824  1.00  0.00     0.037 A 
ENDBRANCH  10  11
ENDBRANCH   1  10
BRANCH   1  17
HETATM   17  N1  UNL     1      24.638   3.706  51.250  1.00  0.00    -0.231 N 
HETATM   18  N2  UNL     1      24.388   4.983  51.739  1.00  0.00    -0.104 NA
HETATM   19  O2  UNL     1      24.390   6.015  50.838  1.00  0.00    -0.236 OA
HETATM   20  H13 UNL     1      25.073   5.188  52.490  1.00  0.00     0.180 HD
HETATM   21  C13 UNL     1      25.372   6.337  49.930  1.00  0.00     0.377 A 
HETATM   22  C14 UNL     1      26.552   6.466  48.910  1.00  0.00     0.375 A 
HETATM   23  N3  UNL     1      26.107   5.222  49.618  1.00  0.00     0.099 N 
HETATM   24  S1  UNL     1      27.055   4.541  49.007  1.00  0.00     0.106 SA
HETATM   25  C15 UNL     1      25.703   4.153  50.244  1.00  0.00     0.299 A 
ENDBRANCH   1  17
TORSDOF 6
ENDMDL
MODEL 7
REMARK VINA RESULT:      -7.5      1.910      5.396
REMARK  6 active torsions:
REMARK  status: ('A' for Active; 'I' for Inactive)
REMARK    1  A    between atoms: C3_3  and  C4_4 
REMARK    2  A    between atoms: C4_4  and  C5_5 
REMARK    3  A    between atoms: C5_5  and  C6_6 
REMARK    4  A    between atoms: C6_6  and  O1_7 
REMARK    5  A    between atoms: C6_6  and  N1_14 
REMARK    6  A    between atoms: O1_7  and  C7_8 
ROOT
HETATM    1  C6  UNL     1      24.601   1.457  53.186  1.00  0.00     0.250 C 
ENDROOT
BRANCH   1   2
HETATM    2  C5  UNL     1      23.840   0.266  52.626  1.00  0.00     0.060 C 
BRANCH   2   3
HETATM    3  C4  UNL     1      22.413   0.493  53.108  1.00  0.00     0.042 C 
BRANCH   3   4
HETATM    4  C3  UNL     1      21.477   0.630  52.004  1.00  0.00    -0.058 A 
HETATM    5  C2  UNL     1      22.007   1.064  50.710  1.00  0.00     0.031 A 
HETATM    6  C1  UNL     1      21.162   1.197  49.683  1.00  0.00     0.135 A 
HETATM    7  O3  UNL     1      19.798   0.965  49.704  1.00  0.00    -0.359 OA
HETATM    8  C17 UNL     1      19.195   0.543  50.889  1.00  0.00     0.202 A 
HETATM    9  C16 UNL     1      20.156   0.408  52.007  1.00  0.00     0.007 A 
ENDBRANCH   3   4
ENDBRANCH   2   3
ENDBRANCH   1   2
BRANCH   1  10
HETATM   10  O1  UNL     1      24.889   2.307  52.206  1.00  0.00    -0.324 OA
BRANCH  10  11
HETATM   11  C7  UNL     1      25.161   3.109  51.277  1.00  0.00     0.071 A 
HETATM   12  C8  UNL     1      26.358   2.779  50.578  1.00  0.00     0.037 A 
HETATM   13  C9  UNL     1      26.792   3.578  49.515  1.00  0.00     0.003 A 
HETATM   14  C10 UNL     1      26.025   4.692  49.169  1.00  0.00     0.000 A 
HETATM   15  C11 UNL     1      24.867   5.059  49.804  1.00  0.00     0.003 A 
HETATM   16  C12 UNL     1      24.524   4.217  50.828  1.00  0.00     0.037 A 
ENDBRANCH  10  11
ENDBRANCH   1  10
BRANCH   1  17
HETATM   17  N1  UNL     1      25.746   1.245  53.982  1.00  0.00    -0.231 N 
HETATM   18  N2  UNL     1      26.751   1.368  54.933  1.00  0.00    -0.104 NA
HETATM   19  O2  UNL     1      28.028   1.056  54.547  1.00  0.00    -0.236 OA
HETATM   20  H13 UNL     1      26.497   0.792  55.757  1.00  0.00     0.180 HD
HETATM   21  C13 UNL     1      28.465  -0.100  53.943  1.00  0.00     0.377 A 
HETATM   22  C14 UNL     1      28.731  -1.437  53.174  1.00  0.00     0.375 A 
HETATM   23  N3  UNL     1      27.433  -0.692  53.260  1.00  0.00     0.099 N 
HETATM   24  S1  UNL     1      26.863  -1.608  52.504  1.00  0.00     0.106 SA
HETATM   25  C15 UNL     1      26.316  -0.027  53.348  1.00  0.00     0.299 A 
ENDBRANCH   1  17
TORSDOF 6
ENDMDL
MODEL 8
REMARK VINA RESULT:      -7.3      3.141      5.045
REMARK  6 active torsions:
REMARK  status: ('A' for Active; 'I' for Inactive)
REMARK    1  A    between atoms: C3_3  and  C4_4 
REMARK    2  A    between atoms: C4_4  and  C5_5 
REMARK    3  A    between atoms: C5_5  and  C6_6 
REMARK    4  A    between atoms: C6_6  and  O1_7 
REMARK    5  A    between atoms: C6_6  and  N1_14 
REMARK    6  A    between atoms: O1_7  and  C7_8 
ROOT
HETATM    1  C6  UNL     1      24.405   3.486  50.960  1.00  0.00     0.250 C 
ENDROOT
BRANCH   1   2
HETATM    2  C5  UNL     1      24.787   3.563  49.490  1.00  0.00     0.060 C 
BRANCH   2   3
HETATM    3  C4  UNL     1      26.303   3.717  49.522  1.00  0.00     0.042 C 
BRANCH   3   4
HETATM    4  C3  UNL     1      26.738   4.980  48.947  1.00  0.00    -0.058 A 
HETATM    5  C2  UNL     1      28.141   5.102  48.550  1.00  0.00     0.031 A 
HETATM    6  C1  UNL     1      28.560   6.255  48.022  1.00  0.00     0.135 A 
HETATM    7  O3  UNL     1      27.793   7.385  47.799  1.00  0.00    -0.359 OA
HETATM    8  C17 UNL     1      26.440   7.370  48.138  1.00  0.00     0.202 A 
HETATM    9  C16 UNL     1      26.008   6.081  48.724  1.00  0.00     0.007 A 
ENDBRANCH   3   4
ENDBRANCH   2   3
ENDBRANCH   1   2
BRANCH   1  10
HETATM   10  O1  UNL     1      24.885   2.366  51.490  1.00  0.00    -0.324 OA
BRANCH  10  11
HETATM   11  C7  UNL     1      25.339   1.308  51.994  1.00  0.00     0.071 A 
HETATM   12  C8  UNL     1      24.418   0.655  52.863  1.00  0.00     0.037 A 
HETATM   13  C9  UNL     1      24.778  -0.538  53.498  1.00  0.00     0.003 A 
HETATM   14  C10 UNL     1      26.050  -1.059  53.255  1.00  0.00     0.000 A 
HETATM   15  C11 UNL     1      26.978  -0.477  52.430  1.00  0.00     0.003 A 
HETATM   16  C12 UNL     1      26.534   0.684  51.855  1.00  0.00     0.037 A 
ENDBRANCH  10  11
ENDBRANCH   1  10
BRANCH   1  17
HETATM   17  N1  UNL     1      23.057   3.651  51.342  1.00  0.00    -0.231 N 
HETATM   18  N2  UNL     1      21.890   4.068  51.970  1.00  0.00    -0.104 NA
HETATM   19  O2  UNL     1      20.945   3.115  52.242  1.00  0.00    -0.236 OA
HETATM   20  H13 UNL     1      21.459   4.819  51.398  1.00  0.00     0.180 HD
HETATM   21  C13 UNL     1      20.389   2.208  51.369  1.00  0.00     0.377 A 
HETATM   22  C14 UNL     1      19.965   1.202  50.248  1.00  0.00     0.375 A 
HETATM   23  N3  UNL     1      21.252   1.967  50.330  1.00  0.00     0.099 N 
HETATM   24  S1  UNL     1      21.651   1.408  49.207  1.00  0.00     0.106 SA
HETATM   25  C15 UNL     1      22.363   2.641  50.424  1.00  0.00     0.299 A 
ENDBRANCH   1  17
TORSDOF 6
ENDMDL
MODEL 9
REMARK VINA RESULT:      -7.3      3.545      7.800
REMARK  6 active torsions:
REMARK  status: ('A' for Active; 'I' for Inactive)
REMARK    1  A    between atoms: C3_3  and  C4_4 
REMARK    2  A    between atoms: C4_4  and  C5_5 
REMARK    3  A    between atoms: C5_5  and  C6_6 
REMARK    4  A    between atoms: C6_6  and  O1_7 
REMARK    5  A    between atoms: C6_6  and  N1_14 
REMARK    6  A    between atoms: O1_7  and  C7_8 
ROOT
HETATM    1  C6  UNL     1      25.553   3.520  50.242  1.00  0.00     0.250 C 
ENDROOT
BRANCH   1   2
HETATM    2  C5  UNL     1      26.520   2.468  50.762  1.00  0.00     0.060 C 
BRANCH   2   3
HETATM    3  C4  UNL     1      25.689   1.686  51.772  1.00  0.00     0.042 C 
BRANCH   3   4
HETATM    4  C3  UNL     1      26.470   0.664  52.449  1.00  0.00    -0.058 A 
HETATM    5  C2  UNL     1      27.301   1.078  53.582  1.00  0.00     0.031 A 
HETATM    6  C1  UNL     1      28.027   0.153  54.216  1.00  0.00     0.135 A 
HETATM    7  O3  UNL     1      28.087  -1.195  53.915  1.00  0.00    -0.359 OA
HETATM    8  C17 UNL     1      27.329  -1.693  52.855  1.00  0.00     0.202 A 
HETATM    9  C16 UNL     1      26.538  -0.645  52.171  1.00  0.00     0.007 A 
ENDBRANCH   3   4
ENDBRANCH   2   3
ENDBRANCH   1   2
BRANCH   1  10
HETATM   10  O1  UNL     1      26.219   4.438  49.550  1.00  0.00    -0.324 OA
BRANCH  10  11
HETATM   11  C7  UNL     1      26.848   5.306  48.894  1.00  0.00     0.071 A 
HETATM   12  C8  UNL     1      26.040   6.412  48.499  1.00  0.00     0.037 A 
HETATM   13  C9  UNL     1      26.600   7.462  47.764  1.00  0.00     0.003 A 
HETATM   14  C10 UNL     1      27.955   7.390  47.435  1.00  0.00     0.000 A 
HETATM   15  C11 UNL     1      28.781   6.355  47.787  1.00  0.00     0.003 A 
HETATM   16  C12 UNL     1      28.143   5.377  48.504  1.00  0.00     0.037 A 
ENDBRANCH  10  11
ENDBRANCH   1  10
BRANCH   1  17
HETATM   17  N1  UNL     1      24.660   4.151  51.132  1.00  0.00    -0.231 N 
HETATM   18  N2  UNL     1      24.080   4.728  52.256  1.00  0.00    -0.104 NA
HETATM   19  O2  UNL     1      22.759   4.456  52.494  1.00  0.00    -0.236 OA
HETATM   20  H13 UNL     1      24.210   5.755  52.203  1.00  0.00     0.180 HD
HETATM   21  C13 UNL     1      21.701   4.600  51.627  1.00  0.00     0.377 A 
HETATM   22  C14 UNL     1      20.664   4.738  50.462  1.00  0.00     0.375 A 
HETATM   23  N3  UNL     1      22.141   4.518  50.330  1.00  0.00     0.099 N 
HETATM   24  S1  UNL     1      22.019   4.515  49.019  1.00  0.00     0.106 SA
HETATM   25  C15 UNL     1      23.427   4.325  50.240  1.00  0.00     0.299 A 
ENDBRANCH   1  17
TORSDOF 6
ENDMDL
