MODEL 1
REMARK VINA RESULT:      -8.6      0.000      0.000
REMARK  0 active torsions:
REMARK  status: ('A' for Active; 'I' for Inactive)
ROOT
HETATM    1 CL1  UNL     1      23.095   5.153  47.732  1.00  0.00    -0.084 Cl
HETATM    2  C1  UNL     1      22.388   3.720  48.450  1.00  0.00     0.042 A 
HETATM    3  C2  UNL     1      21.262   3.148  47.921  1.00  0.00     0.024 A 
HETATM    4  C3  UNL     1      20.588   2.034  48.360  1.00  0.00     0.004 A 
HETATM    5  C4  UNL     1      21.202   1.485  49.492  1.00  0.00     0.030 A 
HETATM    6  C5  UNL     1      22.337   2.003  50.084  1.00  0.00     0.038 A 
HETATM    7  C6  UNL     1      22.950   3.124  49.578  1.00  0.00    -0.007 A 
HETATM    8  C7  UNL     1      24.146   3.763  50.117  1.00  0.00     0.070 C 
HETATM    9  C8  UNL     1      25.421   3.381  49.515  1.00  0.00    -0.022 C 
HETATM   10  C9  UNL     1      26.374   2.857  50.310  1.00  0.00    -0.004 C 
HETATM   11  C10 UNL     1      26.860   2.411  51.646  1.00  0.00    -0.004 C 
HETATM   12  C11 UNL     1      27.573   1.934  52.694  1.00  0.00    -0.027 C 
HETATM   13  C12 UNL     1      26.913   1.924  54.020  1.00  0.00     0.029 C 
HETATM   14  C13 UNL     1      26.846   0.562  54.634  1.00  0.00     0.023 C 
HETATM   15  C14 UNL     1      26.245  -0.482  53.770  1.00  0.00     0.120 C 
HETATM   16  N1  UNL     1      24.961  -0.238  53.219  1.00  0.00    -0.390 N 
HETATM   17  C15 UNL     1      23.568  -0.011  53.045  1.00  0.00     0.046 C 
HETATM   18  C16 UNL     1      22.733  -1.060  53.167  1.00  0.00     0.007 C 
HETATM   19  C17 UNL     1      21.250  -0.844  52.992  1.00  0.00     0.075 C 
HETATM   20  C18 UNL     1      20.911   0.540  53.496  1.00  0.00     0.090 C 
HETATM   21  N2  UNL     1      21.704   1.531  53.356  1.00  0.00    -0.274 NA
HETATM   22  C19 UNL     1      22.950   1.312  52.697  1.00  0.00     0.255 C 
HETATM   23  N3  UNL     1      22.838   1.349  51.235  1.00  0.00    -0.362 N 
HETATM   24  H16 UNL     1      24.973  -0.223  52.163  1.00  0.00     0.159 HD
HETATM   25  H22 UNL     1      23.305   0.577  50.666  1.00  0.00     0.162 HD
ENDROOT
TORSDOF 0
ENDMDL
MODEL 2
REMARK VINA RESULT:      -8.5      2.721      6.764
REMARK  0 active torsions:
REMARK  status: ('A' for Active; 'I' for Inactive)
ROOT
HETATM    1 CL1  UNL     1      24.543  -1.357  55.596  1.00  0.00    -0.084 Cl
HETATM    2  C1  UNL     1      25.051  -0.495  54.158  1.00  0.00     0.042 A 
HETATM    3  C2  UNL     1      26.355  -0.524  53.742  1.00  0.00     0.024 A 
HETATM    4  C3  UNL     1      26.913   0.091  52.648  1.00  0.00     0.004 A 
HETATM    5  C4  UNL     1      25.951   0.814  51.931  1.00  0.00     0.030 A 
HETATM    6  C5  UNL     1      24.619   0.892  52.285  1.00  0.00     0.038 A 
HETATM    7  C6  UNL     1      24.144   0.242  53.399  1.00  0.00    -0.007 A 
HETATM    8  C7  UNL     1      22.764   0.254  53.874  1.00  0.00     0.070 C 
HETATM    9  C8  UNL     1      21.917  -0.860  53.454  1.00  0.00    -0.022 C 
HETATM   10  C9  UNL     1      20.790  -0.584  52.770  1.00  0.00    -0.004 C 
HETATM   11  C10 UNL     1      19.846   0.383  52.143  1.00  0.00    -0.004 C 
HETATM   12  C11 UNL     1      18.822   0.991  51.498  1.00  0.00    -0.027 C 
HETATM   13  C12 UNL     1      18.860   2.468  51.401  1.00  0.00     0.029 C 
HETATM   14  C13 UNL     1      18.827   2.966  49.991  1.00  0.00     0.023 C 
HETATM   15  C14 UNL     1      19.858   2.381  49.099  1.00  0.00     0.120 C 
HETATM   16  N1  UNL     1      21.214   2.451  49.508  1.00  0.00    -0.390 N 
HETATM   17  C15 UNL     1      22.512   2.905  49.867  1.00  0.00     0.046 C 
HETATM   18  C16 UNL     1      23.339   3.309  48.885  1.00  0.00     0.007 C 
HETATM   19  C17 UNL     1      24.720   3.801  49.241  1.00  0.00     0.075 C 
HETATM   20  C18 UNL     1      24.646   4.487  50.586  1.00  0.00     0.090 C 
HETATM   21  N2  UNL     1      23.871   4.082  51.517  1.00  0.00    -0.274 NA
HETATM   22  C19 UNL     1      23.054   2.940  51.267  1.00  0.00     0.255 C 
HETATM   23  N3  UNL     1      23.764   1.673  51.471  1.00  0.00    -0.362 N 
HETATM   24  H16 UNL     1      21.646   1.494  49.636  1.00  0.00     0.159 HD
HETATM   25  H22 UNL     1      23.677   0.912  50.729  1.00  0.00     0.162 HD
ENDROOT
TORSDOF 0
ENDMDL
MODEL 3
REMARK VINA RESULT:      -8.4      2.635      4.731
REMARK  0 active torsions:
REMARK  status: ('A' for Active; 'I' for Inactive)
ROOT
HETATM    1 CL1  UNL     1      18.291  -0.509  52.222  1.00  0.00    -0.084 Cl
HETATM    2  C1  UNL     1      19.035   1.025  51.818  1.00  0.00     0.042 A 
HETATM    3  C2  UNL     1      18.272   2.132  51.562  1.00  0.00     0.024 A 
HETATM    4  C3  UNL     1      18.693   3.398  51.233  1.00  0.00     0.004 A 
HETATM    5  C4  UNL     1      20.090   3.466  51.176  1.00  0.00     0.030 A 
HETATM    6  C5  UNL     1      20.928   2.395  51.420  1.00  0.00     0.038 A 
HETATM    7  C6  UNL     1      20.420   1.160  51.745  1.00  0.00    -0.007 A 
HETATM    8  C7  UNL     1      21.201  -0.042  52.019  1.00  0.00     0.070 C 
HETATM    9  C8  UNL     1      21.495  -0.327  53.421  1.00  0.00    -0.022 C 
HETATM   10  C9  UNL     1      22.784  -0.429  53.798  1.00  0.00    -0.004 C 
HETATM   11  C10 UNL     1      24.241  -0.399  53.489  1.00  0.00    -0.004 C 
HETATM   12  C11 UNL     1      25.594  -0.437  53.525  1.00  0.00    -0.027 C 
HETATM   13  C12 UNL     1      26.318  -0.188  52.258  1.00  0.00     0.029 C 
HETATM   14  C13 UNL     1      27.269   0.963  52.339  1.00  0.00     0.023 C 
HETATM   15  C14 UNL     1      26.674   2.230  52.830  1.00  0.00     0.120 C 
HETATM   16  N1  UNL     1      25.516   2.723  52.176  1.00  0.00    -0.390 N 
HETATM   17  C15 UNL     1      24.609   3.259  51.222  1.00  0.00     0.046 C 
HETATM   18  C16 UNL     1      24.678   4.576  50.949  1.00  0.00     0.007 C 
HETATM   19  C17 UNL     1      23.729   5.168  49.936  1.00  0.00     0.075 C 
HETATM   20  C18 UNL     1      23.452   4.123  48.879  1.00  0.00     0.090 C 
HETATM   21  N2  UNL     1      23.370   2.878  49.155  1.00  0.00    -0.274 NA
HETATM   22  C19 UNL     1      23.545   2.474  50.512  1.00  0.00     0.255 C 
HETATM   23  N3  UNL     1      22.322   2.609  51.311  1.00  0.00    -0.362 N 
HETATM   24  H16 UNL     1      24.683   2.783  52.823  1.00  0.00     0.159 HD
HETATM   25  H22 UNL     1      22.386   3.070  52.270  1.00  0.00     0.162 HD
ENDROOT
TORSDOF 0
ENDMDL
MODEL 4
REMARK VINA RESULT:      -8.2      1.078      1.268
REMARK  0 active torsions:
REMARK  status: ('A' for Active; 'I' for Inactive)
ROOT
HETATM    1 CL1  UNL     1      24.606   6.267  48.190  1.00  0.00    -0.084 Cl
HETATM    2  C1  UNL     1      23.473   4.978  48.541  1.00  0.00     0.042 A 
HETATM    3  C2  UNL     1      22.357   4.790  47.771  1.00  0.00     0.024 A 
HETATM    4  C3  UNL     1      21.378   3.837  47.910  1.00  0.00     0.004 A 
HETATM    5  C4  UNL     1      21.639   3.000  49.002  1.00  0.00     0.030 A 
HETATM    6  C5  UNL     1      22.741   3.125  49.825  1.00  0.00     0.038 A 
HETATM    7  C6  UNL     1      23.675   4.110  49.613  1.00  0.00    -0.007 A 
HETATM    8  C7  UNL     1      24.872   4.343  50.415  1.00  0.00     0.070 C 
HETATM    9  C8  UNL     1      26.110   3.733  49.936  1.00  0.00    -0.022 C 
HETATM   10  C9  UNL     1      26.760   2.880  50.751  1.00  0.00    -0.004 C 
HETATM   11  C10 UNL     1      26.887   2.147  52.041  1.00  0.00    -0.004 C 
HETATM   12  C11 UNL     1      27.275   1.365  53.077  1.00  0.00    -0.027 C 
HETATM   13  C12 UNL     1      26.407   1.344  54.277  1.00  0.00     0.029 C 
HETATM   14  C13 UNL     1      25.921  -0.026  54.628  1.00  0.00     0.023 C 
HETATM   15  C14 UNL     1      25.257  -0.755  53.520  1.00  0.00     0.120 C 
HETATM   16  N1  UNL     1      24.182  -0.118  52.849  1.00  0.00    -0.390 N 
HETATM   17  C15 UNL     1      22.933   0.479  52.527  1.00  0.00     0.046 C 
HETATM   18  C16 UNL     1      21.870  -0.328  52.348  1.00  0.00     0.007 C 
HETATM   19  C17 UNL     1      20.532   0.282  52.011  1.00  0.00     0.075 C 
HETATM   20  C18 UNL     1      20.437   1.624  52.699  1.00  0.00     0.090 C 
HETATM   21  N2  UNL     1      21.449   2.390  52.845  1.00  0.00    -0.274 NA
HETATM   22  C19 UNL     1      22.707   1.951  52.336  1.00  0.00     0.255 C 
HETATM   23  N3  UNL     1      22.866   2.214  50.902  1.00  0.00    -0.362 N 
HETATM   24  H16 UNL     1      24.384   0.037  51.823  1.00  0.00     0.159 HD
HETATM   25  H22 UNL     1      23.236   1.434  50.276  1.00  0.00     0.162 HD
ENDROOT
TORSDOF 0
ENDMDL
MODEL 5
REMARK VINA RESULT:      -7.9      2.939      5.813
REMARK  0 active torsions:
REMARK  status: ('A' for Active; 'I' for Inactive)
ROOT
HETATM    1 CL1  UNL     1      25.166  -0.841  54.059  1.00  0.00    -0.084 Cl
HETATM    2  C1  UNL     1      23.446  -0.538  53.922  1.00  0.00     0.042 A 
HETATM    3  C2  UNL     1      22.542  -1.266  54.648  1.00  0.00     0.024 A 
HETATM    4  C3  UNL     1      21.172  -1.156  54.655  1.00  0.00     0.004 A 
HETATM    5  C4  UNL     1      20.742  -0.149  53.782  1.00  0.00     0.030 A 
HETATM    6  C5  UNL     1      21.590   0.626  53.017  1.00  0.00     0.038 A 
HETATM    7  C6  UNL     1      22.952   0.449  53.071  1.00  0.00    -0.007 A 
HETATM    8  C7  UNL     1      23.944   1.201  52.310  1.00  0.00     0.070 C 
HETATM    9  C8  UNL     1      24.550   2.350  52.979  1.00  0.00    -0.022 C 
HETATM   10  C9  UNL     1      24.432   3.562  52.404  1.00  0.00    -0.004 C 
HETATM   11  C10 UNL     1      23.946   4.446  51.307  1.00  0.00    -0.004 C 
HETATM   12  C11 UNL     1      23.652   5.480  50.484  1.00  0.00    -0.027 C 
HETATM   13  C12 UNL     1      22.864   5.181  49.267  1.00  0.00     0.029 C 
HETATM   14  C13 UNL     1      21.589   5.958  49.185  1.00  0.00     0.023 C 
HETATM   15  C14 UNL     1      20.718   5.854  50.381  1.00  0.00     0.120 C 
HETATM   16  N1  UNL     1      20.360   4.560  50.838  1.00  0.00    -0.390 N 
HETATM   17  C15 UNL     1      19.810   3.253  50.952  1.00  0.00     0.046 C 
HETATM   18  C16 UNL     1      18.498   3.138  51.234  1.00  0.00     0.007 C 
HETATM   19  C17 UNL     1      17.890   1.763  51.355  1.00  0.00     0.075 C 
HETATM   20  C18 UNL     1      18.608   0.842  50.395  1.00  0.00     0.090 C 
HETATM   21  N2  UNL     1      19.857   0.950  50.150  1.00  0.00    -0.274 NA
HETATM   22  C19 UNL     1      20.589   1.978  50.814  1.00  0.00     0.255 C 
HETATM   23  N3  UNL     1      21.010   1.598  52.167  1.00  0.00    -0.362 N 
HETATM   24  H16 UNL     1      20.706   4.368  51.818  1.00  0.00     0.159 HD
HETATM   25  H22 UNL     1      20.854   2.289  52.965  1.00  0.00     0.162 HD
ENDROOT
TORSDOF 0
ENDMDL
MODEL 6
REMARK VINA RESULT:      -7.6      3.110      4.698
REMARK  0 active torsions:
REMARK  status: ('A' for Active; 'I' for Inactive)
ROOT
HETATM    1 CL1  UNL     1      27.335   7.928  47.566  1.00  0.00    -0.084 Cl
HETATM    2  C1  UNL     1      25.652   7.453  47.463  1.00  0.00     0.042 A 
HETATM    3  C2  UNL     1      24.825   7.990  46.513  1.00  0.00     0.024 A 
HETATM    4  C3  UNL     1      23.493   7.729  46.299  1.00  0.00     0.004 A 
HETATM    5  C4  UNL     1      23.011   6.785  47.214  1.00  0.00     0.030 A 
HETATM    6  C5  UNL     1      23.780   6.199  48.199  1.00  0.00     0.038 A 
HETATM    7  C6  UNL     1      25.109   6.519  48.342  1.00  0.00    -0.007 A 
HETATM    8  C7  UNL     1      26.018   5.971  49.344  1.00  0.00     0.070 C 
HETATM    9  C8  UNL     1      26.832   4.829  48.935  1.00  0.00    -0.022 C 
HETATM   10  C9  UNL     1      26.727   3.683  49.636  1.00  0.00    -0.004 C 
HETATM   11  C10 UNL     1      26.140   2.880  50.745  1.00  0.00    -0.004 C 
HETATM   12  C11 UNL     1      25.802   1.918  51.636  1.00  0.00    -0.027 C 
HETATM   13  C12 UNL     1      24.791   2.262  52.662  1.00  0.00     0.029 C 
HETATM   14  C13 UNL     1      23.597   1.363  52.636  1.00  0.00     0.023 C 
HETATM   15  C14 UNL     1      22.940   1.235  51.313  1.00  0.00     0.120 C 
HETATM   16  N1  UNL     1      22.551   2.423  50.641  1.00  0.00    -0.390 N 
HETATM   17  C15 UNL     1      21.914   3.639  50.273  1.00  0.00     0.046 C 
HETATM   18  C16 UNL     1      20.666   3.576  49.770  1.00  0.00     0.007 C 
HETATM   19  C17 UNL     1      19.966   4.853  49.376  1.00  0.00     0.075 C 
HETATM   20  C18 UNL     1      20.421   5.950  50.313  1.00  0.00     0.090 C 
HETATM   21  N2  UNL     1      21.613   6.009  50.767  1.00  0.00    -0.274 NA
HETATM   22  C19 UNL     1      22.539   5.000  50.368  1.00  0.00     0.255 C 
HETATM   23  N3  UNL     1      23.152   5.270  49.063  1.00  0.00    -0.362 N 
HETATM   24  H16 UNL     1      23.043   2.540  49.713  1.00  0.00     0.159 HD
HETATM   25  H22 UNL     1      23.200   4.482  48.347  1.00  0.00     0.162 HD
ENDROOT
TORSDOF 0
ENDMDL
MODEL 7
REMARK VINA RESULT:      -7.4      7.900     10.541
REMARK  0 active torsions:
REMARK  status: ('A' for Active; 'I' for Inactive)
ROOT
HETATM    1 CL1  UNL     1      25.190   8.503  50.113  1.00  0.00    -0.084 Cl
HETATM    2  C1  UNL     1      26.336   7.363  49.439  1.00  0.00     0.042 A 
HETATM    3  C2  UNL     1      26.027   6.033  49.330  1.00  0.00     0.024 A 
HETATM    4  C3  UNL     1      26.805   5.018  48.830  1.00  0.00     0.004 A 
HETATM    5  C4  UNL     1      28.049   5.498  48.404  1.00  0.00     0.030 A 
HETATM    6  C5  UNL     1      28.435   6.822  48.480  1.00  0.00     0.038 A 
HETATM    7  C6  UNL     1      27.591   7.776  48.996  1.00  0.00    -0.007 A 
HETATM    8  C7  UNL     1      27.887   9.198  49.131  1.00  0.00     0.070 C 
HETATM    9  C8  UNL     1      27.431  10.068  48.049  1.00  0.00    -0.022 C 
HETATM   10  C9  UNL     1      28.345  10.807  47.392  1.00  0.00    -0.004 C 
HETATM   11  C10 UNL     1      29.750  11.250  47.169  1.00  0.00    -0.004 C 
HETATM   12  C11 UNL     1      30.891  11.837  46.734  1.00  0.00    -0.027 C 
HETATM   13  C12 UNL     1      32.153  11.453  47.404  1.00  0.00     0.029 C 
HETATM   14  C13 UNL     1      33.174  10.895  46.464  1.00  0.00     0.023 C 
HETATM   15  C14 UNL     1      32.696   9.772  45.621  1.00  0.00     0.120 C 
HETATM   16  N1  UNL     1      32.105   8.655  46.266  1.00  0.00    -0.390 N 
HETATM   17  C15 UNL     1      31.877   7.493  47.052  1.00  0.00     0.046 C 
HETATM   18  C16 UNL     1      32.336   6.314  46.592  1.00  0.00     0.007 C 
HETATM   19  C17 UNL     1      32.111   5.067  47.410  1.00  0.00     0.075 C 
HETATM   20  C18 UNL     1      32.146   5.448  48.873  1.00  0.00     0.090 C 
HETATM   21  N2  UNL     1      31.689   6.562  49.299  1.00  0.00    -0.274 NA
HETATM   22  C19 UNL     1      31.127   7.468  48.352  1.00  0.00     0.255 C 
HETATM   23  N3  UNL     1      29.731   7.159  48.023  1.00  0.00    -0.362 N 
HETATM   24  H16 UNL     1      31.100   8.509  45.975  1.00  0.00     0.159 HD
HETATM   25  H22 UNL     1      29.437   7.148  46.998  1.00  0.00     0.162 HD
ENDROOT
TORSDOF 0
ENDMDL
MODEL 8
REMARK VINA RESULT:      -7.3      7.855     10.783
REMARK  0 active torsions:
REMARK  status: ('A' for Active; 'I' for Inactive)
ROOT
HETATM    1 CL1  UNL     1      24.386   6.454  50.498  1.00  0.00    -0.084 Cl
HETATM    2  C1  UNL     1      25.903   6.344  49.629  1.00  0.00     0.042 A 
HETATM    3  C2  UNL     1      26.418   5.130  49.260  1.00  0.00     0.024 A 
HETATM    4  C3  UNL     1      27.585   4.872  48.583  1.00  0.00     0.004 A 
HETATM    5  C4  UNL     1      28.263   6.058  48.275  1.00  0.00     0.030 A 
HETATM    6  C5  UNL     1      27.810   7.318  48.613  1.00  0.00     0.038 A 
HETATM    7  C6  UNL     1      26.627   7.486  49.293  1.00  0.00    -0.007 A 
HETATM    8  C7  UNL     1      26.051   8.761  49.706  1.00  0.00     0.070 C 
HETATM    9  C8  UNL     1      25.063   9.355  48.809  1.00  0.00    -0.022 C 
HETATM   10  C9  UNL     1      25.301  10.588  48.321  1.00  0.00    -0.004 C 
HETATM   11  C10 UNL     1      26.151  11.806  48.207  1.00  0.00    -0.004 C 
HETATM   12  C11 UNL     1      26.682  13.016  47.910  1.00  0.00    -0.027 C 
HETATM   13  C12 UNL     1      27.994  13.350  48.511  1.00  0.00     0.029 C 
HETATM   14  C13 UNL     1      29.043  13.669  47.494  1.00  0.00     0.023 C 
HETATM   15  C14 UNL     1      29.225  12.640  46.442  1.00  0.00     0.120 C 
HETATM   16  N1  UNL     1      29.467  11.303  46.849  1.00  0.00    -0.390 N 
HETATM   17  C15 UNL     1      30.043  10.121  47.390  1.00  0.00     0.046 C 
HETATM   18  C16 UNL     1      31.052   9.539  46.716  1.00  0.00     0.007 C 
HETATM   19  C17 UNL     1      31.684   8.287  47.273  1.00  0.00     0.075 C 
HETATM   20  C18 UNL     1      31.642   8.367  48.782  1.00  0.00     0.090 C 
HETATM   21  N2  UNL     1      30.669   8.905  49.411  1.00  0.00    -0.274 NA
HETATM   22  C19 UNL     1      29.588   9.444  48.650  1.00  0.00     0.255 C 
HETATM   23  N3  UNL     1      28.610   8.427  48.248  1.00  0.00    -0.362 N 
HETATM   24  H16 UNL     1      28.712  10.640  46.521  1.00  0.00     0.159 HD
HETATM   25  H22 UNL     1      28.273   8.413  47.237  1.00  0.00     0.162 HD
ENDROOT
TORSDOF 0
ENDMDL
MODEL 9
REMARK VINA RESULT:      -7.3      2.765      6.640
REMARK  0 active torsions:
REMARK  status: ('A' for Active; 'I' for Inactive)
ROOT
HETATM    1 CL1  UNL     1      25.829   0.901  53.412  1.00  0.00    -0.084 Cl
HETATM    2  C1  UNL     1      25.523   1.848  51.971  1.00  0.00     0.042 A 
HETATM    3  C2  UNL     1      26.554   2.292  51.187  1.00  0.00     0.024 A 
HETATM    4  C3  UNL     1      26.486   3.040  50.036  1.00  0.00     0.004 A 
HETATM    5  C4  UNL     1      25.159   3.335  49.704  1.00  0.00     0.030 A 
HETATM    6  C5  UNL     1      24.067   2.924  50.442  1.00  0.00     0.038 A 
HETATM    7  C6  UNL     1      24.226   2.176  51.584  1.00  0.00    -0.007 A 
HETATM    8  C7  UNL     1      23.153   1.690  52.445  1.00  0.00     0.070 C 
HETATM    9  C8  UNL     1      22.678   0.331  52.197  1.00  0.00    -0.022 C 
HETATM   10  C9  UNL     1      21.376   0.150  51.905  1.00  0.00    -0.004 C 
HETATM   11  C10 UNL     1      20.003   0.681  51.675  1.00  0.00    -0.004 C 
HETATM   12  C11 UNL     1      18.684   0.850  51.419  1.00  0.00    -0.027 C 
HETATM   13  C12 UNL     1      18.155   2.232  51.447  1.00  0.00     0.029 C 
HETATM   14  C13 UNL     1      17.513   2.643  50.160  1.00  0.00     0.023 C 
HETATM   15  C14 UNL     1      18.356   2.456  48.955  1.00  0.00     0.120 C 
HETATM   16  N1  UNL     1      19.651   3.035  48.948  1.00  0.00    -0.390 N 
HETATM   17  C15 UNL     1      20.742   3.947  48.946  1.00  0.00     0.046 C 
HETATM   18  C16 UNL     1      21.022   4.601  47.803  1.00  0.00     0.007 C 
HETATM   19  C17 UNL     1      22.171   5.579  47.777  1.00  0.00     0.075 C 
HETATM   20  C18 UNL     1      22.272   6.225  49.140  1.00  0.00     0.090 C 
HETATM   21  N2  UNL     1      22.022   5.589  50.218  1.00  0.00    -0.274 NA
HETATM   22  C19 UNL     1      21.637   4.218  50.120  1.00  0.00     0.255 C 
HETATM   23  N3  UNL     1      22.782   3.310  49.991  1.00  0.00    -0.362 N 
HETATM   24  H16 UNL     1      20.415   2.310  48.856  1.00  0.00     0.159 HD
HETATM   25  H22 UNL     1      22.751   2.551  49.243  1.00  0.00     0.162 HD
ENDROOT
TORSDOF 0
ENDMDL
