MODEL 1
REMARK VINA RESULT:      -8.6      0.000      0.000
REMARK  4 active torsions:
REMARK  status: ('A' for Active; 'I' for Inactive)
REMARK    1  A    between atoms: C2_2  and  C3_3 
REMARK    2  A    between atoms: C3_3  and  C4_4 
REMARK    3  A    between atoms: C4_4  and  N1_5 
REMARK    4  A    between atoms: C13_14  and  O1_15 
ROOT
HETATM    1  N1  UNL     1      27.055   0.787  52.832  1.00  0.00    -0.334 N 
HETATM    2  C5  UNL     1      26.618  -0.595  52.748  1.00  0.00     0.133 C 
HETATM    3  C6  UNL     1      25.163  -0.742  53.168  1.00  0.00     0.015 C 
HETATM    4  C7  UNL     1      23.884  -0.512  53.372  1.00  0.00     0.001 C 
HETATM    5  C8  UNL     1      22.554   0.145  53.383  1.00  0.00    -0.040 C 
HETATM    6  C9  UNL     1      21.739  -0.867  54.198  1.00  0.00     0.011 C 
HETATM    7  C10 UNL     1      22.651   1.311  52.689  1.00  0.00     0.063 C 
HETATM    8  C11 UNL     1      21.617   2.367  52.398  1.00  0.00    -0.044 C 
HETATM    9  C12 UNL     1      20.146   2.703  52.708  1.00  0.00     0.047 C 
HETATM   10  C13 UNL     1      22.025   3.406  51.611  1.00  0.00     0.078 C 
HETATM   11  C14 UNL     1      23.293   3.631  50.989  1.00  0.00    -0.001 A 
HETATM   12  C15 UNL     1      23.336   4.090  49.659  1.00  0.00     0.014 A 
HETATM   13  C16 UNL     1      24.432   4.312  48.852  1.00  0.00     0.003 A 
HETATM   14  C17 UNL     1      25.696   4.075  49.339  1.00  0.00     0.029 A 
HETATM   15  C18 UNL     1      25.788   3.633  50.599  1.00  0.00     0.037 A 
HETATM   16  C19 UNL     1      24.595   3.444  51.335  1.00  0.00     0.043 A 
HETATM   17  N2  UNL     1      26.766   3.228  51.546  1.00  0.00    -0.309 N 
HETATM   18  C20 UNL     1      26.911   2.010  52.188  1.00  0.00     0.322 C 
HETATM   19  O2  UNL     1      25.951   1.699  51.462  1.00  0.00    -0.247 OA
HETATM   20  H26 UNL     1      27.314   4.074  51.585  1.00  0.00     0.170 HD
ENDROOT
BRANCH   1  21
HETATM   21  C4  UNL     1      28.076   1.141  53.834  1.00  0.00     0.127 C 
BRANCH  21  22
HETATM   22  C3  UNL     1      28.614  -0.053  54.536  1.00  0.00     0.020 C 
BRANCH  22  23
HETATM   23  C2  UNL     1      29.869  -0.519  53.833  1.00  0.00    -0.003 C 
HETATM   24  C1  UNL     1      29.792  -1.962  53.457  1.00  0.00     0.005 C 
ENDBRANCH  22  23
ENDBRANCH  21  22
ENDBRANCH   1  21
BRANCH  10  25
HETATM   25  O1  UNL     1      21.190   4.445  51.279  1.00  0.00    -0.360 OA
HETATM   26  H21 UNL     1      21.411   5.351  51.671  1.00  0.00     0.217 HD
ENDBRANCH  10  25
TORSDOF 4
ENDMDL
MODEL 2
REMARK VINA RESULT:      -8.6      2.178      4.562
REMARK  4 active torsions:
REMARK  status: ('A' for Active; 'I' for Inactive)
REMARK    1  A    between atoms: C2_2  and  C3_3 
REMARK    2  A    between atoms: C3_3  and  C4_4 
REMARK    3  A    between atoms: C4_4  and  N1_5 
REMARK    4  A    between atoms: C13_14  and  O1_15 
ROOT
HETATM    1  N1  UNL     1      25.245   0.388  53.662  1.00  0.00    -0.334 N 
HETATM    2  C5  UNL     1      25.797   1.719  53.843  1.00  0.00     0.133 C 
HETATM    3  C6  UNL     1      25.811   2.495  52.535  1.00  0.00     0.015 C 
HETATM    4  C7  UNL     1      25.499   2.955  51.342  1.00  0.00     0.001 C 
HETATM    5  C8  UNL     1      24.790   3.177  50.058  1.00  0.00    -0.040 C 
HETATM    6  C9  UNL     1      25.759   4.139  49.357  1.00  0.00     0.011 C 
HETATM    7  C10 UNL     1      23.639   2.453  50.077  1.00  0.00     0.063 C 
HETATM    8  C11 UNL     1      22.558   2.304  49.039  1.00  0.00    -0.044 C 
HETATM    9  C12 UNL     1      22.221   2.754  47.606  1.00  0.00     0.047 C 
HETATM   10  C13 UNL     1      21.485   1.537  49.396  1.00  0.00     0.078 C 
HETATM   11  C14 UNL     1      21.217   0.869  50.632  1.00  0.00    -0.001 A 
HETATM   12  C15 UNL     1      19.921   0.926  51.177  1.00  0.00     0.014 A 
HETATM   13  C16 UNL     1      19.459   0.414  52.372  1.00  0.00     0.003 A 
HETATM   14  C17 UNL     1      20.322  -0.257  53.206  1.00  0.00     0.029 A 
HETATM   15  C18 UNL     1      21.591  -0.378  52.796  1.00  0.00     0.037 A 
HETATM   16  C19 UNL     1      21.952   0.184  51.549  1.00  0.00     0.043 A 
HETATM   17  N2  UNL     1      22.833  -0.913  53.230  1.00  0.00    -0.309 N 
HETATM   18  C20 UNL     1      24.037  -0.264  53.446  1.00  0.00     0.322 C 
HETATM   19  O2  UNL     1      23.359   0.739  53.165  1.00  0.00    -0.247 OA
HETATM   20  H26 UNL     1      22.563  -1.877  53.347  1.00  0.00     0.170 HD
ENDROOT
BRANCH   1  21
HETATM   21  C4  UNL     1      26.138  -0.772  53.837  1.00  0.00     0.127 C 
BRANCH  21  22
HETATM   22  C3  UNL     1      27.000  -1.003  52.649  1.00  0.00     0.020 C 
BRANCH  22  23
HETATM   23  C2  UNL     1      28.408  -1.308  53.109  1.00  0.00    -0.003 C 
HETATM   24  C1  UNL     1      28.991  -0.181  53.895  1.00  0.00     0.005 C 
ENDBRANCH  22  23
ENDBRANCH  21  22
ENDBRANCH   1  21
BRANCH  10  25
HETATM   25  O1  UNL     1      20.435   1.305  48.542  1.00  0.00    -0.360 OA
HETATM   26  H21 UNL     1      20.017   0.384  48.573  1.00  0.00     0.217 HD
ENDBRANCH  10  25
TORSDOF 4
ENDMDL
MODEL 3
REMARK VINA RESULT:      -8.5      2.506      6.505
REMARK  4 active torsions:
REMARK  status: ('A' for Active; 'I' for Inactive)
REMARK    1  A    between atoms: C2_2  and  C3_3 
REMARK    2  A    between atoms: C3_3  and  C4_4 
REMARK    3  A    between atoms: C4_4  and  N1_5 
REMARK    4  A    between atoms: C13_14  and  O1_15 
ROOT
HETATM    1  N1  UNL     1      21.044   0.394  51.854  1.00  0.00    -0.334 N 
HETATM    2  C5  UNL     1      20.601   0.240  50.480  1.00  0.00     0.133 C 
HETATM    3  C6  UNL     1      21.138   1.356  49.596  1.00  0.00     0.015 C 
HETATM    4  C7  UNL     1      21.904   2.294  49.081  1.00  0.00     0.001 C 
HETATM    5  C8  UNL     1      23.047   3.209  48.848  1.00  0.00    -0.040 C 
HETATM    6  C9  UNL     1      22.499   4.067  47.700  1.00  0.00     0.011 C 
HETATM    7  C10 UNL     1      24.035   2.888  49.727  1.00  0.00     0.063 C 
HETATM    8  C11 UNL     1      25.397   3.496  49.934  1.00  0.00    -0.044 C 
HETATM    9  C12 UNL     1      26.273   4.650  49.411  1.00  0.00     0.047 C 
HETATM   10  C13 UNL     1      26.186   2.895  50.875  1.00  0.00     0.078 C 
HETATM   11  C14 UNL     1      25.921   1.744  51.681  1.00  0.00    -0.001 A 
HETATM   12  C15 UNL     1      26.931   0.780  51.857  1.00  0.00     0.014 A 
HETATM   13  C16 UNL     1      26.876  -0.421  52.533  1.00  0.00     0.003 A 
HETATM   14  C17 UNL     1      25.707  -0.805  53.147  1.00  0.00     0.029 A 
HETATM   15  C18 UNL     1      24.667   0.032  53.050  1.00  0.00     0.037 A 
HETATM   16  C19 UNL     1      24.840   1.239  52.333  1.00  0.00     0.043 A 
HETATM   17  N2  UNL     1      23.305   0.131  53.440  1.00  0.00    -0.309 N 
HETATM   18  C20 UNL     1      22.176   0.263  52.648  1.00  0.00     0.322 C 
HETATM   19  O2  UNL     1      23.007   0.154  51.731  1.00  0.00    -0.247 OA
HETATM   20  H26 UNL     1      23.416   0.058  54.439  1.00  0.00     0.170 HD
ENDROOT
BRANCH   1  21
HETATM   21  C4  UNL     1      20.036   0.697  52.887  1.00  0.00     0.127 C 
BRANCH  21  22
HETATM   22  C3  UNL     1      19.619  -0.515  53.639  1.00  0.00     0.020 C 
BRANCH  22  23
HETATM   23  C2  UNL     1      18.316  -1.029  53.067  1.00  0.00    -0.003 C 
HETATM   24  C1  UNL     1      17.969  -2.378  53.603  1.00  0.00     0.005 C 
ENDBRANCH  22  23
ENDBRANCH  21  22
ENDBRANCH   1  21
BRANCH  10  25
HETATM   25  O1  UNL     1      27.444   3.354  51.176  1.00  0.00    -0.360 OA
HETATM   26  H21 UNL     1      27.522   3.994  51.956  1.00  0.00     0.217 HD
ENDBRANCH  10  25
TORSDOF 4
ENDMDL
MODEL 4
REMARK VINA RESULT:      -8.2      1.913      5.297
REMARK  4 active torsions:
REMARK  status: ('A' for Active; 'I' for Inactive)
REMARK    1  A    between atoms: C2_2  and  C3_3 
REMARK    2  A    between atoms: C3_3  and  C4_4 
REMARK    3  A    between atoms: C4_4  and  N1_5 
REMARK    4  A    between atoms: C13_14  and  O1_15 
ROOT
HETATM    1  N1  UNL     1      25.029   3.838  50.706  1.00  0.00    -0.334 N 
HETATM    2  C5  UNL     1      24.253   4.964  51.194  1.00  0.00     0.133 C 
HETATM    3  C6  UNL     1      22.801   4.576  51.432  1.00  0.00     0.015 C 
HETATM    4  C7  UNL     1      21.713   3.898  51.728  1.00  0.00     0.001 C 
HETATM    5  C8  UNL     1      20.806   2.803  52.147  1.00  0.00    -0.040 C 
HETATM    6  C9  UNL     1      19.438   3.458  51.918  1.00  0.00     0.011 C 
HETATM    7  C10 UNL     1      21.569   1.744  52.533  1.00  0.00     0.063 C 
HETATM    8  C11 UNL     1      21.170   0.381  53.034  1.00  0.00    -0.044 C 
HETATM    9  C12 UNL     1      19.910  -0.464  53.297  1.00  0.00     0.047 C 
HETATM   10  C13 UNL     1      22.194  -0.448  53.400  1.00  0.00     0.078 C 
HETATM   11  C14 UNL     1      23.602  -0.203  53.405  1.00  0.00    -0.001 A 
HETATM   12  C15 UNL     1      24.371  -0.629  54.504  1.00  0.00     0.014 A 
HETATM   13  C16 UNL     1      25.716  -0.446  54.746  1.00  0.00     0.003 A 
HETATM   14  C17 UNL     1      26.485   0.240  53.836  1.00  0.00     0.029 A 
HETATM   15  C18 UNL     1      25.866   0.700  52.742  1.00  0.00     0.037 A 
HETATM   16  C19 UNL     1      24.481   0.450  52.598  1.00  0.00     0.043 A 
HETATM   17  N2  UNL     1      26.139   1.444  51.564  1.00  0.00    -0.309 N 
HETATM   18  C20 UNL     1      25.585   2.638  51.135  1.00  0.00     0.322 C 
HETATM   19  O2  UNL     1      25.000   2.570  52.229  1.00  0.00    -0.247 OA
HETATM   20  H26 UNL     1      26.853   0.857  51.162  1.00  0.00     0.170 HD
ENDROOT
BRANCH   1  21
HETATM   21  C4  UNL     1      25.558   3.891  49.331  1.00  0.00     0.127 C 
BRANCH  21  22
HETATM   22  C3  UNL     1      27.022   4.143  49.301  1.00  0.00     0.020 C 
BRANCH  22  23
HETATM   23  C2  UNL     1      27.283   5.472  48.628  1.00  0.00    -0.003 C 
HETATM   24  C1  UNL     1      28.722   5.636  48.264  1.00  0.00     0.005 C 
ENDBRANCH  22  23
ENDBRANCH  21  22
ENDBRANCH   1  21
BRANCH  10  25
HETATM   25  O1  UNL     1      21.974  -1.723  53.860  1.00  0.00    -0.360 OA
HETATM   26  H21 UNL     1      21.363  -1.820  54.660  1.00  0.00     0.217 HD
ENDBRANCH  10  25
TORSDOF 4
ENDMDL
MODEL 5
REMARK VINA RESULT:      -8.1      2.907      6.590
REMARK  4 active torsions:
REMARK  status: ('A' for Active; 'I' for Inactive)
REMARK    1  A    between atoms: C2_2  and  C3_3 
REMARK    2  A    between atoms: C3_3  and  C4_4 
REMARK    3  A    between atoms: C4_4  and  N1_5 
REMARK    4  A    between atoms: C13_14  and  O1_15 
ROOT
HETATM    1  N1  UNL     1      22.579   4.267  51.080  1.00  0.00    -0.334 N 
HETATM    2  C5  UNL     1      23.718   3.777  50.323  1.00  0.00     0.133 C 
HETATM    3  C6  UNL     1      24.509   2.747  51.116  1.00  0.00     0.015 C 
HETATM    4  C7  UNL     1      24.835   1.775  51.941  1.00  0.00     0.001 C 
HETATM    5  C8  UNL     1      24.740   0.682  52.938  1.00  0.00    -0.040 C 
HETATM    6  C9  UNL     1      26.225   0.357  53.151  1.00  0.00     0.011 C 
HETATM    7  C10 UNL     1      23.425   0.465  53.207  1.00  0.00     0.063 C 
HETATM    8  C11 UNL     1      22.765  -0.512  54.144  1.00  0.00    -0.044 C 
HETATM    9  C12 UNL     1      23.128  -1.588  55.184  1.00  0.00     0.047 C 
HETATM   10  C13 UNL     1      21.398  -0.519  54.139  1.00  0.00     0.078 C 
HETATM   11  C14 UNL     1      20.489   0.250  53.348  1.00  0.00    -0.001 A 
HETATM   12  C15 UNL     1      19.366  -0.381  52.780  1.00  0.00     0.014 A 
HETATM   13  C16 UNL     1      18.405   0.146  51.944  1.00  0.00     0.003 A 
HETATM   14  C17 UNL     1      18.483   1.465  51.560  1.00  0.00     0.029 A 
HETATM   15  C18 UNL     1      19.513   2.175  52.037  1.00  0.00     0.037 A 
HETATM   16  C19 UNL     1      20.437   1.530  52.891  1.00  0.00     0.043 A 
HETATM   17  N2  UNL     1      20.068   3.480  51.959  1.00  0.00    -0.309 N 
HETATM   18  C20 UNL     1      21.321   3.873  51.521  1.00  0.00     0.322 C 
HETATM   19  O2  UNL     1      21.433   2.661  51.269  1.00  0.00    -0.247 OA
HETATM   20  H26 UNL     1      19.280   4.012  52.295  1.00  0.00     0.170 HD
ENDROOT
BRANCH   1  21
HETATM   21  C4  UNL     1      22.574   5.677  51.508  1.00  0.00     0.127 C 
BRANCH  21  22
HETATM   22  C3  UNL     1      21.672   6.515  50.676  1.00  0.00     0.020 C 
BRANCH  22  23
HETATM   23  C2  UNL     1      22.413   7.759  50.239  1.00  0.00    -0.003 C 
HETATM   24  C1  UNL     1      23.817   7.776  50.746  1.00  0.00     0.005 C 
ENDBRANCH  22  23
ENDBRANCH  21  22
ENDBRANCH   1  21
BRANCH  10  25
HETATM   25  O1  UNL     1      20.668  -1.349  54.953  1.00  0.00    -0.360 OA
HETATM   26  H21 UNL     1      20.326  -2.208  54.542  1.00  0.00     0.217 HD
ENDBRANCH  10  25
TORSDOF 4
ENDMDL
MODEL 6
REMARK VINA RESULT:      -7.6      2.186      4.716
REMARK  4 active torsions:
REMARK  status: ('A' for Active; 'I' for Inactive)
REMARK    1  A    between atoms: C2_2  and  C3_3 
REMARK    2  A    between atoms: C3_3  and  C4_4 
REMARK    3  A    between atoms: C4_4  and  N1_5 
REMARK    4  A    between atoms: C13_14  and  O1_15 
ROOT
HETATM    1  N1  UNL     1      25.255   1.334  53.103  1.00  0.00    -0.334 N 
HETATM    2  C5  UNL     1      25.312   2.654  53.707  1.00  0.00     0.133 C 
HETATM    3  C6  UNL     1      24.320   3.605  53.056  1.00  0.00     0.015 C 
HETATM    4  C7  UNL     1      23.257   4.096  52.456  1.00  0.00     0.001 C 
HETATM    5  C8  UNL     1      21.926   4.202  51.811  1.00  0.00    -0.040 C 
HETATM    6  C9  UNL     1      21.928   5.676  51.386  1.00  0.00     0.011 C 
HETATM    7  C10 UNL     1      21.321   2.986  51.882  1.00  0.00     0.063 C 
HETATM    8  C11 UNL     1      19.976   2.529  51.380  1.00  0.00    -0.044 C 
HETATM    9  C12 UNL     1      18.762   3.058  50.595  1.00  0.00     0.047 C 
HETATM   10  C13 UNL     1      19.635   1.238  51.668  1.00  0.00     0.078 C 
HETATM   11  C14 UNL     1      20.357   0.250  52.408  1.00  0.00    -0.001 A 
HETATM   12  C15 UNL     1      19.670  -0.555  53.335  1.00  0.00     0.014 A 
HETATM   13  C16 UNL     1      20.171  -1.514  54.190  1.00  0.00     0.003 A 
HETATM   14  C17 UNL     1      21.520  -1.780  54.202  1.00  0.00     0.029 A 
HETATM   15  C18 UNL     1      22.285  -1.075  53.360  1.00  0.00     0.037 A 
HETATM   16  C19 UNL     1      21.662  -0.118  52.526  1.00  0.00     0.043 A 
HETATM   17  N2  UNL     1      23.647  -0.924  52.988  1.00  0.00    -0.309 N 
HETATM   18  C20 UNL     1      24.450   0.203  53.045  1.00  0.00     0.322 C 
HETATM   19  O2  UNL     1      23.437   0.698  53.567  1.00  0.00    -0.247 OA
HETATM   20  H26 UNL     1      23.843  -1.869  52.698  1.00  0.00     0.170 HD
ENDROOT
BRANCH   1  21
HETATM   21  C4  UNL     1      26.424   0.859  52.341  1.00  0.00     0.127 C 
BRANCH  21  22
HETATM   22  C3  UNL     1      27.708   1.200  53.009  1.00  0.00     0.020 C 
BRANCH  22  23
HETATM   23  C2  UNL     1      28.075   0.094  53.972  1.00  0.00    -0.003 C 
HETATM   24  C1  UNL     1      29.159  -0.777  53.430  1.00  0.00     0.005 C 
ENDBRANCH  22  23
ENDBRANCH  21  22
ENDBRANCH   1  21
BRANCH  10  25
HETATM   25  O1  UNL     1      18.445   0.687  51.259  1.00  0.00    -0.360 OA
HETATM   26  H21 UNL     1      17.767   0.478  51.980  1.00  0.00     0.217 HD
ENDBRANCH  10  25
TORSDOF 4
ENDMDL
MODEL 7
REMARK VINA RESULT:      -7.4      2.667      5.448
REMARK  4 active torsions:
REMARK  status: ('A' for Active; 'I' for Inactive)
REMARK    1  A    between atoms: C2_2  and  C3_3 
REMARK    2  A    between atoms: C3_3  and  C4_4 
REMARK    3  A    between atoms: C4_4  and  N1_5 
REMARK    4  A    between atoms: C13_14  and  O1_15 
ROOT
HETATM    1  N1  UNL     1      24.326   2.253  53.090  1.00  0.00    -0.334 N 
HETATM    2  C5  UNL     1      24.164   3.666  53.385  1.00  0.00     0.133 C 
HETATM    3  C6  UNL     1      23.390   4.376  52.284  1.00  0.00     0.015 C 
HETATM    4  C7  UNL     1      22.545   4.640  51.311  1.00  0.00     0.001 C 
HETATM    5  C8  UNL     1      21.469   4.496  50.301  1.00  0.00    -0.040 C 
HETATM    6  C9  UNL     1      21.561   5.850  49.586  1.00  0.00     0.011 C 
HETATM    7  C10 UNL     1      20.903   3.268  50.456  1.00  0.00     0.063 C 
HETATM    8  C11 UNL     1      19.785   2.602  49.697  1.00  0.00    -0.044 C 
HETATM    9  C12 UNL     1      18.851   2.853  48.499  1.00  0.00     0.047 C 
HETATM   10  C13 UNL     1      19.406   1.369  50.147  1.00  0.00     0.078 C 
HETATM   11  C14 UNL     1      19.897   0.617  51.260  1.00  0.00    -0.001 A 
HETATM   12  C15 UNL     1      18.984  -0.046  52.100  1.00  0.00     0.014 A 
HETATM   13  C16 UNL     1      19.227  -0.767  53.250  1.00  0.00     0.003 A 
HETATM   14  C17 UNL     1      20.517  -0.903  53.709  1.00  0.00     0.029 A 
HETATM   15  C18 UNL     1      21.482  -0.314  52.992  1.00  0.00     0.037 A 
HETATM   16  C19 UNL     1      21.114   0.398  51.826  1.00  0.00     0.043 A 
HETATM   17  N2  UNL     1      22.888  -0.118  53.007  1.00  0.00    -0.309 N 
HETATM   18  C20 UNL     1      23.606   1.065  53.048  1.00  0.00     0.322 C 
HETATM   19  O2  UNL     1      22.470   1.561  53.135  1.00  0.00    -0.247 OA
HETATM   20  H26 UNL     1      23.186  -1.081  52.998  1.00  0.00     0.170 HD
ENDROOT
BRANCH   1  21
HETATM   21  C4  UNL     1      25.683   1.743  52.822  1.00  0.00     0.127 C 
BRANCH  21  22
HETATM   22  C3  UNL     1      25.917   1.500  51.374  1.00  0.00     0.020 C 
BRANCH  22  23
HETATM   23  C2  UNL     1      26.581   2.716  50.768  1.00  0.00    -0.003 C 
HETATM   24  C1  UNL     1      25.748   3.321  49.687  1.00  0.00     0.005 C 
ENDBRANCH  22  23
ENDBRANCH  21  22
ENDBRANCH   1  21
BRANCH  10  25
HETATM   25  O1  UNL     1      18.411   0.643  49.540  1.00  0.00    -0.360 OA
HETATM   26  H21 UNL     1      18.702  -0.115  48.935  1.00  0.00     0.217 HD
ENDBRANCH  10  25
TORSDOF 4
ENDMDL
MODEL 8
REMARK VINA RESULT:      -7.4      2.298      5.974
REMARK  4 active torsions:
REMARK  status: ('A' for Active; 'I' for Inactive)
REMARK    1  A    between atoms: C2_2  and  C3_3 
REMARK    2  A    between atoms: C3_3  and  C4_4 
REMARK    3  A    between atoms: C4_4  and  N1_5 
REMARK    4  A    between atoms: C13_14  and  O1_15 
ROOT
HETATM    1  N1  UNL     1      24.713   4.330  50.089  1.00  0.00    -0.334 N 
HETATM    2  C5  UNL     1      25.896   3.704  49.525  1.00  0.00     0.133 C 
HETATM    3  C6  UNL     1      26.544   2.748  50.515  1.00  0.00     0.015 C 
HETATM    4  C7  UNL     1      26.730   1.873  51.480  1.00  0.00     0.001 C 
HETATM    5  C8  UNL     1      26.474   0.915  52.582  1.00  0.00    -0.040 C 
HETATM    6  C9  UNL     1      27.908   0.558  52.994  1.00  0.00     0.011 C 
HETATM    7  C10 UNL     1      25.128   0.787  52.730  1.00  0.00     0.063 C 
HETATM    8  C11 UNL     1      24.322  -0.039  53.698  1.00  0.00    -0.044 C 
HETATM    9  C12 UNL     1      24.517  -0.992  54.891  1.00  0.00     0.047 C 
HETATM   10  C13 UNL     1      22.965   0.010  53.545  1.00  0.00     0.078 C 
HETATM   11  C14 UNL     1      22.185   0.713  52.574  1.00  0.00    -0.001 A 
HETATM   12  C15 UNL     1      21.095   0.063  51.966  1.00  0.00     0.014 A 
HETATM   13  C16 UNL     1      20.256   0.523  50.972  1.00  0.00     0.003 A 
HETATM   14  C17 UNL     1      20.444   1.780  50.447  1.00  0.00     0.029 A 
HETATM   15  C18 UNL     1      21.456   2.500  50.946  1.00  0.00     0.037 A 
HETATM   16  C19 UNL     1      22.251   1.928  51.966  1.00  0.00     0.043 A 
HETATM   17  N2  UNL     1      22.086   3.762  50.776  1.00  0.00    -0.309 N 
HETATM   18  C20 UNL     1      23.397   4.045  50.434  1.00  0.00     0.322 C 
HETATM   19  O2  UNL     1      23.468   2.808  50.340  1.00  0.00    -0.247 OA
HETATM   20  H26 UNL     1      21.297   4.363  50.958  1.00  0.00     0.170 HD
ENDROOT
BRANCH   1  21
HETATM   21  C4  UNL     1      24.740   5.781  50.345  1.00  0.00     0.127 C 
BRANCH  21  22
HETATM   22  C3  UNL     1      25.108   6.560  49.134  1.00  0.00     0.020 C 
BRANCH  22  23
HETATM   23  C2  UNL     1      23.881   7.274  48.612  1.00  0.00    -0.003 C 
HETATM   24  C1  UNL     1      23.258   6.543  47.469  1.00  0.00     0.005 C 
ENDBRANCH  22  23
ENDBRANCH  21  22
ENDBRANCH   1  21
BRANCH  10  25
HETATM   25  O1  UNL     1      22.110  -0.683  54.367  1.00  0.00    -0.360 OA
HETATM   26  H21 UNL     1      22.338  -0.698  55.353  1.00  0.00     0.217 HD
ENDBRANCH  10  25
TORSDOF 4
ENDMDL
MODEL 9
REMARK VINA RESULT:      -7.3      2.673      7.132
REMARK  4 active torsions:
REMARK  status: ('A' for Active; 'I' for Inactive)
REMARK    1  A    between atoms: C2_2  and  C3_3 
REMARK    2  A    between atoms: C3_3  and  C4_4 
REMARK    3  A    between atoms: C4_4  and  N1_5 
REMARK    4  A    between atoms: C13_14  and  O1_15 
ROOT
HETATM    1  N1  UNL     1      20.283   1.219  51.206  1.00  0.00    -0.334 N 
HETATM    2  C5  UNL     1      19.989   1.008  49.800  1.00  0.00     0.133 C 
HETATM    3  C6  UNL     1      20.749   1.990  48.921  1.00  0.00     0.015 C 
HETATM    4  C7  UNL     1      21.671   2.800  48.447  1.00  0.00     0.001 C 
HETATM    5  C8  UNL     1      22.930   3.569  48.301  1.00  0.00    -0.040 C 
HETATM    6  C9  UNL     1      22.621   4.391  47.042  1.00  0.00     0.011 C 
HETATM    7  C10 UNL     1      23.766   3.214  49.314  1.00  0.00     0.063 C 
HETATM    8  C11 UNL     1      25.155   3.690  49.650  1.00  0.00    -0.044 C 
HETATM    9  C12 UNL     1      26.211   4.701  49.168  1.00  0.00     0.047 C 
HETATM   10  C13 UNL     1      25.755   3.082  50.717  1.00  0.00     0.078 C 
HETATM   11  C14 UNL     1      25.270   2.030  51.555  1.00  0.00    -0.001 A 
HETATM   12  C15 UNL     1      26.136   0.981  51.915  1.00  0.00     0.014 A 
HETATM   13  C16 UNL     1      25.866  -0.152  52.653  1.00  0.00     0.003 A 
HETATM   14  C17 UNL     1      24.598  -0.363  53.140  1.00  0.00     0.029 A 
HETATM   15  C18 UNL     1      23.678   0.569  52.862  1.00  0.00     0.037 A 
HETATM   16  C19 UNL     1      24.069   1.693  52.099  1.00  0.00     0.043 A 
HETATM   17  N2  UNL     1      22.300   0.840  53.073  1.00  0.00    -0.309 N 
HETATM   18  C20 UNL     1      21.294   1.030  52.141  1.00  0.00     0.322 C 
HETATM   19  O2  UNL     1      22.207   0.764  51.342  1.00  0.00    -0.247 OA
HETATM   20  H26 UNL     1      22.285   0.833  54.081  1.00  0.00     0.170 HD
ENDROOT
BRANCH   1  21
HETATM   21  C4  UNL     1      19.204   1.704  52.085  1.00  0.00     0.127 C 
BRANCH  21  22
HETATM   22  C3  UNL     1      17.900   1.056  51.785  1.00  0.00     0.020 C 
BRANCH  22  23
HETATM   23  C2  UNL     1      16.913   2.112  51.340  1.00  0.00    -0.003 C 
HETATM   24  C1  UNL     1      17.372   3.487  51.696  1.00  0.00     0.005 C 
ENDBRANCH  22  23
ENDBRANCH  21  22
ENDBRANCH   1  21
BRANCH  10  25
HETATM   25  O1  UNL     1      27.014   3.428  51.142  1.00  0.00    -0.360 OA
HETATM   26  H21 UNL     1      27.758   2.770  50.948  1.00  0.00     0.217 HD
ENDBRANCH  10  25
TORSDOF 4
ENDMDL
