MODEL 1
REMARK VINA RESULT:      -9.0      0.000      0.000
REMARK  2 active torsions:
REMARK  status: ('A' for Active; 'I' for Inactive)
REMARK    1  A    between atoms: O1_2  and  C2_3 
REMARK    2  A    between atoms: N2_8  and  C6_9 
ROOT
HETATM    1  C2  UNL     1      19.336  -0.243  52.397  1.00  0.00     0.071 C 
HETATM    2  C3  UNL     1      19.783  -0.845  53.473  1.00  0.00     0.025 C 
HETATM    3  C4  UNL     1      21.049  -0.277  53.866  1.00  0.00     0.087 A 
HETATM    4  C5  UNL     1      21.921  -1.025  54.770  1.00  0.00     0.126 A 
HETATM    5  N1  UNL     1      23.201  -0.905  54.731  1.00  0.00    -0.169 NA
HETATM    6  N2  UNL     1      23.901  -0.084  53.844  1.00  0.00    -0.070 N 
HETATM    7  C13 UNL     1      23.108   0.669  52.905  1.00  0.00     0.145 A 
HETATM    8  C14 UNL     1      21.771   0.552  52.933  1.00  0.00    -0.026 A 
HETATM    9  C15 UNL     1      21.138   1.203  51.818  1.00  0.00     0.019 C 
HETATM   10  C16 UNL     1      19.889   0.783  51.524  1.00  0.00    -0.028 C 
HETATM   11  C17 UNL     1      19.150   1.352  50.371  1.00  0.00     0.051 C 
ENDROOT
BRANCH   6  12
HETATM   12  C6  UNL     1      25.313   0.019  53.849  1.00  0.00     0.768 A 
HETATM   13  N3  UNL     1      25.899   1.170  54.202  1.00  0.00     0.046 NA
HETATM   14  N4  UNL     1      27.219   1.322  54.225  1.00  0.00    -0.132 NA
HETATM   15  C7  UNL     1      27.955   0.251  53.872  1.00  0.00     0.109 A 
HETATM   16  C8  UNL     1      29.323   0.427  53.900  1.00  0.00     0.036 A 
HETATM   17  C12 UNL     1      27.378  -0.965  53.498  1.00  0.00     0.106 A 
HETATM   18  C9  UNL     1      30.152  -0.628  53.552  1.00  0.00     0.003 A 
HETATM   19  C10 UNL     1      29.579  -1.824  53.184  1.00  0.00     0.002 A 
HETATM   20  C11 UNL     1      28.228  -1.991  53.158  1.00  0.00     0.035 A 
HETATM   21  N5  UNL     1      26.018  -1.069  53.492  1.00  0.00    -0.057 NA
ENDBRANCH   6  12
BRANCH   1  22
HETATM   22  O1  UNL     1      18.078  -0.704  51.960  1.00  0.00    -0.356 OA
HETATM   23  C1  UNL     1      17.117  -1.281  52.787  1.00  0.00     0.210 C 
ENDBRANCH   1  22
TORSDOF 2
ENDMDL
MODEL 2
REMARK VINA RESULT:      -8.8      1.830      2.630
REMARK  2 active torsions:
REMARK  status: ('A' for Active; 'I' for Inactive)
REMARK    1  A    between atoms: O1_2  and  C2_3 
REMARK    2  A    between atoms: N2_8  and  C6_9 
ROOT
HETATM    1  C2  UNL     1      19.748   2.408  52.023  1.00  0.00     0.071 C 
HETATM    2  C3  UNL     1      20.557   3.432  52.148  1.00  0.00     0.025 C 
HETATM    3  C4  UNL     1      21.920   3.016  51.922  1.00  0.00     0.087 A 
HETATM    4  C5  UNL     1      23.016   3.863  52.390  1.00  0.00     0.126 A 
HETATM    5  N1  UNL     1      24.151   3.370  52.739  1.00  0.00    -0.169 NA
HETATM    6  N2  UNL     1      24.471   2.011  52.730  1.00  0.00    -0.070 N 
HETATM    7  C13 UNL     1      23.431   1.110  52.301  1.00  0.00     0.145 A 
HETATM    8  C14 UNL     1      22.240   1.611  51.936  1.00  0.00    -0.026 A 
HETATM    9  C15 UNL     1      21.253   0.585  51.728  1.00  0.00     0.019 C 
HETATM   10  C16 UNL     1      19.966   0.986  51.792  1.00  0.00    -0.028 C 
HETATM   11  C17 UNL     1      18.859   0.011  51.633  1.00  0.00     0.051 C 
ENDROOT
BRANCH   6  12
HETATM   12  C6  UNL     1      25.742   1.522  53.115  1.00  0.00     0.768 A 
HETATM   13  N3  UNL     1      26.568   2.294  53.833  1.00  0.00     0.046 NA
HETATM   14  N4  UNL     1      27.771   1.885  54.222  1.00  0.00    -0.132 NA
HETATM   15  C7  UNL     1      28.131   0.640  53.857  1.00  0.00     0.109 A 
HETATM   16  C8  UNL     1      29.384   0.233  54.270  1.00  0.00     0.036 A 
HETATM   17  C12 UNL     1      27.297  -0.193  53.108  1.00  0.00     0.106 A 
HETATM   18  C9  UNL     1      29.830  -1.036  53.936  1.00  0.00     0.003 A 
HETATM   19  C10 UNL     1      29.004  -1.854  53.198  1.00  0.00     0.002 A 
HETATM   20  C11 UNL     1      27.770  -1.445  52.794  1.00  0.00     0.035 A 
HETATM   21  N5  UNL     1      26.071   0.274  52.735  1.00  0.00    -0.057 NA
ENDBRANCH   6  12
BRANCH   1  22
HETATM   22  O1  UNL     1      18.386   2.726  52.186  1.00  0.00    -0.356 OA
HETATM   23  C1  UNL     1      17.696   3.659  51.415  1.00  0.00     0.210 C 
ENDBRANCH   1  22
TORSDOF 2
ENDMDL
MODEL 3
REMARK VINA RESULT:      -8.5      2.745      3.431
REMARK  2 active torsions:
REMARK  status: ('A' for Active; 'I' for Inactive)
REMARK    1  A    between atoms: O1_2  and  C2_3 
REMARK    2  A    between atoms: N2_8  and  C6_9 
ROOT
HETATM    1  C2  UNL     1      20.715   4.490  51.146  1.00  0.00     0.071 C 
HETATM    2  C3  UNL     1      20.619   3.243  51.540  1.00  0.00     0.025 C 
HETATM    3  C4  UNL     1      21.726   2.912  52.404  1.00  0.00     0.087 A 
HETATM    4  C5  UNL     1      22.057   1.507  52.640  1.00  0.00     0.126 A 
HETATM    5  N1  UNL     1      23.260   1.128  52.889  1.00  0.00    -0.169 NA
HETATM    6  N2  UNL     1      24.370   1.973  52.954  1.00  0.00    -0.070 N 
HETATM    7  C13 UNL     1      24.125   3.372  52.708  1.00  0.00     0.145 A 
HETATM    8  C14 UNL     1      22.874   3.783  52.444  1.00  0.00    -0.026 A 
HETATM    9  C15 UNL     1      22.824   5.159  52.029  1.00  0.00     0.019 C 
HETATM   10  C16 UNL     1      21.721   5.525  51.341  1.00  0.00    -0.028 C 
HETATM   11  C17 UNL     1      21.574   6.908  50.826  1.00  0.00     0.051 C 
ENDROOT
BRANCH   6  12
HETATM   12  C6  UNL     1      25.673   1.504  53.242  1.00  0.00     0.768 A 
HETATM   13  N3  UNL     1      26.553   2.305  53.856  1.00  0.00     0.046 NA
HETATM   14  N4  UNL     1      27.789   1.915  54.151  1.00  0.00    -0.132 NA
HETATM   15  C7  UNL     1      28.125   0.660  53.801  1.00  0.00     0.109 A 
HETATM   16  C8  UNL     1      29.412   0.274  54.115  1.00  0.00     0.036 A 
HETATM   17  C12 UNL     1      27.234  -0.204  53.159  1.00  0.00     0.106 A 
HETATM   18  C9  UNL     1      29.837  -1.005  53.788  1.00  0.00     0.003 A 
HETATM   19  C10 UNL     1      28.955  -1.852  53.156  1.00  0.00     0.002 A 
HETATM   20  C11 UNL     1      27.687  -1.464  52.849  1.00  0.00     0.035 A 
HETATM   21  N5  UNL     1      25.977   0.244  52.879  1.00  0.00    -0.057 NA
ENDBRANCH   6  12
BRANCH   1  22
HETATM   22  O1  UNL     1      19.650   4.919  50.329  1.00  0.00    -0.356 OA
HETATM   23  C1  UNL     1      18.399   4.310  50.278  1.00  0.00     0.210 C 
ENDBRANCH   1  22
TORSDOF 2
ENDMDL
MODEL 4
REMARK VINA RESULT:      -8.4      5.853      7.616
REMARK  2 active torsions:
REMARK  status: ('A' for Active; 'I' for Inactive)
REMARK    1  A    between atoms: O1_2  and  C2_3 
REMARK    2  A    between atoms: N2_8  and  C6_9 
ROOT
HETATM    1  C2  UNL     1      25.966  -0.014  54.019  1.00  0.00     0.071 C 
HETATM    2  C3  UNL     1      24.851   0.238  53.376  1.00  0.00     0.025 C 
HETATM    3  C4  UNL     1      25.137   0.933  52.145  1.00  0.00     0.087 A 
HETATM    4  C5  UNL     1      24.067   1.663  51.467  1.00  0.00     0.126 A 
HETATM    5  N1  UNL     1      24.305   2.705  50.751  1.00  0.00    -0.169 NA
HETATM    6  N2  UNL     1      25.568   3.263  50.545  1.00  0.00    -0.070 N 
HETATM    7  C13 UNL     1      26.673   2.610  51.201  1.00  0.00     0.145 A 
HETATM    8  C14 UNL     1      26.439   1.523  51.953  1.00  0.00    -0.026 A 
HETATM    9  C15 UNL     1      27.599   1.108  52.696  1.00  0.00     0.019 C 
HETATM   10  C16 UNL     1      27.359   0.332  53.774  1.00  0.00    -0.028 C 
HETATM   11  C17 UNL     1      28.473  -0.125  54.641  1.00  0.00     0.051 C 
ENDROOT
BRANCH   6  12
HETATM   12  C6  UNL     1      25.776   4.407  49.738  1.00  0.00     0.768 A 
HETATM   13  N3  UNL     1      24.742   5.190  49.406  1.00  0.00     0.046 NA
HETATM   14  N4  UNL     1      24.881   6.276  48.652  1.00  0.00    -0.132 NA
HETATM   15  C7  UNL     1      26.126   6.559  48.228  1.00  0.00     0.109 A 
HETATM   16  C8  UNL     1      26.251   7.689  47.446  1.00  0.00     0.036 A 
HETATM   17  C12 UNL     1      27.229   5.765  48.554  1.00  0.00     0.106 A 
HETATM   18  C9  UNL     1      27.502   8.052  46.970  1.00  0.00     0.003 A 
HETATM   19  C10 UNL     1      28.584   7.267  47.294  1.00  0.00     0.002 A 
HETATM   20  C11 UNL     1      28.454   6.153  48.065  1.00  0.00     0.035 A 
HETATM   21  N5  UNL     1      27.033   4.662  49.331  1.00  0.00    -0.057 NA
ENDBRANCH   6  12
BRANCH   1  22
HETATM   22  O1  UNL     1      25.789  -0.731  55.219  1.00  0.00    -0.356 OA
HETATM   23  C1  UNL     1      24.569  -1.231  55.667  1.00  0.00     0.210 C 
ENDBRANCH   1  22
TORSDOF 2
ENDMDL
MODEL 5
REMARK VINA RESULT:      -8.3      4.912      5.972
REMARK  2 active torsions:
REMARK  status: ('A' for Active; 'I' for Inactive)
REMARK    1  A    between atoms: O1_2  and  C2_3 
REMARK    2  A    between atoms: N2_8  and  C6_9 
ROOT
HETATM    1  C2  UNL     1      20.823  -0.100  52.870  1.00  0.00     0.071 C 
HETATM    2  C3  UNL     1      20.516   0.320  51.666  1.00  0.00     0.025 C 
HETATM    3  C4  UNL     1      21.713   0.692  50.953  1.00  0.00     0.087 A 
HETATM    4  C5  UNL     1      21.609   1.548  49.772  1.00  0.00     0.126 A 
HETATM    5  N1  UNL     1      22.554   2.350  49.431  1.00  0.00    -0.169 NA
HETATM    6  N2  UNL     1      23.755   2.512  50.125  1.00  0.00    -0.070 N 
HETATM    7  C13 UNL     1      23.921   1.717  51.315  1.00  0.00     0.145 A 
HETATM    8  C14 UNL     1      22.942   0.877  51.684  1.00  0.00    -0.026 A 
HETATM    9  C15 UNL     1      23.167   0.307  52.986  1.00  0.00     0.019 C 
HETATM   10  C16 UNL     1      22.074  -0.180  53.611  1.00  0.00    -0.028 C 
HETATM   11  C17 UNL     1      22.174  -0.755  54.974  1.00  0.00     0.051 C 
ENDROOT
BRANCH   6  12
HETATM   12  C6  UNL     1      24.769   3.404  49.700  1.00  0.00     0.768 A 
HETATM   13  N3  UNL     1      26.053   3.023  49.731  1.00  0.00     0.046 NA
HETATM   14  N4  UNL     1      27.044   3.819  49.344  1.00  0.00    -0.132 NA
HETATM   15  C7  UNL     1      26.697   5.046  48.912  1.00  0.00     0.109 A 
HETATM   16  C8  UNL     1      27.740   5.859  48.515  1.00  0.00     0.036 A 
HETATM   17  C12 UNL     1      25.370   5.478  48.867  1.00  0.00     0.106 A 
HETATM   18  C9  UNL     1      27.467   7.138  48.057  1.00  0.00     0.003 A 
HETATM   19  C10 UNL     1      26.157   7.559  48.013  1.00  0.00     0.002 A 
HETATM   20  C11 UNL     1      25.134   6.752  48.407  1.00  0.00     0.035 A 
HETATM   21  N5  UNL     1      24.389   4.622  49.274  1.00  0.00    -0.057 NA
ENDBRANCH   6  12
BRANCH   1  22
HETATM   22  O1  UNL     1      19.716  -0.526  53.631  1.00  0.00    -0.356 OA
HETATM   23  C1  UNL     1      18.496  -0.930  53.092  1.00  0.00     0.210 C 
ENDBRANCH   1  22
TORSDOF 2
ENDMDL
MODEL 6
REMARK VINA RESULT:      -8.2      5.389      6.463
REMARK  2 active torsions:
REMARK  status: ('A' for Active; 'I' for Inactive)
REMARK    1  A    between atoms: O1_2  and  C2_3 
REMARK    2  A    between atoms: N2_8  and  C6_9 
ROOT
HETATM    1  C2  UNL     1      22.971  -0.039  53.504  1.00  0.00     0.071 C 
HETATM    2  C3  UNL     1      22.158   0.510  52.633  1.00  0.00     0.025 C 
HETATM    3  C4  UNL     1      22.917   1.126  51.571  1.00  0.00     0.087 A 
HETATM    4  C5  UNL     1      22.275   2.124  50.717  1.00  0.00     0.126 A 
HETATM    5  N1  UNL     1      22.942   3.078  50.171  1.00  0.00    -0.169 NA
HETATM    6  N2  UNL     1      24.314   3.286  50.325  1.00  0.00    -0.070 N 
HETATM    7  C13 UNL     1      25.012   2.354  51.175  1.00  0.00     0.145 A 
HETATM    8  C14 UNL     1      24.328   1.354  51.753  1.00  0.00    -0.026 A 
HETATM    9  C15 UNL     1      25.116   0.636  52.718  1.00  0.00     0.019 C 
HETATM   10  C16 UNL     1      24.421  -0.068  53.636  1.00  0.00    -0.028 C 
HETATM   11  C17 UNL     1      25.123  -0.818  54.707  1.00  0.00     0.051 C 
ENDROOT
BRANCH   6  12
HETATM   12  C6  UNL     1      25.002   4.349  49.693  1.00  0.00     0.768 A 
HETATM   13  N3  UNL     1      24.353   5.480  49.386  1.00  0.00     0.046 NA
HETATM   14  N4  UNL     1      24.950   6.508  48.793  1.00  0.00    -0.132 NA
HETATM   15  C7  UNL     1      26.258   6.362  48.508  1.00  0.00     0.109 A 
HETATM   16  C8  UNL     1      26.861   7.440  47.891  1.00  0.00     0.036 A 
HETATM   17  C12 UNL     1      26.967   5.198  48.812  1.00  0.00     0.106 A 
HETATM   18  C9  UNL     1      28.206   7.370  47.564  1.00  0.00     0.003 A 
HETATM   19  C10 UNL     1      28.901   6.221  47.867  1.00  0.00     0.002 A 
HETATM   20  C11 UNL     1      28.300   5.162  48.475  1.00  0.00     0.035 A 
HETATM   21  N5  UNL     1      26.308   4.172  49.422  1.00  0.00    -0.057 NA
ENDBRANCH   6  12
BRANCH   1  22
HETATM   22  O1  UNL     1      22.318  -0.704  54.560  1.00  0.00    -0.356 OA
HETATM   23  C1  UNL     1      21.179  -1.493  54.413  1.00  0.00     0.210 C 
ENDBRANCH   1  22
TORSDOF 2
ENDMDL
MODEL 7
REMARK VINA RESULT:      -8.0      3.241      8.310
REMARK  2 active torsions:
REMARK  status: ('A' for Active; 'I' for Inactive)
REMARK    1  A    between atoms: O1_2  and  C2_3 
REMARK    2  A    between atoms: N2_8  and  C6_9 
ROOT
HETATM    1  C2  UNL     1      26.843   1.277  52.908  1.00  0.00     0.071 C 
HETATM    2  C3  UNL     1      26.086   2.348  52.894  1.00  0.00     0.025 C 
HETATM    3  C4  UNL     1      24.709   1.983  53.123  1.00  0.00     0.087 A 
HETATM    4  C5  UNL     1      23.648   2.921  52.762  1.00  0.00     0.126 A 
HETATM    5  N1  UNL     1      22.480   2.519  52.404  1.00  0.00    -0.169 NA
HETATM    6  N2  UNL     1      22.090   1.182  52.306  1.00  0.00    -0.070 N 
HETATM    7  C13 UNL     1      23.092   0.195  52.625  1.00  0.00     0.145 A 
HETATM    8  C14 UNL     1      24.316   0.602  52.998  1.00  0.00    -0.026 A 
HETATM    9  C15 UNL     1      25.252  -0.487  53.088  1.00  0.00     0.019 C 
HETATM   10  C16 UNL     1      26.557  -0.146  53.021  1.00  0.00    -0.028 C 
HETATM   11  C17 UNL     1      27.614  -1.186  53.063  1.00  0.00     0.051 C 
ENDROOT
BRANCH   6  12
HETATM   12  C6  UNL     1      20.786   0.792  51.917  1.00  0.00     0.768 A 
HETATM   13  N3  UNL     1      20.288   1.199  50.741  1.00  0.00     0.046 NA
HETATM   14  N4  UNL     1      19.071   0.863  50.326  1.00  0.00    -0.132 NA
HETATM   15  C7  UNL     1      18.347   0.084  51.151  1.00  0.00     0.109 A 
HETATM   16  C8  UNL     1      17.086  -0.254  50.704  1.00  0.00     0.036 A 
HETATM   17  C12 UNL     1      18.833  -0.359  52.384  1.00  0.00     0.106 A 
HETATM   18  C9  UNL     1      16.277  -1.056  51.494  1.00  0.00     0.003 A 
HETATM   19  C10 UNL     1      16.760  -1.489  52.708  1.00  0.00     0.002 A 
HETATM   20  C11 UNL     1      18.005  -1.152  53.143  1.00  0.00     0.035 A 
HETATM   21  N5  UNL     1      20.089   0.013  52.764  1.00  0.00    -0.057 NA
ENDBRANCH   6  12
BRANCH   1  22
HETATM   22  O1  UNL     1      28.216   1.540  52.734  1.00  0.00    -0.356 OA
HETATM   23  C1  UNL     1      29.017   2.203  53.661  1.00  0.00     0.210 C 
ENDBRANCH   1  22
TORSDOF 2
ENDMDL
MODEL 8
REMARK VINA RESULT:      -8.0      3.142      8.183
REMARK  2 active torsions:
REMARK  status: ('A' for Active; 'I' for Inactive)
REMARK    1  A    between atoms: O1_2  and  C2_3 
REMARK    2  A    between atoms: N2_8  and  C6_9 
ROOT
HETATM    1  C2  UNL     1      26.117   0.413  54.286  1.00  0.00     0.071 C 
HETATM    2  C3  UNL     1      25.410  -0.336  55.098  1.00  0.00     0.025 C 
HETATM    3  C4  UNL     1      24.235  -0.828  54.420  1.00  0.00     0.087 A 
HETATM    4  C5  UNL     1      23.113  -1.337  55.206  1.00  0.00     0.126 A 
HETATM    5  N1  UNL     1      21.901  -1.261  54.784  1.00  0.00    -0.169 NA
HETATM    6  N2  UNL     1      21.510  -0.693  53.570  1.00  0.00    -0.070 N 
HETATM    7  C13 UNL     1      22.562  -0.148  52.748  1.00  0.00     0.145 A 
HETATM    8  C14 UNL     1      23.831  -0.218  53.178  1.00  0.00    -0.026 A 
HETATM    9  C15 UNL     1      24.733   0.538  52.351  1.00  0.00     0.019 C 
HETATM   10  C16 UNL     1      25.906   0.884  52.925  1.00  0.00    -0.028 C 
HETATM   11  C17 UNL     1      26.900   1.698  52.185  1.00  0.00     0.051 C 
ENDROOT
BRANCH   6  12
HETATM   12  C6  UNL     1      20.160  -0.644  53.148  1.00  0.00     0.768 A 
HETATM   13  N3  UNL     1      19.197  -1.166  53.919  1.00  0.00     0.046 NA
HETATM   14  N4  UNL     1      17.914  -1.147  53.572  1.00  0.00    -0.132 NA
HETATM   15  C7  UNL     1      17.618  -0.572  52.391  1.00  0.00     0.109 A 
HETATM   16  C8  UNL     1      16.282  -0.562  52.047  1.00  0.00     0.036 A 
HETATM   17  C12 UNL     1      18.596  -0.018  51.560  1.00  0.00     0.106 A 
HETATM   18  C9  UNL     1      15.893   0.012  50.847  1.00  0.00     0.003 A 
HETATM   19  C10 UNL     1      16.860   0.556  50.032  1.00  0.00     0.002 A 
HETATM   20  C11 UNL     1      18.176   0.543  50.377  1.00  0.00     0.035 A 
HETATM   21  N5  UNL     1      19.898  -0.063  51.963  1.00  0.00    -0.057 NA
ENDBRANCH   6  12
BRANCH   1  22
HETATM   22  O1  UNL     1      27.310   0.906  54.850  1.00  0.00    -0.356 OA
HETATM   23  C1  UNL     1      28.488   0.172  54.972  1.00  0.00     0.210 C 
ENDBRANCH   1  22
TORSDOF 2
ENDMDL
MODEL 9
REMARK VINA RESULT:      -7.9      7.850      9.198
REMARK  2 active torsions:
REMARK  status: ('A' for Active; 'I' for Inactive)
REMARK    1  A    between atoms: O1_2  and  C2_3 
REMARK    2  A    between atoms: N2_8  and  C6_9 
ROOT
HETATM    1  C2  UNL     1      24.747   5.346  50.464  1.00  0.00     0.071 C 
HETATM    2  C3  UNL     1      25.193   6.516  50.073  1.00  0.00     0.025 C 
HETATM    3  C4  UNL     1      26.236   6.343  49.090  1.00  0.00     0.087 A 
HETATM    4  C5  UNL     1      27.146   7.452  48.808  1.00  0.00     0.126 A 
HETATM    5  N1  UNL     1      28.357   7.252  48.425  1.00  0.00    -0.169 NA
HETATM    6  N2  UNL     1      28.945   5.998  48.248  1.00  0.00    -0.070 N 
HETATM    7  C13 UNL     1      28.114   4.855  48.530  1.00  0.00     0.145 A 
HETATM    8  C14 UNL     1      26.848   5.048  48.932  1.00  0.00    -0.026 A 
HETATM    9  C15 UNL     1      26.217   3.829  49.363  1.00  0.00     0.019 C 
HETATM   10  C16 UNL     1      25.144   3.976  50.170  1.00  0.00    -0.028 C 
HETATM   11  C17 UNL     1      24.434   2.792  50.710  1.00  0.00     0.051 C 
ENDROOT
BRANCH   6  12
HETATM   12  C6  UNL     1      30.283   5.835  47.814  1.00  0.00     0.768 A 
HETATM   13  N3  UNL     1      31.026   6.908  47.515  1.00  0.00     0.046 NA
HETATM   14  N4  UNL     1      32.286   6.812  47.104  1.00  0.00    -0.132 NA
HETATM   15  C7  UNL     1      32.793   5.569  47.000  1.00  0.00     0.109 A 
HETATM   16  C8  UNL     1      34.102   5.489  46.571  1.00  0.00     0.036 A 
HETATM   17  C12 UNL     1      32.047   4.427  47.303  1.00  0.00     0.106 A 
HETATM   18  C9  UNL     1      34.699   4.245  46.438  1.00  0.00     0.003 A 
HETATM   19  C10 UNL     1      33.960   3.123  46.738  1.00  0.00     0.002 A 
HETATM   20  C11 UNL     1      32.669   3.209  47.160  1.00  0.00     0.035 A 
HETATM   21  N5  UNL     1      30.758   4.580  47.721  1.00  0.00    -0.057 NA
ENDBRANCH   6  12
BRANCH   1  22
HETATM   22  O1  UNL     1      23.693   5.415  51.396  1.00  0.00    -0.356 OA
HETATM   23  C1  UNL     1      22.444   5.974  51.136  1.00  0.00     0.210 C 
ENDBRANCH   1  22
TORSDOF 2
ENDMDL
