MODEL 1
REMARK VINA RESULT:      -7.8      0.000      0.000
REMARK  6 active torsions:
REMARK  status: ('A' for Active; 'I' for Inactive)
REMARK    1  A    between atoms: N1_1  and  C1_2 
REMARK    2  A    between atoms: N2_5  and  C4_6 
REMARK    3  A    between atoms: C4_6  and  C5_7 
REMARK    4  A    between atoms: C5_7  and  C6_8 
REMARK    5  A    between atoms: C6_8  and  C7_9 
REMARK    6  A    between atoms: C9_14  and  C10_15 
ROOT
HETATM    1  C7  UNL     1      24.499   2.654  52.360  1.00  0.00     0.076 A 
HETATM    2  N3  UNL     1      24.928   3.702  51.518  1.00  0.00    -0.275 N 
HETATM    3  N4  UNL     1      24.188   3.998  50.370  1.00  0.00    -0.168 NA
HETATM    4  C8  UNL     1      23.136   3.290  50.134  1.00  0.00     0.255 A 
HETATM    5  N5  UNL     1      22.749   2.255  50.997  1.00  0.00    -0.237 NA
HETATM    6  C9  UNL     1      23.327   1.871  52.076  1.00  0.00     0.096 A 
HETATM    7  H13 UNL     1      25.720   4.332  51.569  1.00  0.00     0.189 HD
ENDROOT
BRANCH   1   8
HETATM    8  C6  UNL     1      25.175   2.472  53.464  1.00  0.00     0.008 C 
BRANCH   8   9
HETATM    9  C5  UNL     1      26.247   1.816  54.221  1.00  0.00     0.049 C 
BRANCH   9  10
HETATM   10  C4  UNL     1      27.582   1.955  53.507  1.00  0.00     0.120 C 
BRANCH  10  11
HETATM   11  N2  UNL     1      28.058   0.665  53.064  1.00  0.00    -0.412 N 
HETATM   12  C3  UNL     1      28.788  -0.064  54.047  1.00  0.00     0.119 C 
HETATM   13  C2  UNL     1      29.555  -1.178  53.328  1.00  0.00     0.055 C 
HETATM   14  C1  UNL     1      28.591  -2.110  52.661  1.00  0.00     0.221 C 
HETATM   15  C17 UNL     1      27.182  -1.568  52.643  1.00  0.00     0.055 C 
HETATM   16  C16 UNL     1      27.137  -0.084  52.278  1.00  0.00     0.119 C 
BRANCH  14  17
HETATM   17  N1  UNL     1      28.546  -3.374  53.364  1.00  0.00     0.083 N 
HETATM   18  H1  UNL     1      27.570  -3.675  53.574  1.00  0.00     0.313 HD
HETATM   19  H2  UNL     1      29.096  -3.295  54.253  1.00  0.00     0.313 HD
ENDBRANCH  14  17
ENDBRANCH  10  11
ENDBRANCH   9  10
ENDBRANCH   8   9
ENDBRANCH   1   8
BRANCH   6  20
HETATM   20  C10 UNL     1      22.745   0.807  52.827  1.00  0.00    -0.005 A 
HETATM   21  C11 UNL     1      21.400   1.037  53.155  1.00  0.00     0.014 A 
HETATM   22  C12 UNL     1      20.599   0.152  53.829  1.00  0.00     0.001 A 
HETATM   23  C13 UNL     1      21.089  -1.057  54.233  1.00  0.00     0.000 A 
HETATM   24  C14 UNL     1      22.396  -1.366  53.951  1.00  0.00     0.001 A 
HETATM   25  C15 UNL     1      23.099  -0.410  53.276  1.00  0.00     0.014 A 
ENDBRANCH   6  20
TORSDOF 6
ENDMDL
MODEL 2
REMARK VINA RESULT:      -7.8      2.231      5.370
REMARK  6 active torsions:
REMARK  status: ('A' for Active; 'I' for Inactive)
REMARK    1  A    between atoms: N1_1  and  C1_2 
REMARK    2  A    between atoms: N2_5  and  C4_6 
REMARK    3  A    between atoms: C4_6  and  C5_7 
REMARK    4  A    between atoms: C5_7  and  C6_8 
REMARK    5  A    between atoms: C6_8  and  C7_9 
REMARK    6  A    between atoms: C9_14  and  C10_15 
ROOT
HETATM    1  C7  UNL     1      25.883   1.839  53.847  1.00  0.00     0.076 A 
HETATM    2  N3  UNL     1      27.191   2.364  53.934  1.00  0.00    -0.275 N 
HETATM    3  N4  UNL     1      28.250   1.504  54.235  1.00  0.00    -0.168 NA
HETATM    4  C8  UNL     1      27.978   0.257  54.421  1.00  0.00     0.255 A 
HETATM    5  N5  UNL     1      26.663  -0.220  54.328  1.00  0.00    -0.237 NA
HETATM    6  C9  UNL     1      25.600   0.446  54.065  1.00  0.00     0.096 A 
HETATM    7  H13 UNL     1      27.553   3.303  53.819  1.00  0.00     0.189 HD
ENDROOT
BRANCH   1   8
HETATM    8  C6  UNL     1      24.940   2.666  53.480  1.00  0.00     0.008 C 
BRANCH   8   9
HETATM    9  C5  UNL     1      24.157   3.339  52.438  1.00  0.00     0.049 C 
BRANCH   9  10
HETATM   10  C4  UNL     1      24.354   2.667  51.088  1.00  0.00     0.120 C 
BRANCH  10  11
HETATM   11  N2  UNL     1      24.944   3.588  50.144  1.00  0.00    -0.412 N 
HETATM   12  C3  UNL     1      24.879   4.957  50.536  1.00  0.00     0.119 C 
HETATM   13  C2  UNL     1      25.154   5.810  49.294  1.00  0.00     0.055 C 
HETATM   14  C1  UNL     1      26.531   5.527  48.777  1.00  0.00     0.221 C 
HETATM   15  C17 UNL     1      27.155   4.316  49.429  1.00  0.00     0.055 C 
HETATM   16  C16 UNL     1      26.168   3.156  49.560  1.00  0.00     0.119 C 
BRANCH  14  17
HETATM   17  N1  UNL     1      27.409   6.646  49.043  1.00  0.00     0.083 N 
HETATM   18  H1  UNL     1      27.483   6.856  50.061  1.00  0.00     0.313 HD
HETATM   19  H2  UNL     1      27.061   7.489  48.527  1.00  0.00     0.313 HD
ENDBRANCH  14  17
ENDBRANCH  10  11
ENDBRANCH   9  10
ENDBRANCH   8   9
ENDBRANCH   1   8
BRANCH   6  20
HETATM   20  C10 UNL     1      24.355  -0.246  53.989  1.00  0.00    -0.005 A 
HETATM   21  C11 UNL     1      24.005  -0.881  55.190  1.00  0.00     0.014 A 
HETATM   22  C12 UNL     1      22.838  -1.572  55.397  1.00  0.00     0.001 A 
HETATM   23  C13 UNL     1      21.912  -1.682  54.399  1.00  0.00     0.000 A 
HETATM   24  C14 UNL     1      22.173  -1.087  53.190  1.00  0.00     0.001 A 
HETATM   25  C15 UNL     1      23.364  -0.427  53.098  1.00  0.00     0.014 A 
ENDBRANCH   6  20
TORSDOF 6
ENDMDL
MODEL 3
REMARK VINA RESULT:      -7.8      1.833      5.568
REMARK  6 active torsions:
REMARK  status: ('A' for Active; 'I' for Inactive)
REMARK    1  A    between atoms: N1_1  and  C1_2 
REMARK    2  A    between atoms: N2_5  and  C4_6 
REMARK    3  A    between atoms: C4_6  and  C5_7 
REMARK    4  A    between atoms: C5_7  and  C6_8 
REMARK    5  A    between atoms: C6_8  and  C7_9 
REMARK    6  A    between atoms: C9_14  and  C10_15 
ROOT
HETATM    1  C7  UNL     1      26.408   1.625  53.847  1.00  0.00     0.076 A 
HETATM    2  N3  UNL     1      27.736   2.074  54.010  1.00  0.00    -0.275 N 
HETATM    3  N4  UNL     1      28.680   1.216  54.578  1.00  0.00    -0.168 NA
HETATM    4  C8  UNL     1      28.287   0.039  54.930  1.00  0.00     0.255 A 
HETATM    5  N5  UNL     1      26.956  -0.365  54.752  1.00  0.00    -0.237 NA
HETATM    6  C9  UNL     1      25.988   0.310  54.252  1.00  0.00     0.096 A 
HETATM    7  H13 UNL     1      28.185   2.956  53.789  1.00  0.00     0.189 HD
ENDROOT
BRANCH   1   8
HETATM    8  C6  UNL     1      25.583   2.432  53.233  1.00  0.00     0.008 C 
BRANCH   8   9
HETATM    9  C5  UNL     1      24.299   3.135  53.149  1.00  0.00     0.049 C 
BRANCH   9  10
HETATM   10  C4  UNL     1      24.122   3.786  51.786  1.00  0.00     0.120 C 
BRANCH  10  11
HETATM   11  N2  UNL     1      23.505   2.864  50.860  1.00  0.00    -0.412 N 
HETATM   12  C3  UNL     1      22.178   2.476  51.209  1.00  0.00     0.119 C 
HETATM   13  C2  UNL     1      21.829   1.226  50.396  1.00  0.00     0.055 C 
HETATM   14  C1  UNL     1      21.862   1.545  48.933  1.00  0.00     0.221 C 
HETATM   15  C17 UNL     1      22.481   2.894  48.651  1.00  0.00     0.055 C 
HETATM   16  C16 UNL     1      23.739   3.141  49.482  1.00  0.00     0.119 C 
BRANCH  14  17
HETATM   17  N1  UNL     1      20.519   1.579  48.395  1.00  0.00     0.083 N 
HETATM   18  H1  UNL     1      19.865   0.969  48.928  1.00  0.00     0.313 HD
HETATM   19  H2  UNL     1      20.542   1.287  47.388  1.00  0.00     0.313 HD
ENDBRANCH  14  17
ENDBRANCH  10  11
ENDBRANCH   9  10
ENDBRANCH   8   9
ENDBRANCH   1   8
BRANCH   6  20
HETATM   20  C10 UNL     1      24.707  -0.307  54.135  1.00  0.00    -0.005 A 
HETATM   21  C11 UNL     1      24.280  -0.918  55.323  1.00  0.00     0.014 A 
HETATM   22  C12 UNL     1      23.068  -1.538  55.491  1.00  0.00     0.001 A 
HETATM   23  C13 UNL     1      22.170  -1.593  54.464  1.00  0.00     0.000 A 
HETATM   24  C14 UNL     1      22.506  -1.017  53.264  1.00  0.00     0.001 A 
HETATM   25  C15 UNL     1      23.737  -0.429  53.211  1.00  0.00     0.014 A 
ENDBRANCH   6  20
TORSDOF 6
ENDMDL
MODEL 4
REMARK VINA RESULT:      -7.6      2.668      6.025
REMARK  6 active torsions:
REMARK  status: ('A' for Active; 'I' for Inactive)
REMARK    1  A    between atoms: N1_1  and  C1_2 
REMARK    2  A    between atoms: N2_5  and  C4_6 
REMARK    3  A    between atoms: C4_6  and  C5_7 
REMARK    4  A    between atoms: C5_7  and  C6_8 
REMARK    5  A    between atoms: C6_8  and  C7_9 
REMARK    6  A    between atoms: C9_14  and  C10_15 
ROOT
HETATM    1  C7  UNL     1      23.129   0.717  53.142  1.00  0.00     0.076 A 
HETATM    2  N3  UNL     1      21.749   0.754  53.434  1.00  0.00    -0.275 N 
HETATM    3  N4  UNL     1      21.227  -0.145  54.367  1.00  0.00    -0.168 NA
HETATM    4  C8  UNL     1      22.041  -0.977  54.921  1.00  0.00     0.255 A 
HETATM    5  N5  UNL     1      23.405  -0.981  54.598  1.00  0.00    -0.237 NA
HETATM    6  C9  UNL     1      24.021  -0.223  53.767  1.00  0.00     0.096 A 
HETATM    7  H13 UNL     1      20.998   1.337  53.083  1.00  0.00     0.189 HD
ENDROOT
BRANCH   1   8
HETATM    8  C6  UNL     1      23.585   1.633  52.328  1.00  0.00     0.008 C 
BRANCH   8   9
HETATM    9  C5  UNL     1      23.828   2.143  50.974  1.00  0.00     0.049 C 
BRANCH   9  10
HETATM   10  C4  UNL     1      23.610   3.646  50.911  1.00  0.00     0.120 C 
BRANCH  10  11
HETATM   11  N2  UNL     1      24.544   4.256  49.991  1.00  0.00    -0.412 N 
HETATM   12  C3  UNL     1      24.991   5.553  50.377  1.00  0.00     0.119 C 
HETATM   13  C2  UNL     1      25.619   6.215  49.148  1.00  0.00     0.055 C 
HETATM   14  C1  UNL     1      26.803   5.419  48.690  1.00  0.00     0.221 C 
HETATM   15  C17 UNL     1      26.891   4.074  49.371  1.00  0.00     0.055 C 
HETATM   16  C16 UNL     1      25.533   3.379  49.462  1.00  0.00     0.119 C 
BRANCH  14  17
HETATM   17  N1  UNL     1      28.029   6.124  48.993  1.00  0.00     0.083 N 
HETATM   18  H1  UNL     1      28.859   5.688  48.537  1.00  0.00     0.313 HD
HETATM   19  H2  UNL     1      28.164   6.154  50.032  1.00  0.00     0.313 HD
ENDBRANCH  14  17
ENDBRANCH  10  11
ENDBRANCH   9  10
ENDBRANCH   8   9
ENDBRANCH   1   8
BRANCH   6  20
HETATM   20  C10 UNL     1      25.430  -0.377  53.609  1.00  0.00    -0.005 A 
HETATM   21  C11 UNL     1      26.170   0.264  54.614  1.00  0.00     0.014 A 
HETATM   22  C12 UNL     1      27.536   0.229  54.720  1.00  0.00     0.001 A 
HETATM   23  C13 UNL     1      28.285  -0.465  53.813  1.00  0.00     0.000 A 
HETATM   24  C14 UNL     1      27.641  -1.124  52.795  1.00  0.00     0.001 A 
HETATM   25  C15 UNL     1      26.279  -1.020  52.789  1.00  0.00     0.014 A 
ENDBRANCH   6  20
TORSDOF 6
ENDMDL
MODEL 5
REMARK VINA RESULT:      -7.4      2.300      4.476
REMARK  6 active torsions:
REMARK  status: ('A' for Active; 'I' for Inactive)
REMARK    1  A    between atoms: N1_1  and  C1_2 
REMARK    2  A    between atoms: N2_5  and  C4_6 
REMARK    3  A    between atoms: C4_6  and  C5_7 
REMARK    4  A    between atoms: C5_7  and  C6_8 
REMARK    5  A    between atoms: C6_8  and  C7_9 
REMARK    6  A    between atoms: C9_14  and  C10_15 
ROOT
HETATM    1  C7  UNL     1      21.730  -0.129  52.793  1.00  0.00     0.076 A 
HETATM    2  N3  UNL     1      20.923  -0.813  53.727  1.00  0.00    -0.275 N 
HETATM    3  N4  UNL     1      19.540  -0.843  53.538  1.00  0.00    -0.168 NA
HETATM    4  C8  UNL     1      19.061  -0.236  52.506  1.00  0.00     0.255 A 
HETATM    5  N5  UNL     1      19.899   0.434  51.605  1.00  0.00    -0.237 NA
HETATM    6  C9  UNL     1      21.176   0.548  51.651  1.00  0.00     0.096 A 
HETATM    7  H13 UNL     1      21.150  -1.324  54.573  1.00  0.00     0.189 HD
ENDROOT
BRANCH   1   8
HETATM    8  C6  UNL     1      23.023  -0.202  52.966  1.00  0.00     0.008 C 
BRANCH   8   9
HETATM    9  C5  UNL     1      24.211  -0.116  53.823  1.00  0.00     0.049 C 
BRANCH   9  10
HETATM   10  C4  UNL     1      25.387  -0.852  53.199  1.00  0.00     0.120 C 
BRANCH  10  11
HETATM   11  N2  UNL     1      26.540   0.015  53.112  1.00  0.00    -0.412 N 
HETATM   12  C3  UNL     1      26.484   1.158  53.962  1.00  0.00     0.119 C 
HETATM   13  C2  UNL     1      27.536   2.156  53.470  1.00  0.00     0.055 C 
HETATM   14  C1  UNL     1      28.902   1.550  53.574  1.00  0.00     0.221 C 
HETATM   15  C17 UNL     1      28.855   0.069  53.866  1.00  0.00     0.055 C 
HETATM   16  C16 UNL     1      27.795  -0.653  53.033  1.00  0.00     0.119 C 
BRANCH  14  17
HETATM   17  N1  UNL     1      29.644   2.166  54.652  1.00  0.00     0.083 N 
HETATM   18  H1  UNL     1      29.298   3.123  54.874  1.00  0.00     0.313 HD
HETATM   19  H2  UNL     1      30.660   2.202  54.397  1.00  0.00     0.313 HD
ENDBRANCH  14  17
ENDBRANCH  10  11
ENDBRANCH   9  10
ENDBRANCH   8   9
ENDBRANCH   1   8
BRANCH   6  20
HETATM   20  C10 UNL     1      21.842   1.254  50.607  1.00  0.00    -0.005 A 
HETATM   21  C11 UNL     1      21.375   0.915  49.328  1.00  0.00     0.014 A 
HETATM   22  C12 UNL     1      21.814   1.485  48.160  1.00  0.00     0.001 A 
HETATM   23  C13 UNL     1      22.771   2.458  48.181  1.00  0.00     0.000 A 
HETATM   24  C14 UNL     1      23.283   2.853  49.392  1.00  0.00     0.001 A 
HETATM   25  C15 UNL     1      22.772   2.218  50.487  1.00  0.00     0.014 A 
ENDBRANCH   6  20
TORSDOF 6
ENDMDL
MODEL 6
REMARK VINA RESULT:      -7.3      2.275      6.436
REMARK  6 active torsions:
REMARK  status: ('A' for Active; 'I' for Inactive)
REMARK    1  A    between atoms: N1_1  and  C1_2 
REMARK    2  A    between atoms: N2_5  and  C4_6 
REMARK    3  A    between atoms: C4_6  and  C5_7 
REMARK    4  A    between atoms: C5_7  and  C6_8 
REMARK    5  A    between atoms: C6_8  and  C7_9 
REMARK    6  A    between atoms: C9_14  and  C10_15 
ROOT
HETATM    1  C7  UNL     1      24.795  -0.073  53.787  1.00  0.00     0.076 A 
HETATM    2  N3  UNL     1      25.564  -0.905  54.628  1.00  0.00    -0.275 N 
HETATM    3  N4  UNL     1      26.859  -0.512  54.974  1.00  0.00    -0.168 NA
HETATM    4  C8  UNL     1      27.294   0.607  54.502  1.00  0.00     0.255 A 
HETATM    5  N5  UNL     1      26.496   1.401  53.667  1.00  0.00    -0.237 NA
HETATM    6  C9  UNL     1      25.300   1.169  53.266  1.00  0.00     0.096 A 
HETATM    7  H13 UNL     1      25.364  -1.797  55.065  1.00  0.00     0.189 HD
ENDROOT
BRANCH   1   8
HETATM    8  C6  UNL     1      23.561  -0.441  53.562  1.00  0.00     0.008 C 
BRANCH   8   9
HETATM    9  C5  UNL     1      22.232  -0.838  54.039  1.00  0.00     0.049 C 
BRANCH   9  10
HETATM   10  C4  UNL     1      21.269   0.339  54.007  1.00  0.00     0.120 C 
BRANCH  10  11
HETATM   11  N2  UNL     1      21.212   0.912  52.682  1.00  0.00    -0.412 N 
HETATM   12  C3  UNL     1      20.846  -0.007  51.656  1.00  0.00     0.119 C 
HETATM   13  C2  UNL     1      21.224   0.620  50.311  1.00  0.00     0.055 C 
HETATM   14  C1  UNL     1      20.458   1.891  50.108  1.00  0.00     0.221 C 
HETATM   15  C17 UNL     1      19.749   2.343  51.363  1.00  0.00     0.055 C 
HETATM   16  C16 UNL     1      20.627   2.208  52.606  1.00  0.00     0.119 C 
BRANCH  14  17
HETATM   17  N1  UNL     1      19.441   1.710  49.095  1.00  0.00     0.083 N 
HETATM   18  H1  UNL     1      19.487   0.767  48.654  1.00  0.00     0.313 HD
HETATM   19  H2  UNL     1      19.546   2.453  48.363  1.00  0.00     0.313 HD
ENDBRANCH  14  17
ENDBRANCH  10  11
ENDBRANCH   9  10
ENDBRANCH   8   9
ENDBRANCH   1   8
BRANCH   6  20
HETATM   20  C10 UNL     1      24.654   2.132  52.436  1.00  0.00    -0.005 A 
HETATM   21  C11 UNL     1      24.185   3.246  53.149  1.00  0.00     0.014 A 
HETATM   22  C12 UNL     1      23.571   4.333  52.582  1.00  0.00     0.001 A 
HETATM   23  C13 UNL     1      23.377   4.394  51.231  1.00  0.00     0.000 A 
HETATM   24  C14 UNL     1      23.809   3.346  50.456  1.00  0.00     0.001 A 
HETATM   25  C15 UNL     1      24.405   2.318  51.128  1.00  0.00     0.014 A 
ENDBRANCH   6  20
TORSDOF 6
ENDMDL
MODEL 7
REMARK VINA RESULT:      -7.1      2.387      4.680
REMARK  6 active torsions:
REMARK  status: ('A' for Active; 'I' for Inactive)
REMARK    1  A    between atoms: N1_1  and  C1_2 
REMARK    2  A    between atoms: N2_5  and  C4_6 
REMARK    3  A    between atoms: C4_6  and  C5_7 
REMARK    4  A    between atoms: C5_7  and  C6_8 
REMARK    5  A    between atoms: C6_8  and  C7_9 
REMARK    6  A    between atoms: C9_14  and  C10_15 
ROOT
HETATM    1  C7  UNL     1      22.448   1.519  50.861  1.00  0.00     0.076 A 
HETATM    2  N3  UNL     1      21.189   0.883  50.827  1.00  0.00    -0.275 N 
HETATM    3  N4  UNL     1      20.329   1.134  49.755  1.00  0.00    -0.168 NA
HETATM    4  C8  UNL     1      20.733   1.945  48.837  1.00  0.00     0.255 A 
HETATM    5  N5  UNL     1      21.992   2.557  48.914  1.00  0.00    -0.237 NA
HETATM    6  C9  UNL     1      22.879   2.425  49.831  1.00  0.00     0.096 A 
HETATM    7  H13 UNL     1      20.738   0.236  51.464  1.00  0.00     0.189 HD
ENDROOT
BRANCH   1   8
HETATM    8  C6  UNL     1      23.250   1.186  51.839  1.00  0.00     0.008 C 
BRANCH   8   9
HETATM    9  C5  UNL     1      23.868   1.456  53.142  1.00  0.00     0.049 C 
BRANCH   9  10
HETATM   10  C4  UNL     1      24.744   0.293  53.581  1.00  0.00     0.120 C 
BRANCH  10  11
HETATM   11  N2  UNL     1      26.142   0.619  53.415  1.00  0.00    -0.412 N 
HETATM   12  C3  UNL     1      26.459   1.990  53.643  1.00  0.00     0.119 C 
HETATM   13  C2  UNL     1      27.843   2.254  53.044  1.00  0.00     0.055 C 
HETATM   14  C1  UNL     1      28.867   1.406  53.735  1.00  0.00     0.221 C 
HETATM   15  C17 UNL     1      28.242   0.351  54.617  1.00  0.00     0.055 C 
HETATM   16  C16 UNL     1      27.054  -0.337  53.946  1.00  0.00     0.119 C 
BRANCH  14  17
HETATM   17  N1  UNL     1      29.705   2.223  54.586  1.00  0.00     0.083 N 
HETATM   18  H1  UNL     1      29.637   3.236  54.353  1.00  0.00     0.313 HD
HETATM   19  H2  UNL     1      30.699   1.901  54.504  1.00  0.00     0.313 HD
ENDBRANCH  14  17
ENDBRANCH  10  11
ENDBRANCH   9  10
ENDBRANCH   8   9
ENDBRANCH   1   8
BRANCH   6  20
HETATM   20  C10 UNL     1      24.116   3.122  49.698  1.00  0.00    -0.005 A 
HETATM   21  C11 UNL     1      23.972   4.392  49.119  1.00  0.00     0.014 A 
HETATM   22  C12 UNL     1      24.997   5.282  48.924  1.00  0.00     0.001 A 
HETATM   23  C13 UNL     1      26.271   4.966  49.304  1.00  0.00     0.000 A 
HETATM   24  C14 UNL     1      26.501   3.743  49.882  1.00  0.00     0.001 A 
HETATM   25  C15 UNL     1      25.407   2.939  50.025  1.00  0.00     0.014 A 
ENDBRANCH   6  20
TORSDOF 6
ENDMDL
MODEL 8
REMARK VINA RESULT:      -7.1      2.152      6.470
REMARK  6 active torsions:
REMARK  status: ('A' for Active; 'I' for Inactive)
REMARK    1  A    between atoms: N1_1  and  C1_2 
REMARK    2  A    between atoms: N2_5  and  C4_6 
REMARK    3  A    between atoms: C4_6  and  C5_7 
REMARK    4  A    between atoms: C5_7  and  C6_8 
REMARK    5  A    between atoms: C6_8  and  C7_9 
REMARK    6  A    between atoms: C9_14  and  C10_15 
ROOT
HETATM    1  C7  UNL     1      26.094   1.739  53.876  1.00  0.00     0.076 A 
HETATM    2  N3  UNL     1      27.402   2.249  54.017  1.00  0.00    -0.275 N 
HETATM    3  N4  UNL     1      28.412   1.409  54.494  1.00  0.00    -0.168 NA
HETATM    4  C8  UNL     1      28.094   0.194  54.786  1.00  0.00     0.255 A 
HETATM    5  N5  UNL     1      26.780  -0.270  54.633  1.00  0.00    -0.237 NA
HETATM    6  C9  UNL     1      25.758   0.382  54.213  1.00  0.00     0.096 A 
HETATM    7  H13 UNL     1      27.796   3.165  53.835  1.00  0.00     0.189 HD
ENDROOT
BRANCH   1   8
HETATM    8  C6  UNL     1      25.205   2.537  53.345  1.00  0.00     0.008 C 
BRANCH   8   9
HETATM    9  C5  UNL     1      24.556   3.142  52.176  1.00  0.00     0.049 C 
BRANCH   9  10
HETATM   10  C4  UNL     1      23.044   3.148  52.335  1.00  0.00     0.120 C 
BRANCH  10  11
HETATM   11  N2  UNL     1      22.496   4.422  51.928  1.00  0.00    -0.412 N 
HETATM   12  C3  UNL     1      23.334   5.172  51.053  1.00  0.00     0.119 C 
HETATM   13  C2  UNL     1      22.827   6.617  51.048  1.00  0.00     0.055 C 
HETATM   14  C1  UNL     1      21.426   6.663  50.522  1.00  0.00     0.221 C 
HETATM   15  C17 UNL     1      20.809   5.290  50.402  1.00  0.00     0.055 C 
HETATM   16  C16 UNL     1      21.106   4.413  51.618  1.00  0.00     0.119 C 
BRANCH  14  17
HETATM   17  N1  UNL     1      21.404   7.250  49.199  1.00  0.00     0.083 N 
HETATM   18  H1  UNL     1      20.476   7.660  48.964  1.00  0.00     0.313 HD
HETATM   19  H2  UNL     1      21.663   6.520  48.493  1.00  0.00     0.313 HD
ENDBRANCH  14  17
ENDBRANCH  10  11
ENDBRANCH   9  10
ENDBRANCH   8   9
ENDBRANCH   1   8
BRANCH   6  20
HETATM   20  C10 UNL     1      24.508  -0.295  54.106  1.00  0.00    -0.005 A 
HETATM   21  C11 UNL     1      24.117  -0.922  55.299  1.00  0.00     0.014 A 
HETATM   22  C12 UNL     1      22.937  -1.597  55.475  1.00  0.00     0.001 A 
HETATM   23  C13 UNL     1      22.036  -1.697  54.454  1.00  0.00     0.000 A 
HETATM   24  C14 UNL     1      22.337  -1.110  53.251  1.00  0.00     0.001 A 
HETATM   25  C15 UNL     1      23.539  -0.465  53.189  1.00  0.00     0.014 A 
ENDBRANCH   6  20
TORSDOF 6
ENDMDL
MODEL 9
REMARK VINA RESULT:      -6.8      2.375      6.988
REMARK  6 active torsions:
REMARK  status: ('A' for Active; 'I' for Inactive)
REMARK    1  A    between atoms: N1_1  and  C1_2 
REMARK    2  A    between atoms: N2_5  and  C4_6 
REMARK    3  A    between atoms: C4_6  and  C5_7 
REMARK    4  A    between atoms: C5_7  and  C6_8 
REMARK    5  A    between atoms: C6_8  and  C7_9 
REMARK    6  A    between atoms: C9_14  and  C10_15 
ROOT
HETATM    1  C7  UNL     1      24.512   0.083  53.309  1.00  0.00     0.076 A 
HETATM    2  N3  UNL     1      23.155  -0.210  53.567  1.00  0.00    -0.275 N 
HETATM    3  N4  UNL     1      22.825  -0.962  54.697  1.00  0.00    -0.168 NA
HETATM    4  C8  UNL     1      23.787  -1.356  55.460  1.00  0.00     0.255 A 
HETATM    5  N5  UNL     1      25.121  -1.044  55.164  1.00  0.00    -0.237 NA
HETATM    6  C9  UNL     1      25.572  -0.371  54.169  1.00  0.00     0.096 A 
HETATM    7  H13 UNL     1      22.305   0.022  53.067  1.00  0.00     0.189 HD
ENDROOT
BRANCH   1   8
HETATM    8  C6  UNL     1      24.763   0.860  52.289  1.00  0.00     0.008 C 
BRANCH   8   9
HETATM    9  C5  UNL     1      25.119   2.167  51.727  1.00  0.00     0.049 C 
BRANCH   9  10
HETATM   10  C4  UNL     1      24.264   3.270  52.329  1.00  0.00     0.120 C 
BRANCH  10  11
HETATM   11  N2  UNL     1      22.976   3.328  51.676  1.00  0.00    -0.412 N 
HETATM   12  C3  UNL     1      22.025   4.171  52.320  1.00  0.00     0.119 C 
HETATM   13  C2  UNL     1      20.640   3.815  51.773  1.00  0.00     0.055 C 
HETATM   14  C1  UNL     1      20.591   4.079  50.299  1.00  0.00     0.221 C 
HETATM   15  C17 UNL     1      21.957   4.354  49.717  1.00  0.00     0.055 C 
HETATM   16  C16 UNL     1      23.019   3.397  50.254  1.00  0.00     0.119 C 
BRANCH  14  17
HETATM   17  N1  UNL     1      19.775   5.243  50.024  1.00  0.00     0.083 N 
HETATM   18  H1  UNL     1      19.065   5.412  50.767  1.00  0.00     0.313 HD
HETATM   19  H2  UNL     1      19.303   5.123  49.096  1.00  0.00     0.313 HD
ENDBRANCH  14  17
ENDBRANCH  10  11
ENDBRANCH   9  10
ENDBRANCH   8   9
ENDBRANCH   1   8
BRANCH   6  20
HETATM   20  C10 UNL     1      26.976  -0.143  54.072  1.00  0.00    -0.005 A 
HETATM   21  C11 UNL     1      27.667  -1.209  53.474  1.00  0.00     0.014 A 
HETATM   22  C12 UNL     1      29.014  -1.221  53.220  1.00  0.00     0.001 A 
HETATM   23  C13 UNL     1      29.791  -0.146  53.547  1.00  0.00     0.000 A 
HETATM   24  C14 UNL     1      29.195   0.942  54.134  1.00  0.00     0.001 A 
HETATM   25  C15 UNL     1      27.849   0.843  54.340  1.00  0.00     0.014 A 
ENDBRANCH   6  20
TORSDOF 6
ENDMDL
