MODEL 1
REMARK VINA RESULT:      -6.5      0.000      0.000
REMARK  10 active torsions:
REMARK  status: ('A' for Active; 'I' for Inactive)
REMARK    1  A    between atoms: N1_1  and  C1_2 
REMARK    2  A    between atoms: C1_2  and  C2_3 
REMARK    3  A    between atoms: C2_3  and  C3_4 
REMARK    4  A    between atoms: C7_8  and  C8_9 
REMARK    5  A    between atoms: C8_9  and  C9_10 
REMARK    6  A    between atoms: C9_10  and  C10_11 
REMARK    7  A    between atoms: C10_11  and  C11_12 
REMARK    8  A    between atoms: C11_12  and  C12_13 
REMARK    9  A    between atoms: C12_13  and  N2_15 
REMARK   10  A    between atoms: N2_15  and  C13_16 
ROOT
HETATM    1  C9  UNL     1      26.295   2.925  50.103  1.00  0.00     0.005 C 
ENDROOT
BRANCH   1   2
HETATM    2  C8  UNL     1      26.944   2.717  51.413  1.00  0.00     0.034 C 
BRANCH   2   3
HETATM    3  C7  UNL     1      26.742   1.474  52.123  1.00  0.00    -0.079 C 
HETATM    4  C6  UNL     1      26.433   0.270  51.717  1.00  0.00     0.002 C 
HETATM    5  C5  UNL     1      26.252  -0.943  52.466  1.00  0.00    -0.003 C 
HETATM    6  C4  UNL     1      26.479  -0.689  53.768  1.00  0.00    -0.022 C 
HETATM    7  C3  UNL     1      26.862   0.545  54.479  1.00  0.00     0.013 C 
HETATM    8  C19 UNL     1      26.782   1.712  53.585  1.00  0.00     0.042 C 
BRANCH   7   9
HETATM    9  C2  UNL     1      28.298   0.283  54.950  1.00  0.00     0.038 C 
BRANCH   9  10
HETATM   10  C1  UNL     1      29.295   1.230  54.387  1.00  0.00     0.267 C 
BRANCH  10  11
HETATM   11  N1  UNL     1      30.160   0.504  53.456  1.00  0.00     0.078 N 
HETATM   12  H1  UNL     1      31.057   0.253  53.933  1.00  0.00     0.312 HD
HETATM   13  H2  UNL     1      30.310   0.972  52.560  1.00  0.00     0.312 HD
ENDBRANCH  10  11
ENDBRANCH   9  10
ENDBRANCH   7   9
ENDBRANCH   2   3
ENDBRANCH   1   2
BRANCH   1  14
HETATM   14  C10 UNL     1      26.309   4.277  49.505  1.00  0.00     0.007 C 
BRANCH  14  15
HETATM   15  C11 UNL     1      24.873   4.636  49.110  1.00  0.00     0.069 C 
BRANCH  15  16
HETATM   16  C12 UNL     1      24.130   5.343  50.156  1.00  0.00     0.077 C 
HETATM   17  S1  UNL     1      24.244   6.686  51.117  1.00  0.00    -0.065 SA
BRANCH  16  18
HETATM   18  N2  UNL     1      22.908   4.590  50.408  1.00  0.00    -0.351 N 
HETATM   19  H19 UNL     1      21.915   4.768  50.198  1.00  0.00     0.166 HD
BRANCH  18  20
HETATM   20  C13 UNL     1      22.883   3.319  51.061  1.00  0.00     0.032 A 
HETATM   21  C14 UNL     1      23.315   3.109  52.349  1.00  0.00     0.029 A 
HETATM   22  C15 UNL     1      23.258   1.871  52.946  1.00  0.00     0.002 A 
HETATM   23  C16 UNL     1      22.731   0.827  52.173  1.00  0.00     0.000 A 
HETATM   24  C17 UNL     1      22.292   1.017  50.880  1.00  0.00     0.002 A 
HETATM   25  C18 UNL     1      22.366   2.291  50.302  1.00  0.00     0.029 A 
ENDBRANCH  18  20
ENDBRANCH  16  18
ENDBRANCH  15  16
ENDBRANCH  14  15
ENDBRANCH   1  14
TORSDOF 10
ENDMDL
MODEL 2
REMARK VINA RESULT:      -6.5      2.008      3.996
REMARK  10 active torsions:
REMARK  status: ('A' for Active; 'I' for Inactive)
REMARK    1  A    between atoms: N1_1  and  C1_2 
REMARK    2  A    between atoms: C1_2  and  C2_3 
REMARK    3  A    between atoms: C2_3  and  C3_4 
REMARK    4  A    between atoms: C7_8  and  C8_9 
REMARK    5  A    between atoms: C8_9  and  C9_10 
REMARK    6  A    between atoms: C9_10  and  C10_11 
REMARK    7  A    between atoms: C10_11  and  C11_12 
REMARK    8  A    between atoms: C11_12  and  C12_13 
REMARK    9  A    between atoms: C12_13  and  N2_15 
REMARK   10  A    between atoms: N2_15  and  C13_16 
ROOT
HETATM    1  C9  UNL     1      22.591   0.437  53.534  1.00  0.00     0.005 C 
ENDROOT
BRANCH   1   2
HETATM    2  C8  UNL     1      23.830  -0.289  53.187  1.00  0.00     0.034 C 
BRANCH   2   3
HETATM    3  C7  UNL     1      25.098   0.403  53.223  1.00  0.00    -0.079 C 
HETATM    4  C6  UNL     1      25.440   1.591  53.650  1.00  0.00     0.002 C 
HETATM    5  C5  UNL     1      26.726   2.233  53.673  1.00  0.00    -0.003 C 
HETATM    6  C4  UNL     1      27.646   1.386  53.174  1.00  0.00    -0.022 C 
HETATM    7  C3  UNL     1      27.539   0.009  52.658  1.00  0.00     0.013 C 
HETATM    8  C19 UNL     1      26.128  -0.389  52.510  1.00  0.00     0.042 C 
BRANCH   7   9
HETATM    9  C2  UNL     1      28.267  -0.846  53.703  1.00  0.00     0.038 C 
BRANCH   9  10
HETATM   10  C1  UNL     1      29.155  -1.883  53.115  1.00  0.00     0.267 C 
BRANCH  10  11
HETATM   11  N1  UNL     1      28.465  -3.173  53.161  1.00  0.00     0.078 N 
HETATM   12  H1  UNL     1      27.465  -3.027  53.431  1.00  0.00     0.312 HD
HETATM   13  H2  UNL     1      28.926  -3.883  53.733  1.00  0.00     0.312 HD
ENDBRANCH  10  11
ENDBRANCH   9  10
ENDBRANCH   7   9
ENDBRANCH   2   3
ENDBRANCH   1   2
BRANCH   1  14
HETATM   14  C10 UNL     1      22.000   1.358  52.539  1.00  0.00     0.007 C 
BRANCH  14  15
HETATM   15  C11 UNL     1      22.117   0.704  51.159  1.00  0.00     0.069 C 
BRANCH  15  16
HETATM   16  C12 UNL     1      22.257   1.662  50.059  1.00  0.00     0.077 C 
HETATM   17  S1  UNL     1      21.937   1.803  48.441  1.00  0.00    -0.065 SA
BRANCH  16  18
HETATM   18  N2  UNL     1      22.886   2.859  50.601  1.00  0.00    -0.351 N 
HETATM   19  H19 UNL     1      22.613   3.529  51.335  1.00  0.00     0.166 HD
BRANCH  18  20
HETATM   20  C13 UNL     1      24.147   3.361  50.153  1.00  0.00     0.032 A 
HETATM   21  C14 UNL     1      25.327   2.659  50.237  1.00  0.00     0.029 A 
HETATM   22  C15 UNL     1      26.517   3.173  49.778  1.00  0.00     0.002 A 
HETATM   23  C16 UNL     1      26.469   4.455  49.215  1.00  0.00     0.000 A 
HETATM   24  C17 UNL     1      25.297   5.176  49.121  1.00  0.00     0.002 A 
HETATM   25  C18 UNL     1      24.102   4.622  49.600  1.00  0.00     0.029 A 
ENDBRANCH  18  20
ENDBRANCH  16  18
ENDBRANCH  15  16
ENDBRANCH  14  15
ENDBRANCH   1  14
TORSDOF 10
ENDMDL
MODEL 3
REMARK VINA RESULT:      -6.5      2.061      2.638
REMARK  10 active torsions:
REMARK  status: ('A' for Active; 'I' for Inactive)
REMARK    1  A    between atoms: N1_1  and  C1_2 
REMARK    2  A    between atoms: C1_2  and  C2_3 
REMARK    3  A    between atoms: C2_3  and  C3_4 
REMARK    4  A    between atoms: C7_8  and  C8_9 
REMARK    5  A    between atoms: C8_9  and  C9_10 
REMARK    6  A    between atoms: C9_10  and  C10_11 
REMARK    7  A    between atoms: C10_11  and  C11_12 
REMARK    8  A    between atoms: C11_12  and  C12_13 
REMARK    9  A    between atoms: C12_13  and  N2_15 
REMARK   10  A    between atoms: N2_15  and  C13_16 
ROOT
HETATM    1  C9  UNL     1      25.780   3.016  50.495  1.00  0.00     0.005 C 
ENDROOT
BRANCH   1   2
HETATM    2  C8  UNL     1      26.858   2.640  51.431  1.00  0.00     0.034 C 
BRANCH   2   3
HETATM    3  C7  UNL     1      26.799   1.368  52.116  1.00  0.00    -0.079 C 
HETATM    4  C6  UNL     1      26.648   0.144  51.686  1.00  0.00     0.002 C 
HETATM    5  C5  UNL     1      26.606  -1.096  52.411  1.00  0.00    -0.003 C 
HETATM    6  C4  UNL     1      26.778  -0.841  53.722  1.00  0.00    -0.022 C 
HETATM    7  C3  UNL     1      26.993   0.418  54.460  1.00  0.00     0.013 C 
HETATM    8  C19 UNL     1      26.785   1.583  53.583  1.00  0.00     0.042 C 
BRANCH   7   9
HETATM    9  C2  UNL     1      28.443   0.326  54.953  1.00  0.00     0.038 C 
BRANCH   9  10
HETATM   10  C1  UNL     1      29.316  -0.516  54.095  1.00  0.00     0.267 C 
BRANCH  10  11
HETATM   11  N1  UNL     1      30.246   0.354  53.373  1.00  0.00     0.078 N 
HETATM   12  H1  UNL     1      30.401  -0.021  52.409  1.00  0.00     0.312 HD
HETATM   13  H2  UNL     1      31.121   0.545  53.866  1.00  0.00     0.312 HD
ENDBRANCH  10  11
ENDBRANCH   9  10
ENDBRANCH   7   9
ENDBRANCH   2   3
ENDBRANCH   1   2
BRANCH   1  14
HETATM   14  C10 UNL     1      24.406   3.185  51.018  1.00  0.00     0.007 C 
BRANCH  14  15
HETATM   15  C11 UNL     1      23.426   2.741  49.927  1.00  0.00     0.069 C 
BRANCH  15  16
HETATM   16  C12 UNL     1      22.330   1.905  50.420  1.00  0.00     0.077 C 
HETATM   17  S1  UNL     1      21.243   0.777  49.884  1.00  0.00    -0.065 SA
BRANCH  16  18
HETATM   18  N2  UNL     1      22.172   2.187  51.841  1.00  0.00    -0.351 N 
HETATM   19  H19 UNL     1      22.108   3.062  52.383  1.00  0.00     0.166 HD
BRANCH  18  20
HETATM   20  C13 UNL     1      22.057   1.173  52.840  1.00  0.00     0.032 A 
HETATM   21  C14 UNL     1      20.913   0.934  53.566  1.00  0.00     0.029 A 
HETATM   22  C15 UNL     1      20.841  -0.065  54.508  1.00  0.00     0.002 A 
HETATM   23  C16 UNL     1      21.996  -0.836  54.693  1.00  0.00     0.000 A 
HETATM   24  C17 UNL     1      23.153  -0.614  53.976  1.00  0.00     0.002 A 
HETATM   25  C18 UNL     1      23.193   0.414  53.024  1.00  0.00     0.029 A 
ENDBRANCH  18  20
ENDBRANCH  16  18
ENDBRANCH  15  16
ENDBRANCH  14  15
ENDBRANCH   1  14
TORSDOF 10
ENDMDL
MODEL 4
REMARK VINA RESULT:      -6.4      2.617      3.665
REMARK  10 active torsions:
REMARK  status: ('A' for Active; 'I' for Inactive)
REMARK    1  A    between atoms: N1_1  and  C1_2 
REMARK    2  A    between atoms: C1_2  and  C2_3 
REMARK    3  A    between atoms: C2_3  and  C3_4 
REMARK    4  A    between atoms: C7_8  and  C8_9 
REMARK    5  A    between atoms: C8_9  and  C9_10 
REMARK    6  A    between atoms: C9_10  and  C10_11 
REMARK    7  A    between atoms: C10_11  and  C11_12 
REMARK    8  A    between atoms: C11_12  and  C12_13 
REMARK    9  A    between atoms: C12_13  and  N2_15 
REMARK   10  A    between atoms: N2_15  and  C13_16 
ROOT
HETATM    1  C9  UNL     1      23.668   3.509  52.620  1.00  0.00     0.005 C 
ENDROOT
BRANCH   1   2
HETATM    2  C8  UNL     1      24.113   2.180  53.087  1.00  0.00     0.034 C 
BRANCH   2   3
HETATM    3  C7  UNL     1      25.518   1.845  53.060  1.00  0.00    -0.079 C 
HETATM    4  C6  UNL     1      26.561   2.380  53.639  1.00  0.00     0.002 C 
HETATM    5  C5  UNL     1      27.947   2.002  53.588  1.00  0.00    -0.003 C 
HETATM    6  C4  UNL     1      28.072   0.907  52.814  1.00  0.00    -0.022 C 
HETATM    7  C3  UNL     1      27.078   0.103  52.078  1.00  0.00     0.013 C 
HETATM    8  C19 UNL     1      25.764   0.769  52.071  1.00  0.00     0.042 C 
BRANCH   7   9
HETATM    9  C2  UNL     1      27.038  -1.233  52.832  1.00  0.00     0.038 C 
BRANCH   9  10
HETATM   10  C1  UNL     1      28.369  -1.696  53.302  1.00  0.00     0.267 C 
BRANCH  10  11
HETATM   11  N1  UNL     1      28.459  -3.144  53.104  1.00  0.00     0.078 N 
HETATM   12  H1  UNL     1      29.224  -3.359  52.424  1.00  0.00     0.312 HD
HETATM   13  H2  UNL     1      27.576  -3.596  52.857  1.00  0.00     0.312 HD
ENDBRANCH  10  11
ENDBRANCH   9  10
ENDBRANCH   7   9
ENDBRANCH   2   3
ENDBRANCH   1   2
BRANCH   1  14
HETATM   14  C10 UNL     1      22.641   3.587  51.559  1.00  0.00     0.007 C 
BRANCH  14  15
HETATM   15  C11 UNL     1      22.692   2.286  50.752  1.00  0.00     0.069 C 
BRANCH  15  16
HETATM   16  C12 UNL     1      21.374   1.749  50.409  1.00  0.00     0.077 C 
HETATM   17  S1  UNL     1      19.961   2.203  49.674  1.00  0.00    -0.065 SA
BRANCH  16  18
HETATM   18  N2  UNL     1      21.326   0.373  50.889  1.00  0.00    -0.351 N 
HETATM   19  H19 UNL     1      21.204  -0.534  50.416  1.00  0.00     0.166 HD
BRANCH  18  20
HETATM   20  C13 UNL     1      21.463   0.010  52.264  1.00  0.00     0.032 A 
HETATM   21  C14 UNL     1      22.413  -0.865  52.736  1.00  0.00     0.029 A 
HETATM   22  C15 UNL     1      22.522  -1.175  54.071  1.00  0.00     0.002 A 
HETATM   23  C16 UNL     1      21.613  -0.549  54.935  1.00  0.00     0.000 A 
HETATM   24  C17 UNL     1      20.654   0.333  54.483  1.00  0.00     0.002 A 
HETATM   25  C18 UNL     1      20.570   0.625  53.115  1.00  0.00     0.029 A 
ENDBRANCH  18  20
ENDBRANCH  16  18
ENDBRANCH  15  16
ENDBRANCH  14  15
ENDBRANCH   1  14
TORSDOF 10
ENDMDL
MODEL 5
REMARK VINA RESULT:      -6.3      2.631      4.200
REMARK  10 active torsions:
REMARK  status: ('A' for Active; 'I' for Inactive)
REMARK    1  A    between atoms: N1_1  and  C1_2 
REMARK    2  A    between atoms: C1_2  and  C2_3 
REMARK    3  A    between atoms: C2_3  and  C3_4 
REMARK    4  A    between atoms: C7_8  and  C8_9 
REMARK    5  A    between atoms: C8_9  and  C9_10 
REMARK    6  A    between atoms: C9_10  and  C10_11 
REMARK    7  A    between atoms: C10_11  and  C11_12 
REMARK    8  A    between atoms: C11_12  and  C12_13 
REMARK    9  A    between atoms: C12_13  and  N2_15 
REMARK   10  A    between atoms: N2_15  and  C13_16 
ROOT
HETATM    1  C9  UNL     1      22.686  -1.038  53.712  1.00  0.00     0.005 C 
ENDROOT
BRANCH   1   2
HETATM    2  C8  UNL     1      23.802  -0.191  54.180  1.00  0.00     0.034 C 
BRANCH   2   3
HETATM    3  C7  UNL     1      25.144  -0.454  53.712  1.00  0.00    -0.079 C 
HETATM    4  C6  UNL     1      25.630  -1.350  52.893  1.00  0.00     0.002 C 
HETATM    5  C5  UNL     1      26.980  -1.564  52.449  1.00  0.00    -0.003 C 
HETATM    6  C4  UNL     1      27.776  -0.633  53.007  1.00  0.00    -0.022 C 
HETATM    7  C3  UNL     1      27.490   0.485  53.924  1.00  0.00     0.013 C 
HETATM    8  C19 UNL     1      26.110   0.407  54.434  1.00  0.00     0.042 C 
BRANCH   7   9
HETATM    9  C2  UNL     1      27.714   1.742  53.074  1.00  0.00     0.038 C 
BRANCH   9  10
HETATM   10  C1  UNL     1      28.805   2.618  53.574  1.00  0.00     0.267 C 
BRANCH  10  11
HETATM   11  N1  UNL     1      29.478   1.943  54.685  1.00  0.00     0.078 N 
HETATM   12  H1  UNL     1      29.551   0.919  54.482  1.00  0.00     0.312 HD
HETATM   13  H2  UNL     1      29.075   2.132  55.605  1.00  0.00     0.312 HD
ENDBRANCH  10  11
ENDBRANCH   9  10
ENDBRANCH   7   9
ENDBRANCH   2   3
ENDBRANCH   1   2
BRANCH   1  14
HETATM   14  C10 UNL     1      21.394  -0.979  54.430  1.00  0.00     0.007 C 
BRANCH  14  15
HETATM   15  C11 UNL     1      20.858   0.452  54.324  1.00  0.00     0.069 C 
BRANCH  15  16
HETATM   16  C12 UNL     1      20.195   0.744  53.051  1.00  0.00     0.077 C 
HETATM   17  S1  UNL     1      19.096   0.084  52.003  1.00  0.00    -0.065 SA
BRANCH  16  18
HETATM   18  N2  UNL     1      20.689   2.034  52.587  1.00  0.00    -0.351 N 
HETATM   19  H19 UNL     1      20.238   2.947  52.430  1.00  0.00     0.166 HD
BRANCH  18  20
HETATM   20  C13 UNL     1      22.053   2.277  52.237  1.00  0.00     0.032 A 
HETATM   21  C14 UNL     1      22.880   3.138  52.920  1.00  0.00     0.029 A 
HETATM   22  C15 UNL     1      24.193   3.331  52.559  1.00  0.00     0.002 A 
HETATM   23  C16 UNL     1      24.652   2.602  51.454  1.00  0.00     0.000 A 
HETATM   24  C17 UNL     1      23.840   1.733  50.756  1.00  0.00     0.002 A 
HETATM   25  C18 UNL     1      22.506   1.561  51.150  1.00  0.00     0.029 A 
ENDBRANCH  18  20
ENDBRANCH  16  18
ENDBRANCH  15  16
ENDBRANCH  14  15
ENDBRANCH   1  14
TORSDOF 10
ENDMDL
MODEL 6
REMARK VINA RESULT:      -6.3      2.818      4.491
REMARK  10 active torsions:
REMARK  status: ('A' for Active; 'I' for Inactive)
REMARK    1  A    between atoms: N1_1  and  C1_2 
REMARK    2  A    between atoms: C1_2  and  C2_3 
REMARK    3  A    between atoms: C2_3  and  C3_4 
REMARK    4  A    between atoms: C7_8  and  C8_9 
REMARK    5  A    between atoms: C8_9  and  C9_10 
REMARK    6  A    between atoms: C9_10  and  C10_11 
REMARK    7  A    between atoms: C10_11  and  C11_12 
REMARK    8  A    between atoms: C11_12  and  C12_13 
REMARK    9  A    between atoms: C12_13  and  N2_15 
REMARK   10  A    between atoms: N2_15  and  C13_16 
ROOT
HETATM    1  C9  UNL     1      23.034  -0.887  54.328  1.00  0.00     0.005 C 
ENDROOT
BRANCH   1   2
HETATM    2  C8  UNL     1      23.685  -0.428  53.084  1.00  0.00     0.034 C 
BRANCH   2   3
HETATM    3  C7  UNL     1      24.928   0.306  53.157  1.00  0.00    -0.079 C 
HETATM    4  C6  UNL     1      25.218   1.505  53.590  1.00  0.00     0.002 C 
HETATM    5  C5  UNL     1      26.480   2.190  53.650  1.00  0.00    -0.003 C 
HETATM    6  C4  UNL     1      27.443   1.372  53.184  1.00  0.00    -0.022 C 
HETATM    7  C3  UNL     1      27.397  -0.009  52.670  1.00  0.00     0.013 C 
HETATM    8  C19 UNL     1      26.006  -0.454  52.480  1.00  0.00     0.042 C 
BRANCH   7   9
HETATM    9  C2  UNL     1      28.120  -0.837  53.740  1.00  0.00     0.038 C 
BRANCH   9  10
HETATM   10  C1  UNL     1      29.160  -1.747  53.193  1.00  0.00     0.267 C 
BRANCH  10  11
HETATM   11  N1  UNL     1      28.637  -3.114  53.195  1.00  0.00     0.078 N 
HETATM   12  H1  UNL     1      28.011  -3.250  54.022  1.00  0.00     0.312 HD
HETATM   13  H2  UNL     1      29.350  -3.843  53.118  1.00  0.00     0.312 HD
ENDBRANCH  10  11
ENDBRANCH   9  10
ENDBRANCH   7   9
ENDBRANCH   2   3
ENDBRANCH   1   2
BRANCH   1  14
HETATM   14  C10 UNL     1      21.589  -0.633  54.514  1.00  0.00     0.007 C 
BRANCH  14  15
HETATM   15  C11 UNL     1      21.246   0.688  53.817  1.00  0.00     0.069 C 
BRANCH  15  16
HETATM   16  C12 UNL     1      20.146   0.583  52.856  1.00  0.00     0.077 C 
HETATM   17  S1  UNL     1      18.830  -0.363  52.521  1.00  0.00    -0.065 SA
BRANCH  16  18
HETATM   18  N2  UNL     1      20.292   1.677  51.905  1.00  0.00    -0.351 N 
HETATM   19  H19 UNL     1      19.620   2.211  51.335  1.00  0.00     0.166 HD
BRANCH  18  20
HETATM   20  C13 UNL     1      21.548   2.269  51.569  1.00  0.00     0.032 A 
HETATM   21  C14 UNL     1      22.395   1.779  50.603  1.00  0.00     0.029 A 
HETATM   22  C15 UNL     1      23.589   2.390  50.299  1.00  0.00     0.002 A 
HETATM   23  C16 UNL     1      23.903   3.546  51.025  1.00  0.00     0.000 A 
HETATM   24  C17 UNL     1      23.068   4.055  51.997  1.00  0.00     0.002 A 
HETATM   25  C18 UNL     1      21.859   3.407  52.283  1.00  0.00     0.029 A 
ENDBRANCH  18  20
ENDBRANCH  16  18
ENDBRANCH  15  16
ENDBRANCH  14  15
ENDBRANCH   1  14
TORSDOF 10
ENDMDL
MODEL 7
REMARK VINA RESULT:      -6.1      2.278      3.777
REMARK  10 active torsions:
REMARK  status: ('A' for Active; 'I' for Inactive)
REMARK    1  A    between atoms: N1_1  and  C1_2 
REMARK    2  A    between atoms: C1_2  and  C2_3 
REMARK    3  A    between atoms: C2_3  and  C3_4 
REMARK    4  A    between atoms: C7_8  and  C8_9 
REMARK    5  A    between atoms: C8_9  and  C9_10 
REMARK    6  A    between atoms: C9_10  and  C10_11 
REMARK    7  A    between atoms: C10_11  and  C11_12 
REMARK    8  A    between atoms: C11_12  and  C12_13 
REMARK    9  A    between atoms: C12_13  and  N2_15 
REMARK   10  A    between atoms: N2_15  and  C13_16 
ROOT
HETATM    1  C9  UNL     1      26.952   4.017  49.170  1.00  0.00     0.005 C 
ENDROOT
BRANCH   1   2
HETATM    2  C8  UNL     1      25.508   3.731  49.297  1.00  0.00     0.034 C 
BRANCH   2   3
HETATM    3  C7  UNL     1      25.040   2.866  50.356  1.00  0.00    -0.079 C 
HETATM    4  C6  UNL     1      23.851   2.420  50.666  1.00  0.00     0.002 C 
HETATM    5  C5  UNL     1      23.436   1.548  51.730  1.00  0.00    -0.003 C 
HETATM    6  C4  UNL     1      24.519   1.181  52.441  1.00  0.00    -0.022 C 
HETATM    7  C3  UNL     1      25.950   1.509  52.295  1.00  0.00     0.013 C 
HETATM    8  C19 UNL     1      26.145   2.577  51.300  1.00  0.00     0.042 C 
BRANCH   7   9
HETATM    9  C2  UNL     1      26.599   0.191  51.855  1.00  0.00     0.038 C 
BRANCH   9  10
HETATM   10  C1  UNL     1      27.475  -0.421  52.888  1.00  0.00     0.267 C 
BRANCH  10  11
HETATM   11  N1  UNL     1      26.685  -1.375  53.668  1.00  0.00     0.078 N 
HETATM   12  H1  UNL     1      26.267  -2.090  53.030  1.00  0.00     0.312 HD
HETATM   13  H2  UNL     1      25.993  -0.948  54.287  1.00  0.00     0.312 HD
ENDBRANCH  10  11
ENDBRANCH   9  10
ENDBRANCH   7   9
ENDBRANCH   2   3
ENDBRANCH   1   2
BRANCH   1  14
HETATM   14  C10 UNL     1      27.378   5.357  48.713  1.00  0.00     0.007 C 
BRANCH  14  15
HETATM   15  C11 UNL     1      26.166   6.291  48.786  1.00  0.00     0.069 C 
BRANCH  15  16
HETATM   16  C12 UNL     1      26.383   7.479  49.614  1.00  0.00     0.077 C 
HETATM   17  S1  UNL     1      27.200   8.919  49.591  1.00  0.00    -0.065 SA
BRANCH  16  18
HETATM   18  N2  UNL     1      25.624   7.298  50.844  1.00  0.00    -0.351 N 
HETATM   19  H19 UNL     1      25.890   7.272  51.839  1.00  0.00     0.166 HD
BRANCH  18  20
HETATM   20  C13 UNL     1      24.208   7.108  50.879  1.00  0.00     0.032 A 
HETATM   21  C14 UNL     1      23.302   7.980  50.321  1.00  0.00     0.029 A 
HETATM   22  C15 UNL     1      21.947   7.751  50.363  1.00  0.00     0.002 A 
HETATM   23  C16 UNL     1      21.530   6.576  51.003  1.00  0.00     0.000 A 
HETATM   24  C17 UNL     1      22.421   5.688  51.567  1.00  0.00     0.002 A 
HETATM   25  C18 UNL     1      23.796   5.953  51.508  1.00  0.00     0.029 A 
ENDBRANCH  18  20
ENDBRANCH  16  18
ENDBRANCH  15  16
ENDBRANCH  14  15
ENDBRANCH   1  14
TORSDOF 10
ENDMDL
MODEL 8
REMARK VINA RESULT:      -6.0      1.745      3.988
REMARK  10 active torsions:
REMARK  status: ('A' for Active; 'I' for Inactive)
REMARK    1  A    between atoms: N1_1  and  C1_2 
REMARK    2  A    between atoms: C1_2  and  C2_3 
REMARK    3  A    between atoms: C2_3  and  C3_4 
REMARK    4  A    between atoms: C7_8  and  C8_9 
REMARK    5  A    between atoms: C8_9  and  C9_10 
REMARK    6  A    between atoms: C9_10  and  C10_11 
REMARK    7  A    between atoms: C10_11  and  C11_12 
REMARK    8  A    between atoms: C11_12  and  C12_13 
REMARK    9  A    between atoms: C12_13  and  N2_15 
REMARK   10  A    between atoms: N2_15  and  C13_16 
ROOT
HETATM    1  C9  UNL     1      24.891   1.925  53.207  1.00  0.00     0.005 C 
ENDROOT
BRANCH   1   2
HETATM    2  C8  UNL     1      24.860   0.506  53.614  1.00  0.00     0.034 C 
BRANCH   2   3
HETATM    3  C7  UNL     1      26.027  -0.322  53.412  1.00  0.00    -0.079 C 
HETATM    4  C6  UNL     1      26.245  -1.363  52.652  1.00  0.00     0.002 C 
HETATM    5  C5  UNL     1      27.435  -2.151  52.478  1.00  0.00    -0.003 C 
HETATM    6  C4  UNL     1      28.414  -1.638  53.246  1.00  0.00    -0.022 C 
HETATM    7  C3  UNL     1      28.445  -0.479  54.157  1.00  0.00     0.013 C 
HETATM    8  C19 UNL     1      27.091   0.059  54.370  1.00  0.00     0.042 C 
BRANCH   7   9
HETATM    9  C2  UNL     1      29.358   0.533  53.454  1.00  0.00     0.038 C 
BRANCH   9  10
HETATM   10  C1  UNL     1      29.054   1.949  53.789  1.00  0.00     0.267 C 
BRANCH  10  11
HETATM   11  N1  UNL     1      29.901   2.358  54.911  1.00  0.00     0.078 N 
HETATM   12  H1  UNL     1      30.354   1.517  55.335  1.00  0.00     0.312 HD
HETATM   13  H2  UNL     1      29.434   2.944  55.606  1.00  0.00     0.312 HD
ENDBRANCH  10  11
ENDBRANCH   9  10
ENDBRANCH   7   9
ENDBRANCH   2   3
ENDBRANCH   1   2
BRANCH   1  14
HETATM   14  C10 UNL     1      25.603   2.297  51.965  1.00  0.00     0.007 C 
BRANCH  14  15
HETATM   15  C11 UNL     1      24.555   2.599  50.889  1.00  0.00     0.069 C 
BRANCH  15  16
HETATM   16  C12 UNL     1      24.238   4.022  50.754  1.00  0.00     0.077 C 
HETATM   17  S1  UNL     1      23.686   5.298  51.653  1.00  0.00    -0.065 SA
BRANCH  16  18
HETATM   18  N2  UNL     1      24.500   4.398  49.371  1.00  0.00    -0.351 N 
HETATM   19  H19 UNL     1      23.982   4.254  48.491  1.00  0.00     0.166 HD
BRANCH  18  20
HETATM   20  C13 UNL     1      25.659   5.123  48.955  1.00  0.00     0.032 A 
HETATM   21  C14 UNL     1      25.637   6.435  48.542  1.00  0.00     0.029 A 
HETATM   22  C15 UNL     1      26.779   7.101  48.165  1.00  0.00     0.002 A 
HETATM   23  C16 UNL     1      27.976   6.374  48.225  1.00  0.00     0.000 A 
HETATM   24  C17 UNL     1      28.020   5.059  48.637  1.00  0.00     0.002 A 
HETATM   25  C18 UNL     1      26.836   4.410  49.013  1.00  0.00     0.029 A 
ENDBRANCH  18  20
ENDBRANCH  16  18
ENDBRANCH  15  16
ENDBRANCH  14  15
ENDBRANCH   1  14
TORSDOF 10
ENDMDL
MODEL 9
REMARK VINA RESULT:      -5.8      3.011      4.351
REMARK  10 active torsions:
REMARK  status: ('A' for Active; 'I' for Inactive)
REMARK    1  A    between atoms: N1_1  and  C1_2 
REMARK    2  A    between atoms: C1_2  and  C2_3 
REMARK    3  A    between atoms: C2_3  and  C3_4 
REMARK    4  A    between atoms: C7_8  and  C8_9 
REMARK    5  A    between atoms: C8_9  and  C9_10 
REMARK    6  A    between atoms: C9_10  and  C10_11 
REMARK    7  A    between atoms: C10_11  and  C11_12 
REMARK    8  A    between atoms: C11_12  and  C12_13 
REMARK    9  A    between atoms: C12_13  and  N2_15 
REMARK   10  A    between atoms: N2_15  and  C13_16 
ROOT
HETATM    1  C9  UNL     1      26.477   3.251  49.465  1.00  0.00     0.005 C 
ENDROOT
BRANCH   1   2
HETATM    2  C8  UNL     1      26.063   2.987  50.859  1.00  0.00     0.034 C 
BRANCH   2   3
HETATM    3  C7  UNL     1      24.744   2.460  51.126  1.00  0.00    -0.079 C 
HETATM    4  C6  UNL     1      23.697   2.283  50.364  1.00  0.00     0.002 C 
HETATM    5  C5  UNL     1      22.403   1.742  50.677  1.00  0.00    -0.003 C 
HETATM    6  C4  UNL     1      22.385   1.376  51.973  1.00  0.00    -0.022 C 
HETATM    7  C3  UNL     1      23.414   1.438  53.028  1.00  0.00     0.013 C 
HETATM    8  C19 UNL     1      24.580   2.217  52.579  1.00  0.00     0.042 C 
BRANCH   7   9
HETATM    9  C2  UNL     1      23.774  -0.029  53.293  1.00  0.00     0.038 C 
BRANCH   9  10
HETATM   10  C1  UNL     1      22.598  -0.896  53.562  1.00  0.00     0.267 C 
BRANCH  10  11
HETATM   11  N1  UNL     1      22.565  -1.215  54.991  1.00  0.00     0.078 N 
HETATM   12  H1  UNL     1      21.690  -0.832  55.416  1.00  0.00     0.312 HD
HETATM   13  H2  UNL     1      23.405  -0.942  55.507  1.00  0.00     0.312 HD
ENDBRANCH  10  11
ENDBRANCH   9  10
ENDBRANCH   7   9
ENDBRANCH   2   3
ENDBRANCH   1   2
BRANCH   1  14
HETATM   14  C10 UNL     1      27.128   4.539  49.144  1.00  0.00     0.007 C 
BRANCH  14  15
HETATM   15  C11 UNL     1      26.030   5.585  48.929  1.00  0.00     0.069 C 
BRANCH  15  16
HETATM   16  C12 UNL     1      26.341   6.897  49.500  1.00  0.00     0.077 C 
HETATM   17  S1  UNL     1      27.237   8.251  49.176  1.00  0.00    -0.065 SA
BRANCH  16  18
HETATM   18  N2  UNL     1      25.614   7.008  50.759  1.00  0.00    -0.351 N 
HETATM   19  H19 UNL     1      25.903   7.235  51.722  1.00  0.00     0.166 HD
BRANCH  18  20
HETATM   20  C13 UNL     1      24.206   6.801  50.879  1.00  0.00     0.032 A 
HETATM   21  C14 UNL     1      23.639   5.736  51.539  1.00  0.00     0.029 A 
HETATM   22  C15 UNL     1      22.277   5.583  51.645  1.00  0.00     0.002 A 
HETATM   23  C16 UNL     1      21.487   6.574  51.046  1.00  0.00     0.000 A 
HETATM   24  C17 UNL     1      22.035   7.650  50.379  1.00  0.00     0.002 A 
HETATM   25  C18 UNL     1      23.428   7.774  50.289  1.00  0.00     0.029 A 
ENDBRANCH  18  20
ENDBRANCH  16  18
ENDBRANCH  15  16
ENDBRANCH  14  15
ENDBRANCH   1  14
TORSDOF 10
ENDMDL
