MODEL 1
REMARK VINA RESULT:      -7.5      0.000      0.000
REMARK  7 active torsions:
REMARK  status: ('A' for Active; 'I' for Inactive)
REMARK    1  A    between atoms: C2_2  and  C3_4 
REMARK    2  A    between atoms: C4_5  and  C5_6 
REMARK    3  A    between atoms: C5_6  and  N1_7 
REMARK    4  A    between atoms: N1_7  and  C6_8 
REMARK    5  A    between atoms: C7_10  and  N3_11 
REMARK    6  A    between atoms: N5_17  and  C12_18 
REMARK    7  A    between atoms: C12_18  and  C13_19 
ROOT
HETATM    1  C6  UNL     1      21.732   1.631  51.917  1.00  0.00     0.232 A 
HETATM    2  N2  UNL     1      20.815   1.059  52.735  1.00  0.00    -0.031 NA
HETATM    3  C7  UNL     1      21.194   0.205  53.705  1.00  0.00     0.725 A 
HETATM    4  N4  UNL     1      22.484  -0.118  53.906  1.00  0.00    -0.044 NA
HETATM    5  C8  UNL     1      23.437   0.409  53.136  1.00  0.00     0.164 A 
HETATM    6  C9  UNL     1      23.071   1.289  52.133  1.00  0.00     0.073 A 
HETATM    7  C10 UNL     1      24.198   1.690  51.489  1.00  0.00     0.038 A 
HETATM    8  C11 UNL     1      25.242   1.046  52.113  1.00  0.00     0.094 A 
HETATM    9  N5  UNL     1      24.794   0.268  53.110  1.00  0.00    -0.336 N 
ENDROOT
BRANCH   9  10
HETATM   10  C12 UNL     1      25.452  -0.605  54.074  1.00  0.00     0.169 C 
BRANCH  10  11
HETATM   11  C13 UNL     1      26.933  -0.532  53.924  1.00  0.00    -0.034 A 
HETATM   12  C14 UNL     1      27.542   0.479  54.668  1.00  0.00     0.009 A 
HETATM   13  C15 UNL     1      28.911   0.695  54.631  1.00  0.00     0.001 A 
HETATM   14  C16 UNL     1      29.734  -0.103  53.842  1.00  0.00     0.001 A 
HETATM   15  C17 UNL     1      29.115  -1.113  53.101  1.00  0.00     0.007 A 
HETATM   16  C18 UNL     1      27.758  -1.309  53.150  1.00  0.00    -0.054 A 
HETATM   17  C19 UNL     1      27.090  -2.385  52.373  1.00  0.00     0.049 C 
ENDBRANCH  10  11
ENDBRANCH   9  10
BRANCH   3  18
HETATM   18  N3  UNL     1      20.181  -0.378  54.550  1.00  0.00    -0.231 N 
HETATM   19  H6  UNL     1      20.400  -1.409  54.642  1.00  0.00     0.174 HD
HETATM   20  H7  UNL     1      19.494   0.364  54.853  1.00  0.00     0.174 HD
ENDBRANCH   3  18
BRANCH   1  21
HETATM   21  N1  UNL     1      21.389   2.461  50.989  1.00  0.00    -0.396 NA
BRANCH  21  22
HETATM   22  C5  UNL     1      21.086   3.375  50.293  1.00  0.00     0.184 C 
BRANCH  22  23
HETATM   23  C4  UNL     1      21.100   4.796  50.733  1.00  0.00     0.029 C 
HETATM   24  C3  UNL     1      22.120   5.535  51.241  1.00  0.00    -0.008 C 
BRANCH  24  25
HETATM   25  C2  UNL     1      23.666   5.234  51.577  1.00  0.00     0.022 C 
HETATM   26  C1  UNL     1      23.340   5.043  52.726  1.00  0.00     0.079 C 
HETATM   27 BR1  UNL     1      24.327   5.511  49.778  1.00  0.00    -0.086 Br
ENDBRANCH  24  25
ENDBRANCH  22  23
ENDBRANCH  21  22
ENDBRANCH   1  21
TORSDOF 7
ENDMDL
MODEL 2
REMARK VINA RESULT:      -7.5      1.593      2.331
REMARK  7 active torsions:
REMARK  status: ('A' for Active; 'I' for Inactive)
REMARK    1  A    between atoms: C2_2  and  C3_4 
REMARK    2  A    between atoms: C4_5  and  C5_6 
REMARK    3  A    between atoms: C5_6  and  N1_7 
REMARK    4  A    between atoms: N1_7  and  C6_8 
REMARK    5  A    between atoms: C7_10  and  N3_11 
REMARK    6  A    between atoms: N5_17  and  C12_18 
REMARK    7  A    between atoms: C12_18  and  C13_19 
ROOT
HETATM    1  C6  UNL     1      23.190   2.460  50.654  1.00  0.00     0.232 A 
HETATM    2  N2  UNL     1      22.137   1.974  51.355  1.00  0.00    -0.031 NA
HETATM    3  C7  UNL     1      22.325   1.336  52.526  1.00  0.00     0.725 A 
HETATM    4  N4  UNL     1      23.550   1.152  53.049  1.00  0.00    -0.044 NA
HETATM    5  C8  UNL     1      24.629   1.605  52.410  1.00  0.00     0.164 A 
HETATM    6  C9  UNL     1      24.461   2.263  51.205  1.00  0.00     0.073 A 
HETATM    7  C10 UNL     1      25.687   2.629  50.747  1.00  0.00     0.038 A 
HETATM    8  C11 UNL     1      26.591   2.185  51.685  1.00  0.00     0.094 A 
HETATM    9  N5  UNL     1      25.963   1.565  52.695  1.00  0.00    -0.336 N 
ENDROOT
BRANCH   9  10
HETATM   10  C12 UNL     1      26.424   0.927  53.922  1.00  0.00     0.169 C 
BRANCH  10  11
HETATM   11  C13 UNL     1      27.380  -0.174  53.615  1.00  0.00    -0.034 A 
HETATM   12  C14 UNL     1      26.792  -1.320  53.078  1.00  0.00     0.009 A 
HETATM   13  C15 UNL     1      27.536  -2.443  52.749  1.00  0.00     0.001 A 
HETATM   14  C16 UNL     1      28.915  -2.462  52.944  1.00  0.00     0.001 A 
HETATM   15  C17 UNL     1      29.494  -1.310  53.482  1.00  0.00     0.007 A 
HETATM   16  C18 UNL     1      28.739  -0.210  53.803  1.00  0.00    -0.054 A 
HETATM   17  C19 UNL     1      29.345   1.023  54.367  1.00  0.00     0.049 C 
ENDBRANCH  10  11
ENDBRANCH   9  10
BRANCH   3  18
HETATM   18  N3  UNL     1      21.172   0.836  53.235  1.00  0.00    -0.231 N 
HETATM   19  H6  UNL     1      21.526   0.275  54.060  1.00  0.00     0.174 HD
HETATM   20  H7  UNL     1      20.288   1.155  52.755  1.00  0.00     0.174 HD
ENDBRANCH   3  18
BRANCH   1  21
HETATM   21  N1  UNL     1      23.030   3.085  49.535  1.00  0.00    -0.396 NA
BRANCH  21  22
HETATM   22  C5  UNL     1      23.089   3.725  48.535  1.00  0.00     0.184 C 
BRANCH  22  23
HETATM   23  C4  UNL     1      22.971   5.206  48.488  1.00  0.00     0.029 C 
HETATM   24  C3  UNL     1      23.686   6.154  49.150  1.00  0.00    -0.008 C 
BRANCH  24  25
HETATM   25  C2  UNL     1      24.897   6.111  50.210  1.00  0.00     0.022 C 
HETATM   26  C1  UNL     1      24.081   6.254  51.091  1.00  0.00     0.079 C 
HETATM   27 BR1  UNL     1      26.308   5.877  48.904  1.00  0.00    -0.086 Br
ENDBRANCH  24  25
ENDBRANCH  22  23
ENDBRANCH  21  22
ENDBRANCH   1  21
TORSDOF 7
ENDMDL
MODEL 3
REMARK VINA RESULT:      -7.2      2.879      6.759
REMARK  7 active torsions:
REMARK  status: ('A' for Active; 'I' for Inactive)
REMARK    1  A    between atoms: C2_2  and  C3_4 
REMARK    2  A    between atoms: C4_5  and  C5_6 
REMARK    3  A    between atoms: C5_6  and  N1_7 
REMARK    4  A    between atoms: N1_7  and  C6_8 
REMARK    5  A    between atoms: C7_10  and  N3_11 
REMARK    6  A    between atoms: N5_17  and  C12_18 
REMARK    7  A    between atoms: C12_18  and  C13_19 
ROOT
HETATM    1  C6  UNL     1      24.558   1.112  52.455  1.00  0.00     0.232 A 
HETATM    2  N2  UNL     1      23.234   1.272  52.697  1.00  0.00    -0.031 NA
HETATM    3  C7  UNL     1      22.527   2.222  52.056  1.00  0.00     0.725 A 
HETATM    4  N4  UNL     1      23.092   3.048  51.158  1.00  0.00    -0.044 NA
HETATM    5  C8  UNL     1      24.392   2.945  50.875  1.00  0.00     0.164 A 
HETATM    6  C9  UNL     1      25.138   1.976  51.520  1.00  0.00     0.073 A 
HETATM    7  C10 UNL     1      26.419   2.061  51.074  1.00  0.00     0.038 A 
HETATM    8  C11 UNL     1      26.435   3.087  50.157  1.00  0.00     0.094 A 
HETATM    9  N5  UNL     1      25.214   3.629  50.028  1.00  0.00    -0.336 N 
ENDROOT
BRANCH   9  10
HETATM   10  C12 UNL     1      24.679   4.711  49.211  1.00  0.00     0.169 C 
BRANCH  10  11
HETATM   11  C13 UNL     1      25.516   5.936  49.349  1.00  0.00    -0.034 A 
HETATM   12  C14 UNL     1      26.602   5.998  48.476  1.00  0.00     0.009 A 
HETATM   13  C15 UNL     1      27.491   7.063  48.482  1.00  0.00     0.001 A 
HETATM   14  C16 UNL     1      27.324   8.121  49.371  1.00  0.00     0.001 A 
HETATM   15  C17 UNL     1      26.233   8.050  50.242  1.00  0.00     0.007 A 
HETATM   16  C18 UNL     1      25.366   6.986  50.220  1.00  0.00    -0.054 A 
HETATM   17  C19 UNL     1      24.199   6.905  51.136  1.00  0.00     0.049 C 
ENDBRANCH  10  11
ENDBRANCH   9  10
BRANCH   3  18
HETATM   18  N3  UNL     1      21.120   2.354  52.347  1.00  0.00    -0.231 N 
HETATM   19  H6  UNL     1      21.021   2.458  53.396  1.00  0.00     0.174 HD
HETATM   20  H7  UNL     1      20.562   2.313  51.452  1.00  0.00     0.174 HD
ENDBRANCH   3  18
BRANCH   1  21
HETATM   21  N1  UNL     1      25.251   0.199  53.051  1.00  0.00    -0.396 NA
BRANCH  21  22
HETATM   22  C5  UNL     1      25.779  -0.579  53.778  1.00  0.00     0.184 C 
BRANCH  22  23
HETATM   23  C4  UNL     1      26.643  -0.191  54.924  1.00  0.00     0.029 C 
HETATM   24  C3  UNL     1      27.937   0.223  54.931  1.00  0.00    -0.008 C 
BRANCH  24  25
HETATM   25  C2  UNL     1      29.046   0.465  53.789  1.00  0.00     0.022 C 
HETATM   26  C1  UNL     1      29.248  -0.727  53.785  1.00  0.00     0.079 C 
HETATM   27 BR1  UNL     1      28.825   2.387  53.690  1.00  0.00    -0.086 Br
ENDBRANCH  24  25
ENDBRANCH  22  23
ENDBRANCH  21  22
ENDBRANCH   1  21
TORSDOF 7
ENDMDL
MODEL 4
REMARK VINA RESULT:      -7.1      3.854      4.926
REMARK  7 active torsions:
REMARK  status: ('A' for Active; 'I' for Inactive)
REMARK    1  A    between atoms: C2_2  and  C3_4 
REMARK    2  A    between atoms: C4_5  and  C5_6 
REMARK    3  A    between atoms: C5_6  and  N1_7 
REMARK    4  A    between atoms: N1_7  and  C6_8 
REMARK    5  A    between atoms: C7_10  and  N3_11 
REMARK    6  A    between atoms: N5_17  and  C12_18 
REMARK    7  A    between atoms: C12_18  and  C13_19 
ROOT
HETATM    1  C6  UNL     1      24.938   5.925  50.032  1.00  0.00     0.232 A 
HETATM    2  N2  UNL     1      23.920   6.152  50.897  1.00  0.00    -0.031 NA
HETATM    3  C7  UNL     1      23.529   5.199  51.765  1.00  0.00     0.725 A 
HETATM    4  N4  UNL     1      24.121   3.992  51.813  1.00  0.00    -0.044 NA
HETATM    5  C8  UNL     1      25.128   3.704  50.987  1.00  0.00     0.164 A 
HETATM    6  C9  UNL     1      25.548   4.668  50.088  1.00  0.00     0.073 A 
HETATM    7  C10 UNL     1      26.575   4.152  49.362  1.00  0.00     0.038 A 
HETATM    8  C11 UNL     1      26.768   2.873  49.833  1.00  0.00     0.094 A 
HETATM    9  N5  UNL     1      25.899   2.591  50.816  1.00  0.00    -0.336 N 
ENDROOT
BRANCH   9  10
HETATM   10  C12 UNL     1      25.673   1.415  51.647  1.00  0.00     0.169 C 
BRANCH  10  11
HETATM   11  C13 UNL     1      26.879   1.111  52.467  1.00  0.00    -0.034 A 
HETATM   12  C14 UNL     1      27.551   2.235  52.950  1.00  0.00     0.009 A 
HETATM   13  C15 UNL     1      28.701   2.130  53.717  1.00  0.00     0.001 A 
HETATM   14  C16 UNL     1      29.230   0.882  54.036  1.00  0.00     0.001 A 
HETATM   15  C17 UNL     1      28.551  -0.237  53.548  1.00  0.00     0.007 A 
HETATM   16  C18 UNL     1      27.414  -0.111  52.789  1.00  0.00    -0.054 A 
HETATM   17  C19 UNL     1      26.679  -1.294  52.272  1.00  0.00     0.049 C 
ENDBRANCH  10  11
ENDBRANCH   9  10
BRANCH   3  18
HETATM   18  N3  UNL     1      22.441   5.486  52.667  1.00  0.00    -0.231 N 
HETATM   19  H6  UNL     1      21.551   5.140  52.211  1.00  0.00     0.174 HD
HETATM   20  H7  UNL     1      22.809   5.961  53.535  1.00  0.00     0.174 HD
ENDBRANCH   3  18
BRANCH   1  21
HETATM   21  N1  UNL     1      25.336   6.831  49.201  1.00  0.00    -0.396 NA
BRANCH  21  22
HETATM   22  C5  UNL     1      25.806   7.749  48.609  1.00  0.00     0.184 C 
BRANCH  22  23
HETATM   23  C4  UNL     1      26.662   7.610  47.402  1.00  0.00     0.029 C 
HETATM   24  C3  UNL     1      28.004   7.419  47.309  1.00  0.00    -0.008 C 
BRANCH  24  25
HETATM   25  C2  UNL     1      29.194   7.269  48.384  1.00  0.00     0.022 C 
HETATM   26  C1  UNL     1      29.232   6.089  48.120  1.00  0.00     0.079 C 
HETATM   27 BR1  UNL     1      29.244   9.135  48.902  1.00  0.00    -0.086 Br
ENDBRANCH  24  25
ENDBRANCH  22  23
ENDBRANCH  21  22
ENDBRANCH   1  21
TORSDOF 7
ENDMDL
MODEL 5
REMARK VINA RESULT:      -7.1      2.234      3.748
REMARK  7 active torsions:
REMARK  status: ('A' for Active; 'I' for Inactive)
REMARK    1  A    between atoms: C2_2  and  C3_4 
REMARK    2  A    between atoms: C4_5  and  C5_6 
REMARK    3  A    between atoms: C5_6  and  N1_7 
REMARK    4  A    between atoms: N1_7  and  C6_8 
REMARK    5  A    between atoms: C7_10  and  N3_11 
REMARK    6  A    between atoms: N5_17  and  C12_18 
REMARK    7  A    between atoms: C12_18  and  C13_19 
ROOT
HETATM    1  C6  UNL     1      23.906   2.755  49.949  1.00  0.00     0.232 A 
HETATM    2  N2  UNL     1      24.938   3.469  49.438  1.00  0.00    -0.031 NA
HETATM    3  C7  UNL     1      26.123   3.520  50.077  1.00  0.00     0.725 A 
HETATM    4  N4  UNL     1      26.336   2.875  51.238  1.00  0.00    -0.044 NA
HETATM    5  C8  UNL     1      25.361   2.155  51.795  1.00  0.00     0.164 A 
HETATM    6  C9  UNL     1      24.136   2.087  51.157  1.00  0.00     0.073 A 
HETATM    7  C10 UNL     1      23.312   1.306  51.903  1.00  0.00     0.038 A 
HETATM    8  C11 UNL     1      24.052   0.905  52.993  1.00  0.00     0.094 A 
HETATM    9  N5  UNL     1      25.293   1.412  52.938  1.00  0.00    -0.336 N 
ENDROOT
BRANCH   9  10
HETATM   10  C12 UNL     1      26.459   1.306  53.806  1.00  0.00     0.169 C 
BRANCH  10  11
HETATM   11  C13 UNL     1      27.239   0.076  53.490  1.00  0.00    -0.034 A 
HETATM   12  C14 UNL     1      26.488  -0.960  52.933  1.00  0.00     0.009 A 
HETATM   13  C15 UNL     1      27.055  -2.179  52.594  1.00  0.00     0.001 A 
HETATM   14  C16 UNL     1      28.412  -2.411  52.799  1.00  0.00     0.001 A 
HETATM   15  C17 UNL     1      29.156  -1.368  53.356  1.00  0.00     0.007 A 
HETATM   16  C18 UNL     1      28.575  -0.169  53.686  1.00  0.00    -0.054 A 
HETATM   17  C19 UNL     1      29.357   0.949  54.272  1.00  0.00     0.049 C 
ENDBRANCH  10  11
ENDBRANCH   9  10
BRANCH   3  18
HETATM   18  N3  UNL     1      27.192   4.293  49.494  1.00  0.00    -0.231 N 
HETATM   19  H6  UNL     1      27.880   3.612  49.066  1.00  0.00     0.174 HD
HETATM   20  H7  UNL     1      27.014   5.323  49.642  1.00  0.00     0.174 HD
ENDBRANCH   3  18
BRANCH   1  21
HETATM   21  N1  UNL     1      22.766   2.683  49.345  1.00  0.00    -0.396 NA
BRANCH  21  22
HETATM   22  C5  UNL     1      21.724   2.406  48.846  1.00  0.00     0.184 C 
BRANCH  22  23
HETATM   23  C4  UNL     1      20.459   3.146  49.096  1.00  0.00     0.029 C 
HETATM   24  C3  UNL     1      20.031   3.774  50.223  1.00  0.00    -0.008 C 
BRANCH  24  25
HETATM   25  C2  UNL     1      20.650   3.989  51.694  1.00  0.00     0.022 C 
HETATM   26  C1  UNL     1      20.037   3.010  52.053  1.00  0.00     0.079 C 
HETATM   27 BR1  UNL     1      21.685   5.566  51.255  1.00  0.00    -0.086 Br
ENDBRANCH  24  25
ENDBRANCH  22  23
ENDBRANCH  21  22
ENDBRANCH   1  21
TORSDOF 7
ENDMDL
MODEL 6
REMARK VINA RESULT:      -6.9      2.057      6.737
REMARK  7 active torsions:
REMARK  status: ('A' for Active; 'I' for Inactive)
REMARK    1  A    between atoms: C2_2  and  C3_4 
REMARK    2  A    between atoms: C4_5  and  C5_6 
REMARK    3  A    between atoms: C5_6  and  N1_7 
REMARK    4  A    between atoms: N1_7  and  C6_8 
REMARK    5  A    between atoms: C7_10  and  N3_11 
REMARK    6  A    between atoms: N5_17  and  C12_18 
REMARK    7  A    between atoms: C12_18  and  C13_19 
ROOT
HETATM    1  C6  UNL     1      23.564   0.103  53.526  1.00  0.00     0.232 A 
HETATM    2  N2  UNL     1      22.396  -0.392  54.002  1.00  0.00    -0.031 NA
HETATM    3  C7  UNL     1      21.216   0.104  53.583  1.00  0.00     0.725 A 
HETATM    4  N4  UNL     1      21.140   1.102  52.686  1.00  0.00    -0.044 NA
HETATM    5  C8  UNL     1      22.253   1.635  52.178  1.00  0.00     0.164 A 
HETATM    6  C9  UNL     1      23.476   1.142  52.593  1.00  0.00     0.073 A 
HETATM    7  C10 UNL     1      24.453   1.832  51.947  1.00  0.00     0.038 A 
HETATM    8  C11 UNL     1      23.806   2.742  51.142  1.00  0.00     0.094 A 
HETATM    9  N5  UNL     1      22.475   2.632  51.273  1.00  0.00    -0.336 N 
ENDROOT
BRANCH   9  10
HETATM   10  C12 UNL     1      21.347   3.327  50.666  1.00  0.00     0.169 C 
BRANCH  10  11
HETATM   11  C13 UNL     1      21.614   3.605  49.226  1.00  0.00    -0.034 A 
HETATM   12  C14 UNL     1      21.826   4.950  48.925  1.00  0.00     0.009 A 
HETATM   13  C15 UNL     1      22.073   5.383  47.631  1.00  0.00     0.001 A 
HETATM   14  C16 UNL     1      22.120   4.476  46.576  1.00  0.00     0.001 A 
HETATM   15  C17 UNL     1      21.906   3.131  46.888  1.00  0.00     0.007 A 
HETATM   16  C18 UNL     1      21.662   2.723  48.176  1.00  0.00    -0.054 A 
HETATM   17  C19 UNL     1      21.442   1.295  48.520  1.00  0.00     0.049 C 
ENDBRANCH  10  11
ENDBRANCH   9  10
BRANCH   3  18
HETATM   18  N3  UNL     1      19.999  -0.457  54.119  1.00  0.00    -0.231 N 
HETATM   19  H6  UNL     1      20.154  -0.621  55.153  1.00  0.00     0.174 HD
HETATM   20  H7  UNL     1      19.280  -0.556  53.352  1.00  0.00     0.174 HD
ENDBRANCH   3  18
BRANCH   1  21
HETATM   21  N1  UNL     1      24.706  -0.367  53.907  1.00  0.00    -0.396 NA
BRANCH  21  22
HETATM   22  C5  UNL     1      25.780  -0.855  54.046  1.00  0.00     0.184 C 
BRANCH  22  23
HETATM   23  C4  UNL     1      26.764  -1.029  52.945  1.00  0.00     0.029 C 
HETATM   24  C3  UNL     1      28.032  -0.555  52.833  1.00  0.00    -0.008 C 
BRANCH  24  25
HETATM   25  C2  UNL     1      28.981   0.348  53.771  1.00  0.00     0.022 C 
HETATM   26  C1  UNL     1      29.599  -0.655  54.045  1.00  0.00     0.079 C 
HETATM   27 BR1  UNL     1      28.083   2.028  53.419  1.00  0.00    -0.086 Br
ENDBRANCH  24  25
ENDBRANCH  22  23
ENDBRANCH  21  22
ENDBRANCH   1  21
TORSDOF 7
ENDMDL
MODEL 7
REMARK VINA RESULT:      -6.9      5.148      7.907
REMARK  7 active torsions:
REMARK  status: ('A' for Active; 'I' for Inactive)
REMARK    1  A    between atoms: C2_2  and  C3_4 
REMARK    2  A    between atoms: C4_5  and  C5_6 
REMARK    3  A    between atoms: C5_6  and  N1_7 
REMARK    4  A    between atoms: N1_7  and  C6_8 
REMARK    5  A    between atoms: C7_10  and  N3_11 
REMARK    6  A    between atoms: N5_17  and  C12_18 
REMARK    7  A    between atoms: C12_18  and  C13_19 
ROOT
HETATM    1  C6  UNL     1      24.784   4.171  50.899  1.00  0.00     0.232 A 
HETATM    2  N2  UNL     1      23.811   5.049  51.242  1.00  0.00    -0.031 NA
HETATM    3  C7  UNL     1      23.785   6.288  50.715  1.00  0.00     0.725 A 
HETATM    4  N4  UNL     1      24.711   6.709  49.835  1.00  0.00    -0.044 NA
HETATM    5  C8  UNL     1      25.696   5.894  49.455  1.00  0.00     0.164 A 
HETATM    6  C9  UNL     1      25.743   4.616  49.983  1.00  0.00     0.073 A 
HETATM    7  C10 UNL     1      26.821   3.979  49.454  1.00  0.00     0.038 A 
HETATM    8  C11 UNL     1      27.419   4.883  48.606  1.00  0.00     0.094 A 
HETATM    9  N5  UNL     1      26.747   6.045  48.598  1.00  0.00    -0.336 N 
ENDROOT
BRANCH   9  10
HETATM   10  C12 UNL     1      26.934   7.306  47.893  1.00  0.00     0.169 C 
BRANCH  10  11
HETATM   11  C13 UNL     1      28.278   7.879  48.188  1.00  0.00    -0.034 A 
HETATM   12  C14 UNL     1      29.296   7.434  47.344  1.00  0.00     0.009 A 
HETATM   13  C15 UNL     1      30.609   7.856  47.489  1.00  0.00     0.001 A 
HETATM   14  C16 UNL     1      30.958   8.752  48.496  1.00  0.00     0.001 A 
HETATM   15  C17 UNL     1      29.932   9.192  49.336  1.00  0.00     0.007 A 
HETATM   16  C18 UNL     1      28.639   8.760  49.176  1.00  0.00    -0.054 A 
HETATM   17  C19 UNL     1      27.540   9.227  50.058  1.00  0.00     0.049 C 
ENDBRANCH  10  11
ENDBRANCH   9  10
BRANCH   3  18
HETATM   18  N3  UNL     1      22.729   7.188  51.112  1.00  0.00    -0.231 N 
HETATM   19  H6  UNL     1      21.884   6.970  50.514  1.00  0.00     0.174 HD
HETATM   20  H7  UNL     1      23.068   7.821  51.886  1.00  0.00     0.174 HD
ENDBRANCH   3  18
BRANCH   1  21
HETATM   21  N1  UNL     1      24.820   2.974  51.384  1.00  0.00    -0.396 NA
BRANCH  21  22
HETATM   22  C5  UNL     1      24.946   1.968  52.004  1.00  0.00     0.184 C 
BRANCH  22  23
HETATM   23  C4  UNL     1      25.380   1.916  53.425  1.00  0.00     0.029 C 
HETATM   24  C3  UNL     1      26.598   1.617  53.948  1.00  0.00    -0.008 C 
BRANCH  24  25
HETATM   25  C2  UNL     1      28.023   1.211  53.317  1.00  0.00     0.022 C 
HETATM   26  C1  UNL     1      28.376   2.357  53.475  1.00  0.00     0.079 C 
HETATM   27 BR1  UNL     1      27.591  -0.651  53.008  1.00  0.00    -0.086 Br
ENDBRANCH  24  25
ENDBRANCH  22  23
ENDBRANCH  21  22
ENDBRANCH   1  21
TORSDOF 7
ENDMDL
MODEL 8
REMARK VINA RESULT:      -6.7      3.189      8.010
REMARK  7 active torsions:
REMARK  status: ('A' for Active; 'I' for Inactive)
REMARK    1  A    between atoms: C2_2  and  C3_4 
REMARK    2  A    between atoms: C4_5  and  C5_6 
REMARK    3  A    between atoms: C5_6  and  N1_7 
REMARK    4  A    between atoms: N1_7  and  C6_8 
REMARK    5  A    between atoms: C7_10  and  N3_11 
REMARK    6  A    between atoms: N5_17  and  C12_18 
REMARK    7  A    between atoms: C12_18  and  C13_19 
ROOT
HETATM    1  C6  UNL     1      25.810   2.013  51.150  1.00  0.00     0.232 A 
HETATM    2  N2  UNL     1      26.752   2.749  50.511  1.00  0.00    -0.031 NA
HETATM    3  C7  UNL     1      26.417   3.878  49.859  1.00  0.00     0.725 A 
HETATM    4  N4  UNL     1      25.150   4.325  49.809  1.00  0.00    -0.044 NA
HETATM    5  C8  UNL     1      24.174   3.647  50.416  1.00  0.00     0.164 A 
HETATM    6  C9  UNL     1      24.494   2.484  51.092  1.00  0.00     0.073 A 
HETATM    7  C10 UNL     1      23.351   1.976  51.624  1.00  0.00     0.038 A 
HETATM    8  C11 UNL     1      22.345   2.842  51.262  1.00  0.00     0.094 A 
HETATM    9  N5  UNL     1      22.831   3.857  50.531  1.00  0.00    -0.336 N 
ENDROOT
BRANCH   9  10
HETATM   10  C12 UNL     1      22.223   5.027  49.911  1.00  0.00     0.169 C 
BRANCH  10  11
HETATM   11  C13 UNL     1      21.971   4.783  48.462  1.00  0.00    -0.034 A 
HETATM   12  C14 UNL     1      21.113   3.716  48.194  1.00  0.00     0.009 A 
HETATM   13  C15 UNL     1      20.786   3.344  46.899  1.00  0.00     0.001 A 
HETATM   14  C16 UNL     1      21.309   4.034  45.809  1.00  0.00     0.001 A 
HETATM   15  C17 UNL     1      22.167   5.101  46.087  1.00  0.00     0.007 A 
HETATM   16  C18 UNL     1      22.479   5.452  47.377  1.00  0.00    -0.054 A 
HETATM   17  C19 UNL     1      23.384   6.589  47.685  1.00  0.00     0.049 C 
ENDBRANCH  10  11
ENDBRANCH   9  10
BRANCH   3  18
HETATM   18  N3  UNL     1      27.455   4.628  49.193  1.00  0.00    -0.231 N 
HETATM   19  H6  UNL     1      26.983   5.358  48.591  1.00  0.00     0.174 HD
HETATM   20  H7  UNL     1      28.403   4.259  49.476  1.00  0.00     0.174 HD
ENDBRANCH   3  18
BRANCH   1  21
HETATM   21  N1  UNL     1      26.112   0.933  51.791  1.00  0.00    -0.396 NA
BRANCH  21  22
HETATM   22  C5  UNL     1      26.443  -0.139  52.183  1.00  0.00     0.184 C 
BRANCH  22  23
HETATM   23  C4  UNL     1      26.882  -0.416  53.576  1.00  0.00     0.029 C 
HETATM   24  C3  UNL     1      28.074  -0.159  54.176  1.00  0.00    -0.008 C 
BRANCH  24  25
HETATM   25  C2  UNL     1      29.454   0.513  53.691  1.00  0.00     0.022 C 
HETATM   26  C1  UNL     1      29.927  -0.599  53.623  1.00  0.00     0.079 C 
HETATM   27 BR1  UNL     1      28.828   2.344  53.753  1.00  0.00    -0.086 Br
ENDBRANCH  24  25
ENDBRANCH  22  23
ENDBRANCH  21  22
ENDBRANCH   1  21
TORSDOF 7
ENDMDL
MODEL 9
REMARK VINA RESULT:      -6.7      2.476      6.985
REMARK  7 active torsions:
REMARK  status: ('A' for Active; 'I' for Inactive)
REMARK    1  A    between atoms: C2_2  and  C3_4 
REMARK    2  A    between atoms: C4_5  and  C5_6 
REMARK    3  A    between atoms: C5_6  and  N1_7 
REMARK    4  A    between atoms: N1_7  and  C6_8 
REMARK    5  A    between atoms: C7_10  and  N3_11 
REMARK    6  A    between atoms: N5_17  and  C12_18 
REMARK    7  A    between atoms: C12_18  and  C13_19 
ROOT
HETATM    1  C6  UNL     1      23.608   0.602  53.277  1.00  0.00     0.232 A 
HETATM    2  N2  UNL     1      22.438  -0.080  53.254  1.00  0.00    -0.031 NA
HETATM    3  C7  UNL     1      21.315   0.494  52.781  1.00  0.00     0.725 A 
HETATM    4  N4  UNL     1      21.302   1.756  52.314  1.00  0.00    -0.044 NA
HETATM    5  C8  UNL     1      22.420   2.483  52.310  1.00  0.00     0.164 A 
HETATM    6  C9  UNL     1      23.585   1.914  52.791  1.00  0.00     0.073 A 
HETATM    7  C10 UNL     1      24.581   2.833  52.686  1.00  0.00     0.038 A 
HETATM    8  C11 UNL     1      24.004   3.956  52.138  1.00  0.00     0.094 A 
HETATM    9  N5  UNL     1      22.698   3.756  51.906  1.00  0.00    -0.336 N 
ENDROOT
BRANCH   9  10
HETATM   10  C12 UNL     1      21.640   4.588  51.347  1.00  0.00     0.169 C 
BRANCH  10  11
HETATM   11  C13 UNL     1      22.008   5.059  49.982  1.00  0.00    -0.034 A 
HETATM   12  C14 UNL     1      21.856   4.103  48.978  1.00  0.00     0.009 A 
HETATM   13  C15 UNL     1      22.168   4.371  47.653  1.00  0.00     0.001 A 
HETATM   14  C16 UNL     1      22.648   5.623  47.277  1.00  0.00     0.001 A 
HETATM   15  C17 UNL     1      22.797   6.574  48.290  1.00  0.00     0.007 A 
HETATM   16  C18 UNL     1      22.483   6.287  49.595  1.00  0.00    -0.054 A 
HETATM   17  C19 UNL     1      22.630   7.293  50.678  1.00  0.00     0.049 C 
ENDBRANCH  10  11
ENDBRANCH   9  10
BRANCH   3  18
HETATM   18  N3  UNL     1      20.093  -0.272  52.777  1.00  0.00    -0.231 N 
HETATM   19  H6  UNL     1      20.281  -1.171  53.302  1.00  0.00     0.174 HD
HETATM   20  H7  UNL     1      19.339   0.256  52.259  1.00  0.00     0.174 HD
ENDBRANCH   3  18
BRANCH   1  21
HETATM   21  N1  UNL     1      24.698   0.065  53.716  1.00  0.00    -0.396 NA
BRANCH  21  22
HETATM   22  C5  UNL     1      25.771  -0.407  53.914  1.00  0.00     0.184 C 
BRANCH  22  23
HETATM   23  C4  UNL     1      26.713   0.077  54.956  1.00  0.00     0.029 C 
HETATM   24  C3  UNL     1      27.977   0.558  54.825  1.00  0.00    -0.008 C 
BRANCH  24  25
HETATM   25  C2  UNL     1      28.961   0.805  53.575  1.00  0.00     0.022 C 
HETATM   26  C1  UNL     1      28.571   1.949  53.542  1.00  0.00     0.079 C 
HETATM   27 BR1  UNL     1      29.675  -0.994  53.513  1.00  0.00    -0.086 Br
ENDBRANCH  24  25
ENDBRANCH  22  23
ENDBRANCH  21  22
ENDBRANCH   1  21
TORSDOF 7
ENDMDL
