MODEL 1
REMARK VINA RESULT:      -8.7      0.000      0.000
REMARK  7 active torsions:
REMARK  status: ('A' for Active; 'I' for Inactive)
REMARK    1  A    between atoms: C6_6  and  O1_7 
REMARK    2  A    between atoms: C7_8  and  C8_9 
REMARK    3  A    between atoms: C8_9  and  N1_10 
REMARK    4  A    between atoms: N1_10  and  C9_11 
REMARK    5  A    between atoms: N1_10  and  C16_18 
REMARK    6  A    between atoms: C9_11  and  C10_12 
REMARK    7  A    between atoms: C16_18  and  N2_19 
ROOT
HETATM    1  N1  UNL     1      24.422   2.005  51.614  1.00  0.00     0.114 N 
ENDROOT
BRANCH   1   2
HETATM    2  C8  UNL     1      25.679   2.509  52.075  1.00  0.00     0.316 C 
BRANCH   2   3
HETATM    3  C7  UNL     1      26.605   1.537  52.658  1.00  0.00     0.004 A 
HETATM    4  C6  UNL     1      27.691   1.673  53.487  1.00  0.00     0.079 A 
HETATM    5  C4  UNL     1      28.468   0.625  53.880  1.00  0.00    -0.028 A 
HETATM    6  C3  UNL     1      28.194  -0.649  53.454  1.00  0.00     0.016 A 
HETATM    7  C5  UNL     1      29.602   0.939  54.777  1.00  0.00     0.051 C 
HETATM    8  C2  UNL     1      27.116  -0.847  52.622  1.00  0.00    -0.061 A 
HETATM    9  C1  UNL     1      26.881  -2.245  52.198  1.00  0.00     0.048 C 
HETATM   10  C23 UNL     1      26.342   0.229  52.236  1.00  0.00     0.018 A 
BRANCH   4  11
HETATM   11  O1  UNL     1      27.949   2.967  53.912  1.00  0.00    -0.360 OA
HETATM   12  H8  UNL     1      28.383   3.081  54.839  1.00  0.00     0.217 HD
ENDBRANCH   4  11
ENDBRANCH   2   3
ENDBRANCH   1   2
BRANCH   1  13
HETATM   13  C9  UNL     1      24.091   2.475  50.321  1.00  0.00     0.313 C 
BRANCH  13  14
HETATM   14  C10 UNL     1      25.076   3.494  49.818  1.00  0.00    -0.030 A 
HETATM   15  C11 UNL     1      24.600   4.808  49.751  1.00  0.00     0.009 A 
HETATM   16  C12 UNL     1      25.362   5.878  49.317  1.00  0.00     0.001 A 
HETATM   17  C13 UNL     1      26.649   5.585  48.939  1.00  0.00     0.000 A 
HETATM   18  C14 UNL     1      27.161   4.286  48.990  1.00  0.00     0.001 A 
HETATM   19  C15 UNL     1      26.373   3.242  49.431  1.00  0.00     0.009 A 
ENDBRANCH  13  14
ENDBRANCH   1  13
BRANCH   1  20
HETATM   20  C16 UNL     1      23.436   2.431  52.626  1.00  0.00     0.402 C 
BRANCH  20  21
HETATM   21  N2  UNL     1      22.530   1.361  52.902  1.00  0.00    -0.341 N 
HETATM   22  C17 UNL     1      23.105   0.254  53.582  1.00  0.00     0.092 A 
HETATM   23  C18 UNL     1      22.575  -0.843  54.099  1.00  0.00     0.017 A 
HETATM   24  C19 UNL     1      21.138  -1.185  54.078  1.00  0.00     0.001 A 
HETATM   25  C20 UNL     1      20.115  -0.557  53.512  1.00  0.00     0.001 A 
HETATM   26  C21 UNL     1      20.122   0.675  52.733  1.00  0.00     0.017 A 
HETATM   27  C22 UNL     1      21.161   1.457  52.498  1.00  0.00     0.092 A 
ENDBRANCH  20  21
ENDBRANCH   1  20
TORSDOF 7
ENDMDL
MODEL 2
REMARK VINA RESULT:      -8.6      1.781      6.360
REMARK  7 active torsions:
REMARK  status: ('A' for Active; 'I' for Inactive)
REMARK    1  A    between atoms: C6_6  and  O1_7 
REMARK    2  A    between atoms: C7_8  and  C8_9 
REMARK    3  A    between atoms: C8_9  and  N1_10 
REMARK    4  A    between atoms: N1_10  and  C9_11 
REMARK    5  A    between atoms: N1_10  and  C16_18 
REMARK    6  A    between atoms: C9_11  and  C10_12 
REMARK    7  A    between atoms: C16_18  and  N2_19 
ROOT
HETATM    1  N1  UNL     1      25.525   2.020  52.353  1.00  0.00     0.114 N 
ENDROOT
BRANCH   1   2
HETATM    2  C8  UNL     1      25.872   2.888  51.269  1.00  0.00     0.316 C 
BRANCH   2   3
HETATM    3  C7  UNL     1      24.765   3.503  50.537  1.00  0.00     0.004 A 
HETATM    4  C6  UNL     1      24.142   4.721  50.651  1.00  0.00     0.079 A 
HETATM    5  C4  UNL     1      23.071   5.087  49.891  1.00  0.00    -0.028 A 
HETATM    6  C3  UNL     1      22.552   4.234  48.953  1.00  0.00     0.016 A 
HETATM    7  C5  UNL     1      22.515   6.436  50.137  1.00  0.00     0.051 C 
HETATM    8  C2  UNL     1      23.137   2.999  48.793  1.00  0.00    -0.061 A 
HETATM    9  C1  UNL     1      22.525   2.127  47.766  1.00  0.00     0.048 C 
HETATM   10  C23 UNL     1      24.221   2.647  49.572  1.00  0.00     0.018 A 
BRANCH   4  11
HETATM   11  O1  UNL     1      24.683   5.573  51.601  1.00  0.00    -0.360 OA
HETATM   12  H8  UNL     1      24.149   5.708  52.471  1.00  0.00     0.217 HD
ENDBRANCH   4  11
ENDBRANCH   2   3
ENDBRANCH   1   2
BRANCH   1  13
HETATM   13  C9  UNL     1      24.361   2.445  53.036  1.00  0.00     0.313 C 
BRANCH  13  14
HETATM   14  C10 UNL     1      23.249   1.437  52.942  1.00  0.00    -0.030 A 
HETATM   15  C11 UNL     1      22.037   1.926  52.441  1.00  0.00     0.009 A 
HETATM   16  C12 UNL     1      20.905   1.147  52.281  1.00  0.00     0.001 A 
HETATM   17  C13 UNL     1      21.024  -0.170  52.649  1.00  0.00     0.000 A 
HETATM   18  C14 UNL     1      22.216  -0.696  53.155  1.00  0.00     0.001 A 
HETATM   19  C15 UNL     1      23.327   0.110  53.300  1.00  0.00     0.009 A 
ENDBRANCH  13  14
ENDBRANCH   1  13
BRANCH   1  20
HETATM   20  C16 UNL     1      26.709   2.004  53.233  1.00  0.00     0.402 C 
BRANCH  20  21
HETATM   21  N2  UNL     1      27.382   0.748  53.120  1.00  0.00    -0.341 N 
HETATM   22  C17 UNL     1      28.744   0.764  53.521  1.00  0.00     0.092 A 
HETATM   23  C18 UNL     1      29.638  -0.201  53.665  1.00  0.00     0.017 A 
HETATM   24  C19 UNL     1      29.390  -1.635  53.417  1.00  0.00     0.001 A 
HETATM   25  C20 UNL     1      28.310  -2.251  52.952  1.00  0.00     0.001 A 
HETATM   26  C21 UNL     1      27.036  -1.670  52.545  1.00  0.00     0.017 A 
HETATM   27  C22 UNL     1      26.682  -0.400  52.632  1.00  0.00     0.092 A 
ENDBRANCH  20  21
ENDBRANCH   1  20
TORSDOF 7
ENDMDL
MODEL 3
REMARK VINA RESULT:      -8.5      1.755      5.302
REMARK  7 active torsions:
REMARK  status: ('A' for Active; 'I' for Inactive)
REMARK    1  A    between atoms: C6_6  and  O1_7 
REMARK    2  A    between atoms: C7_8  and  C8_9 
REMARK    3  A    between atoms: C8_9  and  N1_10 
REMARK    4  A    between atoms: N1_10  and  C9_11 
REMARK    5  A    between atoms: N1_10  and  C16_18 
REMARK    6  A    between atoms: C9_11  and  C10_12 
REMARK    7  A    between atoms: C16_18  and  N2_19 
ROOT
HETATM    1  N1  UNL     1      24.990   2.601  51.615  1.00  0.00     0.114 N 
ENDROOT
BRANCH   1   2
HETATM    2  C8  UNL     1      23.957   2.737  52.595  1.00  0.00     0.316 C 
BRANCH   2   3
HETATM    3  C7  UNL     1      22.919   1.705  52.606  1.00  0.00     0.004 A 
HETATM    4  C6  UNL     1      21.771   1.539  51.871  1.00  0.00     0.079 A 
HETATM    5  C4  UNL     1      20.893   0.516  52.077  1.00  0.00    -0.028 A 
HETATM    6  C3  UNL     1      21.122  -0.419  53.053  1.00  0.00     0.016 A 
HETATM    7  C5  UNL     1      19.703   0.478  51.199  1.00  0.00     0.051 C 
HETATM    8  C2  UNL     1      22.258  -0.303  53.820  1.00  0.00    -0.061 A 
HETATM    9  C1  UNL     1      22.441  -1.343  54.858  1.00  0.00     0.048 C 
HETATM   10  C23 UNL     1      23.134   0.740  53.596  1.00  0.00     0.018 A 
BRANCH   4  11
HETATM   11  O1  UNL     1      21.558   2.490  50.885  1.00  0.00    -0.360 OA
HETATM   12  H8  UNL     1      22.384   2.829  50.372  1.00  0.00     0.217 HD
ENDBRANCH   4  11
ENDBRANCH   2   3
ENDBRANCH   1   2
BRANCH   1  13
HETATM   13  C9  UNL     1      24.571   3.004  50.325  1.00  0.00     0.313 C 
BRANCH  13  14
HETATM   14  C10 UNL     1      25.530   3.975  49.694  1.00  0.00    -0.030 A 
HETATM   15  C11 UNL     1      25.017   5.254  49.450  1.00  0.00     0.009 A 
HETATM   16  C12 UNL     1      25.751   6.278  48.879  1.00  0.00     0.001 A 
HETATM   17  C13 UNL     1      27.048   5.976  48.550  1.00  0.00     0.000 A 
HETATM   18  C14 UNL     1      27.598   4.711  48.776  1.00  0.00     0.001 A 
HETATM   19  C15 UNL     1      26.837   3.713  49.349  1.00  0.00     0.009 A 
ENDBRANCH  13  14
ENDBRANCH   1  13
BRANCH   1  20
HETATM   20  C16 UNL     1      25.376   1.177  51.651  1.00  0.00     0.402 C 
BRANCH  20  21
HETATM   21  N2  UNL     1      26.573   1.017  52.417  1.00  0.00    -0.341 N 
HETATM   22  C17 UNL     1      26.957  -0.330  52.648  1.00  0.00     0.092 A 
HETATM   23  C18 UNL     1      28.035  -0.864  53.198  1.00  0.00     0.017 A 
HETATM   24  C19 UNL     1      29.178  -0.103  53.742  1.00  0.00     0.001 A 
HETATM   25  C20 UNL     1      29.355   1.207  53.868  1.00  0.00     0.001 A 
HETATM   26  C21 UNL     1      28.448   2.286  53.498  1.00  0.00     0.017 A 
HETATM   27  C22 UNL     1      27.283   2.167  52.886  1.00  0.00     0.092 A 
ENDBRANCH  20  21
ENDBRANCH   1  20
TORSDOF 7
ENDMDL
MODEL 4
REMARK VINA RESULT:      -8.4      1.545      6.526
REMARK  7 active torsions:
REMARK  status: ('A' for Active; 'I' for Inactive)
REMARK    1  A    between atoms: C6_6  and  O1_7 
REMARK    2  A    between atoms: C7_8  and  C8_9 
REMARK    3  A    between atoms: C8_9  and  N1_10 
REMARK    4  A    between atoms: N1_10  and  C9_11 
REMARK    5  A    between atoms: N1_10  and  C16_18 
REMARK    6  A    between atoms: C9_11  and  C10_12 
REMARK    7  A    between atoms: C16_18  and  N2_19 
ROOT
HETATM    1  N1  UNL     1      24.731   1.611  51.968  1.00  0.00     0.114 N 
ENDROOT
BRANCH   1   2
HETATM    2  C8  UNL     1      24.267   2.212  50.755  1.00  0.00     0.316 C 
BRANCH   2   3
HETATM    3  C7  UNL     1      24.698   3.585  50.493  1.00  0.00     0.004 A 
HETATM    4  C6  UNL     1      24.147   4.804  50.801  1.00  0.00     0.079 A 
HETATM    5  C4  UNL     1      24.691   5.992  50.411  1.00  0.00    -0.028 A 
HETATM    6  C3  UNL     1      25.846   6.025  49.673  1.00  0.00     0.016 A 
HETATM    7  C5  UNL     1      23.974   7.218  50.826  1.00  0.00     0.051 C 
HETATM    8  C2  UNL     1      26.444   4.833  49.335  1.00  0.00    -0.061 A 
HETATM    9  C1  UNL     1      27.684   4.942  48.534  1.00  0.00     0.048 C 
HETATM   10  C23 UNL     1      25.877   3.642  49.740  1.00  0.00     0.018 A 
BRANCH   4  11
HETATM   11  O1  UNL     1      22.983   4.752  51.553  1.00  0.00    -0.360 OA
HETATM   12  H8  UNL     1      22.801   3.886  52.079  1.00  0.00     0.217 HD
ENDBRANCH   4  11
ENDBRANCH   2   3
ENDBRANCH   1   2
BRANCH   1  13
HETATM   13  C9  UNL     1      23.904   1.918  53.075  1.00  0.00     0.313 C 
BRANCH  13  14
HETATM   14  C10 UNL     1      22.920   0.820  53.369  1.00  0.00    -0.030 A 
HETATM   15  C11 UNL     1      21.579   1.132  53.118  1.00  0.00     0.009 A 
HETATM   16  C12 UNL     1      20.535   0.249  53.326  1.00  0.00     0.001 A 
HETATM   17  C13 UNL     1      20.881  -0.989  53.807  1.00  0.00     0.000 A 
HETATM   18  C14 UNL     1      22.208  -1.339  54.072  1.00  0.00     0.001 A 
HETATM   19  C15 UNL     1      23.225  -0.433  53.851  1.00  0.00     0.009 A 
ENDBRANCH  13  14
ENDBRANCH   1  13
BRANCH   1  20
HETATM   20  C16 UNL     1      26.107   2.112  52.149  1.00  0.00     0.402 C 
BRANCH  20  21
HETATM   21  N2  UNL     1      26.945   1.063  52.639  1.00  0.00    -0.341 N 
HETATM   22  C17 UNL     1      26.522  -0.248  52.294  1.00  0.00     0.092 A 
HETATM   23  C18 UNL     1      27.083  -1.434  52.460  1.00  0.00     0.017 A 
HETATM   24  C19 UNL     1      28.392  -1.674  53.100  1.00  0.00     0.001 A 
HETATM   25  C20 UNL     1      29.228  -0.826  53.688  1.00  0.00     0.001 A 
HETATM   26  C21 UNL     1      29.084   0.613  53.870  1.00  0.00     0.017 A 
HETATM   27  C22 UNL     1      28.107   1.375  53.413  1.00  0.00     0.092 A 
ENDBRANCH  20  21
ENDBRANCH   1  20
TORSDOF 7
ENDMDL
MODEL 5
REMARK VINA RESULT:      -8.3      1.834      6.660
REMARK  7 active torsions:
REMARK  status: ('A' for Active; 'I' for Inactive)
REMARK    1  A    between atoms: C6_6  and  O1_7 
REMARK    2  A    between atoms: C7_8  and  C8_9 
REMARK    3  A    between atoms: C8_9  and  N1_10 
REMARK    4  A    between atoms: N1_10  and  C9_11 
REMARK    5  A    between atoms: N1_10  and  C16_18 
REMARK    6  A    between atoms: C9_11  and  C10_12 
REMARK    7  A    between atoms: C16_18  and  N2_19 
ROOT
HETATM    1  N1  UNL     1      25.107   2.510  51.971  1.00  0.00     0.114 N 
ENDROOT
BRANCH   1   2
HETATM    2  C8  UNL     1      24.328   1.401  51.509  1.00  0.00     0.316 C 
BRANCH   2   3
HETATM    3  C7  UNL     1      23.114   1.089  52.264  1.00  0.00     0.004 A 
HETATM    4  C6  UNL     1      22.815   0.100  53.169  1.00  0.00     0.079 A 
HETATM    5  C4  UNL     1      21.583  -0.051  53.731  1.00  0.00    -0.028 A 
HETATM    6  C3  UNL     1      20.556   0.800  53.410  1.00  0.00     0.016 A 
HETATM    7  C5  UNL     1      21.423  -1.167  54.689  1.00  0.00     0.051 C 
HETATM    8  C2  UNL     1      20.798   1.811  52.510  1.00  0.00    -0.061 A 
HETATM    9  C1  UNL     1      19.646   2.689  52.206  1.00  0.00     0.048 C 
HETATM   10  C23 UNL     1      22.054   1.947  51.952  1.00  0.00     0.018 A 
BRANCH   4  11
HETATM   11  O1  UNL     1      23.866  -0.747  53.485  1.00  0.00    -0.360 OA
HETATM   12  H8  UNL     1      24.745  -0.623  52.964  1.00  0.00     0.217 HD
ENDBRANCH   4  11
ENDBRANCH   2   3
ENDBRANCH   1   2
BRANCH   1  13
HETATM   13  C9  UNL     1      25.269   2.510  53.377  1.00  0.00     0.313 C 
BRANCH  13  14
HETATM   14  C10 UNL     1      26.525   1.800  53.802  1.00  0.00    -0.030 A 
HETATM   15  C11 UNL     1      27.721   2.396  53.388  1.00  0.00     0.009 A 
HETATM   16  C12 UNL     1      28.973   1.888  53.687  1.00  0.00     0.001 A 
HETATM   17  C13 UNL     1      28.993   0.735  54.430  1.00  0.00     0.000 A 
HETATM   18  C14 UNL     1      27.820   0.109  54.862  1.00  0.00     0.001 A 
HETATM   19  C15 UNL     1      26.588   0.644  54.547  1.00  0.00     0.009 A 
ENDBRANCH  13  14
ENDBRANCH   1  13
BRANCH   1  20
HETATM   20  C16 UNL     1      24.395   3.711  51.496  1.00  0.00     0.402 C 
BRANCH  20  21
HETATM   21  N2  UNL     1      25.196   4.404  50.536  1.00  0.00    -0.341 N 
HETATM   22  C17 UNL     1      24.836   5.762  50.329  1.00  0.00     0.092 A 
HETATM   23  C18 UNL     1      25.399   6.732  49.626  1.00  0.00     0.017 A 
HETATM   24  C19 UNL     1      26.638   6.599  48.833  1.00  0.00     0.001 A 
HETATM   25  C20 UNL     1      27.391   5.534  48.590  1.00  0.00     0.001 A 
HETATM   26  C21 UNL     1      27.202   4.163  49.049  1.00  0.00     0.017 A 
HETATM   27  C22 UNL     1      26.265   3.725  49.870  1.00  0.00     0.092 A 
ENDBRANCH  20  21
ENDBRANCH   1  20
TORSDOF 7
ENDMDL
MODEL 6
REMARK VINA RESULT:      -8.3      1.951      3.425
REMARK  7 active torsions:
REMARK  status: ('A' for Active; 'I' for Inactive)
REMARK    1  A    between atoms: C6_6  and  O1_7 
REMARK    2  A    between atoms: C7_8  and  C8_9 
REMARK    3  A    between atoms: C8_9  and  N1_10 
REMARK    4  A    between atoms: N1_10  and  C9_11 
REMARK    5  A    between atoms: N1_10  and  C16_18 
REMARK    6  A    between atoms: C9_11  and  C10_12 
REMARK    7  A    between atoms: C16_18  and  N2_19 
ROOT
HETATM    1  N1  UNL     1      23.729   2.225  51.871  1.00  0.00     0.114 N 
ENDROOT
BRANCH   1   2
HETATM    2  C8  UNL     1      24.031   1.480  53.055  1.00  0.00     0.316 C 
BRANCH   2   3
HETATM    3  C7  UNL     1      25.401   0.985  53.189  1.00  0.00     0.004 A 
HETATM    4  C6  UNL     1      26.562   1.576  53.624  1.00  0.00     0.079 A 
HETATM    5  C4  UNL     1      27.770   0.945  53.620  1.00  0.00    -0.028 A 
HETATM    6  C3  UNL     1      27.885  -0.345  53.171  1.00  0.00     0.016 A 
HETATM    7  C5  UNL     1      28.925   1.721  54.122  1.00  0.00     0.051 C 
HETATM    8  C2  UNL     1      26.755  -0.989  52.725  1.00  0.00    -0.061 A 
HETATM    9  C1  UNL     1      26.952  -2.377  52.250  1.00  0.00     0.048 C 
HETATM   10  C23 UNL     1      25.541  -0.332  52.736  1.00  0.00     0.018 A 
BRANCH   4  11
HETATM   11  O1  UNL     1      26.425   2.878  54.079  1.00  0.00    -0.360 OA
HETATM   12  H8  UNL     1      27.174   3.248  54.681  1.00  0.00     0.217 HD
ENDBRANCH   4  11
ENDBRANCH   2   3
ENDBRANCH   1   2
BRANCH   1  13
HETATM   13  C9  UNL     1      24.004   3.606  52.014  1.00  0.00     0.313 C 
BRANCH  13  14
HETATM   14  C10 UNL     1      24.795   4.150  50.857  1.00  0.00    -0.030 A 
HETATM   15  C11 UNL     1      25.947   3.429  50.525  1.00  0.00     0.009 A 
HETATM   16  C12 UNL     1      26.797   3.776  49.490  1.00  0.00     0.001 A 
HETATM   17  C13 UNL     1      26.451   4.897  48.779  1.00  0.00     0.000 A 
HETATM   18  C14 UNL     1      25.309   5.645  49.079  1.00  0.00     0.001 A 
HETATM   19  C15 UNL     1      24.483   5.269  50.118  1.00  0.00     0.009 A 
ENDBRANCH  13  14
ENDBRANCH   1  13
BRANCH   1  20
HETATM   20  C16 UNL     1      22.300   1.971  51.605  1.00  0.00     0.402 C 
BRANCH  20  21
HETATM   21  N2  UNL     1      21.933   2.535  50.344  1.00  0.00    -0.341 N 
HETATM   22  C17 UNL     1      20.978   3.585  50.417  1.00  0.00     0.092 A 
HETATM   23  C18 UNL     1      20.493   4.408  49.502  1.00  0.00     0.017 A 
HETATM   24  C19 UNL     1      20.873   4.414  48.075  1.00  0.00     0.001 A 
HETATM   25  C20 UNL     1      21.680   3.606  47.399  1.00  0.00     0.001 A 
HETATM   26  C21 UNL     1      22.434   2.458  47.887  1.00  0.00     0.017 A 
HETATM   27  C22 UNL     1      22.517   2.038  49.137  1.00  0.00     0.092 A 
ENDBRANCH  20  21
ENDBRANCH   1  20
TORSDOF 7
ENDMDL
MODEL 7
REMARK VINA RESULT:      -8.3      2.278      4.350
REMARK  7 active torsions:
REMARK  status: ('A' for Active; 'I' for Inactive)
REMARK    1  A    between atoms: C6_6  and  O1_7 
REMARK    2  A    between atoms: C7_8  and  C8_9 
REMARK    3  A    between atoms: C8_9  and  N1_10 
REMARK    4  A    between atoms: N1_10  and  C9_11 
REMARK    5  A    between atoms: N1_10  and  C16_18 
REMARK    6  A    between atoms: C9_11  and  C10_12 
REMARK    7  A    between atoms: C16_18  and  N2_19 
ROOT
HETATM    1  N1  UNL     1      23.471   4.024  51.285  1.00  0.00     0.114 N 
ENDROOT
BRANCH   1   2
HETATM    2  C8  UNL     1      23.510   3.611  52.655  1.00  0.00     0.316 C 
BRANCH   2   3
HETATM    3  C7  UNL     1      24.041   2.274  52.925  1.00  0.00     0.004 A 
HETATM    4  C6  UNL     1      25.320   1.800  53.081  1.00  0.00     0.079 A 
HETATM    5  C4  UNL     1      25.610   0.482  53.277  1.00  0.00    -0.028 A 
HETATM    6  C3  UNL     1      24.611  -0.455  53.330  1.00  0.00     0.016 A 
HETATM    7  C5  UNL     1      27.040   0.134  53.428  1.00  0.00     0.051 C 
HETATM    8  C2  UNL     1      23.309  -0.038  53.181  1.00  0.00    -0.061 A 
HETATM    9  C1  UNL     1      22.282  -1.101  53.244  1.00  0.00     0.048 C 
HETATM   10  C23 UNL     1      23.036   1.301  52.983  1.00  0.00     0.018 A 
BRANCH   4  11
HETATM   11  O1  UNL     1      26.316   2.762  53.031  1.00  0.00    -0.360 OA
HETATM   12  H8  UNL     1      26.975   2.800  53.821  1.00  0.00     0.217 HD
ENDBRANCH   4  11
ENDBRANCH   2   3
ENDBRANCH   1   2
BRANCH   1  13
HETATM   13  C9  UNL     1      24.113   5.267  51.076  1.00  0.00     0.313 C 
BRANCH  13  14
HETATM   14  C10 UNL     1      25.322   5.139  50.190  1.00  0.00    -0.030 A 
HETATM   15  C11 UNL     1      25.782   6.334  49.625  1.00  0.00     0.009 A 
HETATM   16  C12 UNL     1      26.880   6.412  48.787  1.00  0.00     0.001 A 
HETATM   17  C13 UNL     1      27.520   5.228  48.523  1.00  0.00     0.000 A 
HETATM   18  C14 UNL     1      27.091   4.014  49.067  1.00  0.00     0.001 A 
HETATM   19  C15 UNL     1      25.992   3.972  49.900  1.00  0.00     0.009 A 
ENDBRANCH  13  14
ENDBRANCH   1  13
BRANCH   1  20
HETATM   20  C16 UNL     1      22.039   4.075  50.934  1.00  0.00     0.402 C 
BRANCH  20  21
HETATM   21  N2  UNL     1      21.878   3.899  49.525  1.00  0.00    -0.341 N 
HETATM   22  C17 UNL     1      21.200   4.959  48.866  1.00  0.00     0.092 A 
HETATM   23  C18 UNL     1      20.970   5.206  47.586  1.00  0.00     0.017 A 
HETATM   24  C19 UNL     1      21.409   4.353  46.463  1.00  0.00     0.001 A 
HETATM   25  C20 UNL     1      22.030   3.179  46.468  1.00  0.00     0.001 A 
HETATM   26  C21 UNL     1      22.463   2.385  47.611  1.00  0.00     0.017 A 
HETATM   27  C22 UNL     1      22.383   2.722  48.886  1.00  0.00     0.092 A 
ENDBRANCH  20  21
ENDBRANCH   1  20
TORSDOF 7
ENDMDL
MODEL 8
REMARK VINA RESULT:      -8.3      2.663      7.247
REMARK  7 active torsions:
REMARK  status: ('A' for Active; 'I' for Inactive)
REMARK    1  A    between atoms: C6_6  and  O1_7 
REMARK    2  A    between atoms: C7_8  and  C8_9 
REMARK    3  A    between atoms: C8_9  and  N1_10 
REMARK    4  A    between atoms: N1_10  and  C9_11 
REMARK    5  A    between atoms: N1_10  and  C16_18 
REMARK    6  A    between atoms: C9_11  and  C10_12 
REMARK    7  A    between atoms: C16_18  and  N2_19 
ROOT
HETATM    1  N1  UNL     1      23.516   4.510  51.716  1.00  0.00     0.114 N 
ENDROOT
BRANCH   1   2
HETATM    2  C8  UNL     1      22.122   4.662  51.427  1.00  0.00     0.316 C 
BRANCH   2   3
HETATM    3  C7  UNL     1      21.443   3.511  50.832  1.00  0.00     0.004 A 
HETATM    4  C6  UNL     1      20.378   2.748  51.243  1.00  0.00     0.079 A 
HETATM    5  C4  UNL     1      19.925   1.663  50.554  1.00  0.00    -0.028 A 
HETATM    6  C3  UNL     1      20.527   1.272  49.387  1.00  0.00     0.016 A 
HETATM    7  C5  UNL     1      18.766   0.948  51.132  1.00  0.00     0.051 C 
HETATM    8  C2  UNL     1      21.599   2.000  48.924  1.00  0.00    -0.061 A 
HETATM    9  C1  UNL     1      22.204   1.520  47.662  1.00  0.00     0.048 C 
HETATM   10  C23 UNL     1      22.043   3.096  49.637  1.00  0.00     0.018 A 
BRANCH   4  11
HETATM   11  O1  UNL     1      19.778   3.161  52.423  1.00  0.00    -0.360 OA
HETATM   12  H8  UNL     1      18.893   2.706  52.686  1.00  0.00     0.217 HD
ENDBRANCH   4  11
ENDBRANCH   2   3
ENDBRANCH   1   2
BRANCH   1  13
HETATM   13  C9  UNL     1      23.751   4.069  53.039  1.00  0.00     0.313 C 
BRANCH  13  14
HETATM   14  C10 UNL     1      24.324   2.679  53.080  1.00  0.00    -0.030 A 
HETATM   15  C11 UNL     1      23.389   1.641  52.993  1.00  0.00     0.009 A 
HETATM   16  C12 UNL     1      23.729   0.300  53.011  1.00  0.00     0.001 A 
HETATM   17  C13 UNL     1      25.068   0.021  53.125  1.00  0.00     0.000 A 
HETATM   18  C14 UNL     1      26.032   1.029  53.215  1.00  0.00     0.001 A 
HETATM   19  C15 UNL     1      25.658   2.356  53.192  1.00  0.00     0.009 A 
ENDBRANCH  13  14
ENDBRANCH   1  13
BRANCH   1  20
HETATM   20  C16 UNL     1      24.113   5.835  51.460  1.00  0.00     0.402 C 
BRANCH  20  21
HETATM   21  N2  UNL     1      25.144   5.722  50.477  1.00  0.00    -0.341 N 
HETATM   22  C17 UNL     1      25.610   6.959  49.957  1.00  0.00     0.092 A 
HETATM   23  C18 UNL     1      26.607   7.259  49.141  1.00  0.00     0.017 A 
HETATM   24  C19 UNL     1      27.536   6.283  48.537  1.00  0.00     0.001 A 
HETATM   25  C20 UNL     1      27.550   4.957  48.603  1.00  0.00     0.001 A 
HETATM   26  C21 UNL     1      26.629   4.072  49.307  1.00  0.00     0.017 A 
HETATM   27  C22 UNL     1      25.626   4.432  50.088  1.00  0.00     0.092 A 
ENDBRANCH  20  21
ENDBRANCH   1  20
TORSDOF 7
ENDMDL
MODEL 9
REMARK VINA RESULT:      -8.2      2.374      6.661
REMARK  7 active torsions:
REMARK  status: ('A' for Active; 'I' for Inactive)
REMARK    1  A    between atoms: C6_6  and  O1_7 
REMARK    2  A    between atoms: C7_8  and  C8_9 
REMARK    3  A    between atoms: C8_9  and  N1_10 
REMARK    4  A    between atoms: N1_10  and  C9_11 
REMARK    5  A    between atoms: N1_10  and  C16_18 
REMARK    6  A    between atoms: C9_11  and  C10_12 
REMARK    7  A    between atoms: C16_18  and  N2_19 
ROOT
HETATM    1  N1  UNL     1      23.718   0.984  52.697  1.00  0.00     0.114 N 
ENDROOT
BRANCH   1   2
HETATM    2  C8  UNL     1      22.300   0.975  52.501  1.00  0.00     0.316 C 
BRANCH   2   3
HETATM    3  C7  UNL     1      21.776   1.836  51.439  1.00  0.00     0.004 A 
HETATM    4  C6  UNL     1      20.825   2.826  51.434  1.00  0.00     0.079 A 
HETATM    5  C4  UNL     1      20.437   3.484  50.306  1.00  0.00    -0.028 A 
HETATM    6  C3  UNL     1      20.993   3.180  49.090  1.00  0.00     0.016 A 
HETATM    7  C5  UNL     1      19.400   4.527  50.470  1.00  0.00     0.051 C 
HETATM    8  C2  UNL     1      21.953   2.196  49.034  1.00  0.00    -0.061 A 
HETATM    9  C1  UNL     1      22.508   1.915  47.691  1.00  0.00     0.048 C 
HETATM   10  C23 UNL     1      22.332   1.542  50.189  1.00  0.00     0.018 A 
BRANCH   4  11
HETATM   11  O1  UNL     1      20.278   3.124  52.673  1.00  0.00    -0.360 OA
HETATM   12  H8  UNL     1      19.277   2.923  52.806  1.00  0.00     0.217 HD
ENDBRANCH   4  11
ENDBRANCH   2   3
ENDBRANCH   1   2
BRANCH   1  13
HETATM   13  C9  UNL     1      24.140   0.019  53.642  1.00  0.00     0.313 C 
BRANCH  13  14
HETATM   14  C10 UNL     1      25.624  -0.217  53.586  1.00  0.00    -0.030 A 
HETATM   15  C11 UNL     1      26.363   0.355  54.627  1.00  0.00     0.009 A 
HETATM   16  C12 UNL     1      27.738   0.243  54.743  1.00  0.00     0.001 A 
HETATM   17  C13 UNL     1      28.367  -0.479  53.759  1.00  0.00     0.000 A 
HETATM   18  C14 UNL     1      27.664  -1.065  52.703  1.00  0.00     0.001 A 
HETATM   19  C15 UNL     1      26.293  -0.934  52.619  1.00  0.00     0.009 A 
ENDBRANCH  13  14
ENDBRANCH   1  13
BRANCH   1  20
HETATM   20  C16 UNL     1      24.043   2.358  53.125  1.00  0.00     0.402 C 
BRANCH  20  21
HETATM   21  N2  UNL     1      24.637   3.076  52.042  1.00  0.00    -0.341 N 
HETATM   22  C17 UNL     1      25.776   2.452  51.467  1.00  0.00     0.092 A 
HETATM   23  C18 UNL     1      26.506   2.745  50.403  1.00  0.00     0.017 A 
HETATM   24  C19 UNL     1      26.272   3.890  49.500  1.00  0.00     0.001 A 
HETATM   25  C20 UNL     1      25.384   4.874  49.574  1.00  0.00     0.001 A 
HETATM   26  C21 UNL     1      24.366   5.105  50.591  1.00  0.00     0.017 A 
HETATM   27  C22 UNL     1      24.080   4.324  51.617  1.00  0.00     0.092 A 
ENDBRANCH  20  21
ENDBRANCH   1  20
TORSDOF 7
ENDMDL
