MODEL 1
REMARK VINA RESULT:      -8.0      0.000      0.000
REMARK  7 active torsions:
REMARK  status: ('A' for Active; 'I' for Inactive)
REMARK    1  A    between atoms: C3_3  and  C4_4 
REMARK    2  A    between atoms: C9_12  and  N3_13 
REMARK    3  A    between atoms: N3_13  and  C10_14 
REMARK    4  A    between atoms: C10_14  and  C11_15 
REMARK    5  A    between atoms: C12_16  and  C13_18 
REMARK    6  A    between atoms: C15_21  and  C16_22 
REMARK    7  A    between atoms: C16_22  and  O1_23 
ROOT
HETATM    1  C1  UNL     1      18.063  -1.382  53.402  1.00  0.00     0.112 C 
HETATM    2  C2  UNL     1      19.386  -0.825  53.254  1.00  0.00    -0.108 C 
HETATM    3  C3  UNL     1      20.530  -0.359  53.143  1.00  0.00    -0.063 C 
ENDROOT
BRANCH   3   4
HETATM    4  C4  UNL     1      21.885   0.194  52.985  1.00  0.00     0.167 A 
HETATM    5  C5  UNL     1      22.375   1.194  52.297  1.00  0.00     0.155 A 
HETATM    6  F1  UNL     1      21.061   1.046  52.143  1.00  0.00    -0.365 F 
HETATM    7  C6  UNL     1      21.693   2.183  51.410  1.00  0.00     0.139 C 
HETATM    8  C7  UNL     1      21.698   3.484  51.796  1.00  0.00     0.069 C 
HETATM    9  N1  UNL     1      22.729   3.685  52.548  1.00  0.00    -0.274 NA
HETATM   10  C8  UNL     1      23.910   2.972  52.074  1.00  0.00     0.229 C 
HETATM   11  N2  UNL     1      25.045   2.809  52.713  1.00  0.00    -0.226 NA
HETATM   12  C9  UNL     1      26.120   2.090  52.131  1.00  0.00     0.123 C 
HETATM   13  C14 UNL     1      26.662   0.898  52.157  1.00  0.00     0.057 C 
HETATM   14  C15 UNL     1      26.168  -0.207  52.978  1.00  0.00     0.171 C 
HETATM   15  O2  UNL     1      24.797  -0.406  52.693  1.00  0.00    -0.380 OA
HETATM   16  C18 UNL     1      24.175  -0.309  53.919  1.00  0.00     0.173 C 
HETATM   17  C19 UNL     1      22.731  -0.620  53.819  1.00  0.00     0.083 C 
BRANCH  12  18
HETATM   18  N3  UNL     1      26.620   3.158  51.320  1.00  0.00    -0.371 N 
HETATM   19  H6  UNL     1      26.931   3.804  52.087  1.00  0.00     0.161 HD
BRANCH  18  20
HETATM   20  C10 UNL     1      26.594   3.128  49.850  1.00  0.00     0.150 C 
BRANCH  20  21
HETATM   21  C11 UNL     1      26.451   4.492  49.285  1.00  0.00     0.014 C 
HETATM   22  C12 UNL     1      27.226   5.364  48.688  1.00  0.00     0.038 C 
HETATM   23 CL1  UNL     1      28.911   5.277  48.271  1.00  0.00    -0.087 Cl
BRANCH  22  24
HETATM   24  C13 UNL     1      26.680   6.669  48.257  1.00  0.00     0.273 C 
HETATM   25  F2  UNL     1      25.321   6.687  48.568  1.00  0.00    -0.250 F 
ENDBRANCH  22  24
ENDBRANCH  20  21
ENDBRANCH  18  20
ENDBRANCH  12  18
BRANCH  14  26
HETATM   26  C16 UNL     1      26.920  -1.500  52.725  1.00  0.00     0.203 C 
BRANCH  26  27
HETATM   27  O1  UNL     1      28.101  -1.522  53.438  1.00  0.00    -0.393 OA
HETATM   28  C17 UNL     1      28.797  -2.670  53.115  1.00  0.00     0.201 C 
ENDBRANCH  26  27
ENDBRANCH  14  26
ENDBRANCH   3   4
TORSDOF 7
ENDMDL
MODEL 2
REMARK VINA RESULT:      -7.6      3.457      5.359
REMARK  7 active torsions:
REMARK  status: ('A' for Active; 'I' for Inactive)
REMARK    1  A    between atoms: C3_3  and  C4_4 
REMARK    2  A    between atoms: C9_12  and  N3_13 
REMARK    3  A    between atoms: N3_13  and  C10_14 
REMARK    4  A    between atoms: C10_14  and  C11_15 
REMARK    5  A    between atoms: C12_16  and  C13_18 
REMARK    6  A    between atoms: C15_21  and  C16_22 
REMARK    7  A    between atoms: C16_22  and  O1_23 
ROOT
HETATM    1  C1  UNL     1      16.190  -0.824  51.808  1.00  0.00     0.112 C 
HETATM    2  C2  UNL     1      17.582  -0.444  51.841  1.00  0.00    -0.108 C 
HETATM    3  C3  UNL     1      18.773  -0.099  51.881  1.00  0.00    -0.063 C 
ENDROOT
BRANCH   3   4
HETATM    4  C4  UNL     1      20.193   0.284  51.932  1.00  0.00     0.167 A 
HETATM    5  C5  UNL     1      21.082   0.321  52.892  1.00  0.00     0.155 A 
HETATM    6  F1  UNL     1      19.887  -0.098  53.300  1.00  0.00    -0.365 F 
HETATM    7  C6  UNL     1      20.964  -0.053  54.333  1.00  0.00     0.139 C 
HETATM    8  C7  UNL     1      21.700  -1.105  54.773  1.00  0.00     0.069 C 
HETATM    9  N1  UNL     1      22.738  -1.226  54.014  1.00  0.00    -0.274 NA
HETATM   10  C8  UNL     1      23.305   0.064  53.638  1.00  0.00     0.229 C 
HETATM   11  N2  UNL     1      24.226   0.289  52.729  1.00  0.00    -0.226 NA
HETATM   12  C9  UNL     1      24.692   1.602  52.463  1.00  0.00     0.123 C 
HETATM   13  C14 UNL     1      24.509   2.579  51.612  1.00  0.00     0.057 C 
HETATM   14  C15 UNL     1      23.573   2.522  50.490  1.00  0.00     0.171 C 
HETATM   15  O2  UNL     1      22.290   2.191  50.987  1.00  0.00    -0.380 OA
HETATM   16  C18 UNL     1      21.926   1.070  50.273  1.00  0.00     0.173 C 
HETATM   17  C19 UNL     1      20.538   0.658  50.584  1.00  0.00     0.083 C 
BRANCH  12  18
HETATM   18  N3  UNL     1      25.615   1.678  53.555  1.00  0.00    -0.371 N 
HETATM   19  H6  UNL     1      25.004   1.266  54.304  1.00  0.00     0.161 HD
BRANCH  18  20
HETATM   20  C10 UNL     1      26.975   2.221  53.419  1.00  0.00     0.150 C 
BRANCH  20  21
HETATM   21  C11 UNL     1      27.999   1.184  53.693  1.00  0.00     0.014 C 
HETATM   22  C12 UNL     1      28.154  -0.094  53.447  1.00  0.00     0.038 C 
HETATM   23 CL1  UNL     1      27.120  -1.216  52.614  1.00  0.00    -0.087 Cl
BRANCH  22  24
HETATM   24  C13 UNL     1      29.371  -0.797  53.907  1.00  0.00     0.273 C 
HETATM   25  F2  UNL     1      30.477  -0.079  53.451  1.00  0.00    -0.250 F 
ENDBRANCH  22  24
ENDBRANCH  20  21
ENDBRANCH  18  20
ENDBRANCH  12  18
BRANCH  14  26
HETATM   26  C16 UNL     1      23.488   3.835  49.736  1.00  0.00     0.203 C 
BRANCH  26  27
HETATM   27  O1  UNL     1      24.691   4.508  49.796  1.00  0.00    -0.393 OA
HETATM   28  C17 UNL     1      24.674   5.537  48.875  1.00  0.00     0.201 C 
ENDBRANCH  26  27
ENDBRANCH  14  26
ENDBRANCH   3   4
TORSDOF 7
ENDMDL
MODEL 3
REMARK VINA RESULT:      -7.6      3.074      5.290
REMARK  7 active torsions:
REMARK  status: ('A' for Active; 'I' for Inactive)
REMARK    1  A    between atoms: C3_3  and  C4_4 
REMARK    2  A    between atoms: C9_12  and  N3_13 
REMARK    3  A    between atoms: N3_13  and  C10_14 
REMARK    4  A    between atoms: C10_14  and  C11_15 
REMARK    5  A    between atoms: C12_16  and  C13_18 
REMARK    6  A    between atoms: C15_21  and  C16_22 
REMARK    7  A    between atoms: C16_22  and  O1_23 
ROOT
HETATM    1  C1  UNL     1      21.508  -1.410  54.601  1.00  0.00     0.112 C 
HETATM    2  C2  UNL     1      22.176  -0.479  53.725  1.00  0.00    -0.108 C 
HETATM    3  C3  UNL     1      22.768   0.311  52.973  1.00  0.00    -0.063 C 
ENDROOT
BRANCH   3   4
HETATM    4  C4  UNL     1      23.448   1.249  52.066  1.00  0.00     0.167 A 
HETATM    5  C5  UNL     1      24.594   1.881  52.118  1.00  0.00     0.155 A 
HETATM    6  F1  UNL     1      24.370   1.114  53.182  1.00  0.00    -0.365 F 
HETATM    7  C6  UNL     1      25.670   1.849  53.154  1.00  0.00     0.139 C 
HETATM    8  C7  UNL     1      26.874   1.337  52.795  1.00  0.00     0.069 C 
HETATM    9  N1  UNL     1      27.017   1.481  51.519  1.00  0.00    -0.274 NA
HETATM   10  C8  UNL     1      26.501   2.759  51.042  1.00  0.00     0.229 C 
HETATM   11  N2  UNL     1      26.317   3.122  49.794  1.00  0.00    -0.226 NA
HETATM   12  C9  UNL     1      25.806   4.404  49.468  1.00  0.00     0.123 C 
HETATM   13  C14 UNL     1      24.678   4.982  49.141  1.00  0.00     0.057 C 
HETATM   14  C15 UNL     1      23.405   4.274  49.007  1.00  0.00     0.171 C 
HETATM   15  O2  UNL     1      23.150   3.568  50.207  1.00  0.00    -0.380 OA
HETATM   16  C18 UNL     1      22.971   2.263  49.804  1.00  0.00     0.173 C 
HETATM   17  C19 UNL     1      22.567   1.398  50.937  1.00  0.00     0.083 C 
BRANCH  12  18
HETATM   18  N3  UNL     1      27.041   5.116  49.593  1.00  0.00    -0.371 N 
HETATM   19  H6  UNL     1      27.318   4.780  50.550  1.00  0.00     0.161 HD
BRANCH  18  20
HETATM   20  C10 UNL     1      27.563   6.006  48.546  1.00  0.00     0.150 C 
BRANCH  20  21
HETATM   21  C11 UNL     1      28.942   5.625  48.152  1.00  0.00     0.014 C 
HETATM   22  C12 UNL     1      30.129   6.181  48.170  1.00  0.00     0.038 C 
HETATM   23 CL1  UNL     1      30.629   7.753  48.717  1.00  0.00    -0.087 Cl
BRANCH  22  24
HETATM   24  C13 UNL     1      31.305   5.439  47.667  1.00  0.00     0.273 C 
HETATM   25  F2  UNL     1      30.883   4.154  47.324  1.00  0.00    -0.250 F 
ENDBRANCH  22  24
ENDBRANCH  20  21
ENDBRANCH  18  20
ENDBRANCH  12  18
BRANCH  14  26
HETATM   26  C16 UNL     1      22.245   5.211  48.727  1.00  0.00     0.203 C 
BRANCH  26  27
HETATM   27  O1  UNL     1      22.619   6.522  48.935  1.00  0.00    -0.393 OA
HETATM   28  C17 UNL     1      21.629   7.161  49.655  1.00  0.00     0.201 C 
ENDBRANCH  26  27
ENDBRANCH  14  26
ENDBRANCH   3   4
TORSDOF 7
ENDMDL
MODEL 4
REMARK VINA RESULT:      -7.4      2.952      5.086
REMARK  7 active torsions:
REMARK  status: ('A' for Active; 'I' for Inactive)
REMARK    1  A    between atoms: C3_3  and  C4_4 
REMARK    2  A    between atoms: C9_12  and  N3_13 
REMARK    3  A    between atoms: N3_13  and  C10_14 
REMARK    4  A    between atoms: C10_14  and  C11_15 
REMARK    5  A    between atoms: C12_16  and  C13_18 
REMARK    6  A    between atoms: C15_21  and  C16_22 
REMARK    7  A    between atoms: C16_22  and  O1_23 
ROOT
HETATM    1  C1  UNL     1      21.384  -1.370  54.583  1.00  0.00     0.112 C 
HETATM    2  C2  UNL     1      22.070  -0.454  53.703  1.00  0.00    -0.108 C 
HETATM    3  C3  UNL     1      22.655   0.321  52.930  1.00  0.00    -0.063 C 
ENDROOT
BRANCH   3   4
HETATM    4  C4  UNL     1      23.339   1.261  52.028  1.00  0.00     0.167 A 
HETATM    5  C5  UNL     1      24.487   1.887  52.082  1.00  0.00     0.155 A 
HETATM    6  F1  UNL     1      24.261   1.116  53.143  1.00  0.00    -0.365 F 
HETATM    7  C6  UNL     1      25.564   1.844  53.117  1.00  0.00     0.139 C 
HETATM    8  C7  UNL     1      26.765   1.329  52.755  1.00  0.00     0.069 C 
HETATM    9  N1  UNL     1      26.909   1.478  51.480  1.00  0.00    -0.274 NA
HETATM   10  C8  UNL     1      26.398   2.761  51.010  1.00  0.00     0.229 C 
HETATM   11  N2  UNL     1      26.215   3.131  49.763  1.00  0.00    -0.226 NA
HETATM   12  C9  UNL     1      25.710   4.417  49.444  1.00  0.00     0.123 C 
HETATM   13  C14 UNL     1      24.584   5.002  49.121  1.00  0.00     0.057 C 
HETATM   14  C15 UNL     1      23.308   4.300  48.984  1.00  0.00     0.171 C 
HETATM   15  O2  UNL     1      23.051   3.590  50.181  1.00  0.00    -0.380 OA
HETATM   16  C18 UNL     1      22.865   2.288  49.772  1.00  0.00     0.173 C 
HETATM   17  C19 UNL     1      22.458   1.420  50.900  1.00  0.00     0.083 C 
BRANCH  12  18
HETATM   18  N3  UNL     1      26.949   5.123  49.572  1.00  0.00    -0.371 N 
HETATM   19  H6  UNL     1      26.767   5.588  50.497  1.00  0.00     0.161 HD
BRANCH  18  20
HETATM   20  C10 UNL     1      28.017   5.057  48.564  1.00  0.00     0.150 C 
BRANCH  20  21
HETATM   21  C11 UNL     1      28.417   6.413  48.114  1.00  0.00     0.014 C 
HETATM   22  C12 UNL     1      27.821   7.470  47.619  1.00  0.00     0.038 C 
HETATM   23 CL1  UNL     1      26.147   7.749  47.246  1.00  0.00    -0.087 Cl
BRANCH  22  24
HETATM   24  C13 UNL     1      28.606   8.679  47.287  1.00  0.00     0.273 C 
HETATM   25  F2  UNL     1      28.483   9.572  48.351  1.00  0.00    -0.250 F 
ENDBRANCH  22  24
ENDBRANCH  20  21
ENDBRANCH  18  20
ENDBRANCH  12  18
BRANCH  14  26
HETATM   26  C16 UNL     1      22.153   5.244  48.709  1.00  0.00     0.203 C 
BRANCH  26  27
HETATM   27  O1  UNL     1      21.421   5.463  49.858  1.00  0.00    -0.393 OA
HETATM   28  C17 UNL     1      21.572   6.781  50.241  1.00  0.00     0.201 C 
ENDBRANCH  26  27
ENDBRANCH  14  26
ENDBRANCH   3   4
TORSDOF 7
ENDMDL
MODEL 5
REMARK VINA RESULT:      -7.4      1.897      2.626
REMARK  7 active torsions:
REMARK  status: ('A' for Active; 'I' for Inactive)
REMARK    1  A    between atoms: C3_3  and  C4_4 
REMARK    2  A    between atoms: C9_12  and  N3_13 
REMARK    3  A    between atoms: N3_13  and  C10_14 
REMARK    4  A    between atoms: C10_14  and  C11_15 
REMARK    5  A    between atoms: C12_16  and  C13_18 
REMARK    6  A    between atoms: C15_21  and  C16_22 
REMARK    7  A    between atoms: C16_22  and  O1_23 
ROOT
HETATM    1  C1  UNL     1      16.830  -3.753  53.701  1.00  0.00     0.112 C 
HETATM    2  C2  UNL     1      17.890  -2.790  53.522  1.00  0.00    -0.108 C 
HETATM    3  C3  UNL     1      18.794  -1.958  53.349  1.00  0.00    -0.063 C 
ENDROOT
BRANCH   3   4
HETATM    4  C4  UNL     1      19.863  -0.963  53.169  1.00  0.00     0.167 A 
HETATM    5  C5  UNL     1      20.009   0.068  52.376  1.00  0.00     0.155 A 
HETATM    6  F1  UNL     1      18.856  -0.572  52.196  1.00  0.00    -0.365 F 
HETATM    7  C6  UNL     1      19.087   0.634  51.345  1.00  0.00     0.139 C 
HETATM    8  C7  UNL     1      18.589   1.877  51.562  1.00  0.00     0.069 C 
HETATM    9  N1  UNL     1      19.412   2.525  52.317  1.00  0.00    -0.274 NA
HETATM   10  C8  UNL     1      20.806   2.254  51.980  1.00  0.00     0.229 C 
HETATM   11  N2  UNL     1      21.868   2.592  52.675  1.00  0.00    -0.226 NA
HETATM   12  C9  UNL     1      23.173   2.265  52.228  1.00  0.00     0.123 C 
HETATM   13  C14 UNL     1      24.107   1.368  52.425  1.00  0.00     0.057 C 
HETATM   14  C15 UNL     1      23.985   0.254  53.364  1.00  0.00     0.171 C 
HETATM   15  O2  UNL     1      22.807  -0.469  53.058  1.00  0.00    -0.380 OA
HETATM   16  C18 UNL     1      22.097  -0.479  54.239  1.00  0.00     0.173 C 
HETATM   17  C19 UNL     1      20.877  -1.312  54.129  1.00  0.00     0.083 C 
BRANCH  12  18
HETATM   18  N3  UNL     1      23.314   3.349  51.304  1.00  0.00    -0.371 N 
HETATM   19  H6  UNL     1      22.930   4.118  51.908  1.00  0.00     0.161 HD
BRANCH  18  20
HETATM   20  C10 UNL     1      23.864   3.183  49.951  1.00  0.00     0.150 C 
BRANCH  20  21
HETATM   21  C11 UNL     1      24.317   4.480  49.390  1.00  0.00     0.014 C 
HETATM   22  C12 UNL     1      25.460   5.035  49.071  1.00  0.00     0.038 C 
HETATM   23 CL1  UNL     1      27.082   4.423  49.184  1.00  0.00    -0.087 Cl
BRANCH  22  24
HETATM   24  C13 UNL     1      25.490   6.405  48.514  1.00  0.00     0.273 C 
HETATM   25  F2  UNL     1      24.233   6.974  48.713  1.00  0.00    -0.250 F 
ENDBRANCH  22  24
ENDBRANCH  20  21
ENDBRANCH  18  20
ENDBRANCH  12  18
BRANCH  14  26
HETATM   26  C16 UNL     1      25.173  -0.688  53.305  1.00  0.00     0.203 C 
BRANCH  26  27
HETATM   27  O1  UNL     1      25.732  -0.842  54.557  1.00  0.00    -0.393 OA
HETATM   28  C17 UNL     1      26.734   0.095  54.718  1.00  0.00     0.201 C 
ENDBRANCH  26  27
ENDBRANCH  14  26
ENDBRANCH   3   4
TORSDOF 7
ENDMDL
MODEL 6
REMARK VINA RESULT:      -7.1      2.790      7.045
REMARK  7 active torsions:
REMARK  status: ('A' for Active; 'I' for Inactive)
REMARK    1  A    between atoms: C3_3  and  C4_4 
REMARK    2  A    between atoms: C9_12  and  N3_13 
REMARK    3  A    between atoms: N3_13  and  C10_14 
REMARK    4  A    between atoms: C10_14  and  C11_15 
REMARK    5  A    between atoms: C12_16  and  C13_18 
REMARK    6  A    between atoms: C15_21  and  C16_22 
REMARK    7  A    between atoms: C16_22  and  O1_23 
ROOT
HETATM    1  C1  UNL     1      27.003   8.314  47.127  1.00  0.00     0.112 C 
HETATM    2  C2  UNL     1      26.533   7.196  47.910  1.00  0.00    -0.108 C 
HETATM    3  C3  UNL     1      26.123   6.225  48.564  1.00  0.00    -0.063 C 
ENDROOT
BRANCH   3   4
HETATM    4  C4  UNL     1      25.658   5.076  49.358  1.00  0.00     0.167 A 
HETATM    5  C5  UNL     1      24.534   4.800  49.969  1.00  0.00     0.155 A 
HETATM    6  F1  UNL     1      24.522   5.982  49.358  1.00  0.00    -0.365 F 
HETATM    7  C6  UNL     1      23.264   5.581  50.057  1.00  0.00     0.139 C 
HETATM    8  C7  UNL     1      22.158   5.051  49.478  1.00  0.00     0.069 C 
HETATM    9  N1  UNL     1      22.287   3.767  49.444  1.00  0.00    -0.274 NA
HETATM   10  C8  UNL     1      22.905   3.238  50.656  1.00  0.00     0.229 C 
HETATM   11  N2  UNL     1      23.351   2.019  50.849  1.00  0.00    -0.226 NA
HETATM   12  C9  UNL     1      23.931   1.635  52.084  1.00  0.00     0.123 C 
HETATM   13  C14 UNL     1      25.109   1.476  52.634  1.00  0.00     0.057 C 
HETATM   14  C15 UNL     1      26.374   1.710  51.939  1.00  0.00     0.171 C 
HETATM   15  O2  UNL     1      26.364   3.021  51.408  1.00  0.00    -0.380 OA
HETATM   16  C18 UNL     1      26.610   2.848  50.064  1.00  0.00     0.173 C 
HETATM   17  C19 UNL     1      26.759   4.147  49.369  1.00  0.00     0.083 C 
BRANCH  12  18
HETATM   18  N3  UNL     1      22.705   1.400  52.783  1.00  0.00    -0.371 N 
HETATM   19  H6  UNL     1      22.385   2.396  52.876  1.00  0.00     0.161 HD
BRANCH  18  20
HETATM   20  C10 UNL     1      22.238   0.055  53.155  1.00  0.00     0.150 C 
BRANCH  20  21
HETATM   21  C11 UNL     1      20.785  -0.101  52.900  1.00  0.00     0.014 C 
HETATM   22  C12 UNL     1      19.962   0.115  51.904  1.00  0.00     0.038 C 
HETATM   23 CL1  UNL     1      20.259   0.739  50.310  1.00  0.00    -0.087 Cl
BRANCH  22  24
HETATM   24  C13 UNL     1      18.521  -0.186  52.053  1.00  0.00     0.273 C 
HETATM   25  F2  UNL     1      18.402  -1.300  52.882  1.00  0.00    -0.250 F 
ENDBRANCH  22  24
ENDBRANCH  20  21
ENDBRANCH  18  20
ENDBRANCH  12  18
BRANCH  14  26
HETATM   26  C16 UNL     1      27.576   1.553  52.851  1.00  0.00     0.203 C 
BRANCH  26  27
HETATM   27  O1  UNL     1      27.174   1.402  54.162  1.00  0.00    -0.393 OA
HETATM   28  C17 UNL     1      27.837   0.323  54.712  1.00  0.00     0.201 C 
ENDBRANCH  26  27
ENDBRANCH  14  26
ENDBRANCH   3   4
TORSDOF 7
ENDMDL
MODEL 7
REMARK VINA RESULT:      -6.6      3.400      5.326
REMARK  7 active torsions:
REMARK  status: ('A' for Active; 'I' for Inactive)
REMARK    1  A    between atoms: C3_3  and  C4_4 
REMARK    2  A    between atoms: C9_12  and  N3_13 
REMARK    3  A    between atoms: N3_13  and  C10_14 
REMARK    4  A    between atoms: C10_14  and  C11_15 
REMARK    5  A    between atoms: C12_16  and  C13_18 
REMARK    6  A    between atoms: C15_21  and  C16_22 
REMARK    7  A    between atoms: C16_22  and  O1_23 
ROOT
HETATM    1  C1  UNL     1      17.572   3.781  48.120  1.00  0.00     0.112 C 
HETATM    2  C2  UNL     1      18.701   3.416  48.941  1.00  0.00    -0.108 C 
HETATM    3  C3  UNL     1      19.660   3.086  49.655  1.00  0.00    -0.063 C 
ENDROOT
BRANCH   3   4
HETATM    4  C4  UNL     1      20.815   2.699  50.482  1.00  0.00     0.167 A 
HETATM    5  C5  UNL     1      22.108   2.843  50.346  1.00  0.00     0.155 A 
HETATM    6  F1  UNL     1      21.415   3.355  49.332  1.00  0.00    -0.365 F 
HETATM    7  C6  UNL     1      22.899   3.502  49.263  1.00  0.00     0.139 C 
HETATM    8  C7  UNL     1      23.612   4.609  49.590  1.00  0.00     0.069 C 
HETATM    9  N1  UNL     1      23.897   4.558  50.848  1.00  0.00    -0.274 NA
HETATM   10  C8  UNL     1      24.241   3.210  51.286  1.00  0.00     0.229 C 
HETATM   11  N2  UNL     1      24.382   2.792  52.523  1.00  0.00    -0.226 NA
HETATM   12  C9  UNL     1      24.722   1.445  52.809  1.00  0.00     0.123 C 
HETATM   13  C14 UNL     1      24.155   0.318  53.160  1.00  0.00     0.057 C 
HETATM   14  C15 UNL     1      22.719   0.163  53.388  1.00  0.00     0.171 C 
HETATM   15  O2  UNL     1      22.026   0.608  52.238  1.00  0.00    -0.380 OA
HETATM   16  C18 UNL     1      21.158   1.567  52.712  1.00  0.00     0.173 C 
HETATM   17  C19 UNL     1      20.256   2.055  51.643  1.00  0.00     0.083 C 
BRANCH  12  18
HETATM   18  N3  UNL     1      26.131   1.576  52.591  1.00  0.00    -0.371 N 
HETATM   19  H6  UNL     1      26.137   1.472  51.545  1.00  0.00     0.161 HD
BRANCH  18  20
HETATM   20  C10 UNL     1      27.095   1.788  53.681  1.00  0.00     0.150 C 
BRANCH  20  21
HETATM   21  C11 UNL     1      28.158   0.754  53.670  1.00  0.00     0.014 C 
HETATM   22  C12 UNL     1      28.252  -0.517  53.360  1.00  0.00     0.038 C 
HETATM   23 CL1  UNL     1      27.049  -1.626  52.775  1.00  0.00    -0.087 Cl
BRANCH  22  24
HETATM   24  C13 UNL     1      29.546  -1.219  53.491  1.00  0.00     0.273 C 
HETATM   25  F2  UNL     1      30.560  -0.267  53.396  1.00  0.00    -0.250 F 
ENDBRANCH  22  24
ENDBRANCH  20  21
ENDBRANCH  18  20
ENDBRANCH  12  18
BRANCH  14  26
HETATM   26  C16 UNL     1      22.329  -1.275  53.677  1.00  0.00     0.203 C 
BRANCH  26  27
HETATM   27  O1  UNL     1      21.413  -1.333  54.706  1.00  0.00    -0.393 OA
HETATM   28  C17 UNL     1      20.169  -1.623  54.182  1.00  0.00     0.201 C 
ENDBRANCH  26  27
ENDBRANCH  14  26
ENDBRANCH   3   4
TORSDOF 7
ENDMDL
MODEL 8
REMARK VINA RESULT:      -6.6      3.917      6.737
REMARK  7 active torsions:
REMARK  status: ('A' for Active; 'I' for Inactive)
REMARK    1  A    between atoms: C3_3  and  C4_4 
REMARK    2  A    between atoms: C9_12  and  N3_13 
REMARK    3  A    between atoms: N3_13  and  C10_14 
REMARK    4  A    between atoms: C10_14  and  C11_15 
REMARK    5  A    between atoms: C12_16  and  C13_18 
REMARK    6  A    between atoms: C15_21  and  C16_22 
REMARK    7  A    between atoms: C16_22  and  O1_23 
ROOT
HETATM    1  C1  UNL     1      19.668   9.600  49.284  1.00  0.00     0.112 C 
HETATM    2  C2  UNL     1      20.651   8.557  49.448  1.00  0.00    -0.108 C 
HETATM    3  C3  UNL     1      21.481   7.645  49.593  1.00  0.00    -0.063 C 
ENDROOT
BRANCH   3   4
HETATM    4  C4  UNL     1      22.479   6.575  49.744  1.00  0.00     0.167 A 
HETATM    5  C5  UNL     1      22.707   5.680  50.672  1.00  0.00     0.155 A 
HETATM    6  F1  UNL     1      21.674   6.473  50.950  1.00  0.00    -0.365 F 
HETATM    7  C6  UNL     1      21.982   5.407  51.950  1.00  0.00     0.139 C 
HETATM    8  C7  UNL     1      21.349   4.213  52.071  1.00  0.00     0.069 C 
HETATM    9  N1  UNL     1      21.938   3.356  51.305  1.00  0.00    -0.274 NA
HETATM   10  C8  UNL     1      23.388   3.513  51.308  1.00  0.00     0.229 C 
HETATM   11  N2  UNL     1      24.247   2.941  50.496  1.00  0.00    -0.226 NA
HETATM   12  C9  UNL     1      25.640   3.181  50.611  1.00  0.00     0.123 C 
HETATM   13  C14 UNL     1      26.580   3.916  50.072  1.00  0.00     0.057 C 
HETATM   14  C15 UNL     1      26.353   4.865  48.983  1.00  0.00     0.171 C 
HETATM   15  O2  UNL     1      25.329   5.762  49.370  1.00  0.00    -0.380 OA
HETATM   16  C18 UNL     1      24.388   5.659  48.370  1.00  0.00     0.173 C 
HETATM   17  C19 UNL     1      23.291   6.637  48.557  1.00  0.00     0.083 C 
BRANCH  12  18
HETATM   18  N3  UNL     1      25.885   2.257  51.676  1.00  0.00    -0.371 N 
HETATM   19  H6  UNL     1      25.725   2.907  52.486  1.00  0.00     0.161 HD
BRANCH  18  20
HETATM   20  C10 UNL     1      26.245   0.849  51.450  1.00  0.00     0.150 C 
BRANCH  20  21
HETATM   21  C11 UNL     1      27.174   0.355  52.496  1.00  0.00     0.014 C 
HETATM   22  C12 UNL     1      28.091   0.869  53.278  1.00  0.00     0.038 C 
HETATM   23 CL1  UNL     1      28.658   2.505  53.429  1.00  0.00    -0.087 Cl
BRANCH  22  24
HETATM   24  C13 UNL     1      28.827   0.005  54.227  1.00  0.00     0.273 C 
HETATM   25  F2  UNL     1      28.905   0.679  55.445  1.00  0.00    -0.250 F 
ENDBRANCH  22  24
ENDBRANCH  20  21
ENDBRANCH  18  20
ENDBRANCH  12  18
BRANCH  14  26
HETATM   26  C16 UNL     1      27.599   5.656  48.631  1.00  0.00     0.203 C 
BRANCH  26  27
HETATM   27  O1  UNL     1      28.686   4.817  48.503  1.00  0.00    -0.393 OA
HETATM   28  C17 UNL     1      29.773   5.556  48.079  1.00  0.00     0.201 C 
ENDBRANCH  26  27
ENDBRANCH  14  26
ENDBRANCH   3   4
TORSDOF 7
ENDMDL
MODEL 9
REMARK VINA RESULT:      -6.4      3.804      5.996
REMARK  7 active torsions:
REMARK  status: ('A' for Active; 'I' for Inactive)
REMARK    1  A    between atoms: C3_3  and  C4_4 
REMARK    2  A    between atoms: C9_12  and  N3_13 
REMARK    3  A    between atoms: N3_13  and  C10_14 
REMARK    4  A    between atoms: C10_14  and  C11_15 
REMARK    5  A    between atoms: C12_16  and  C13_18 
REMARK    6  A    between atoms: C15_21  and  C16_22 
REMARK    7  A    between atoms: C16_22  and  O1_23 
ROOT
HETATM    1  C1  UNL     1      15.757   3.900  51.682  1.00  0.00     0.112 C 
HETATM    2  C2  UNL     1      17.177   3.666  51.589  1.00  0.00    -0.108 C 
HETATM    3  C3  UNL     1      18.396   3.444  51.513  1.00  0.00    -0.063 C 
ENDROOT
BRANCH   3   4
HETATM    4  C4  UNL     1      19.842   3.198  51.403  1.00  0.00     0.167 A 
HETATM    5  C5  UNL     1      20.682   2.447  52.069  1.00  0.00     0.155 A 
HETATM    6  F1  UNL     1      19.432   2.365  52.521  1.00  0.00    -0.365 F 
HETATM    7  C6  UNL     1      20.447   1.516  53.214  1.00  0.00     0.139 C 
HETATM    8  C7  UNL     1      20.665   0.193  53.004  1.00  0.00     0.069 C 
HETATM    9  N1  UNL     1      21.531   0.065  52.054  1.00  0.00    -0.274 NA
HETATM   10  C8  UNL     1      22.592   1.064  52.131  1.00  0.00     0.229 C 
HETATM   11  N2  UNL     1      23.498   1.327  51.218  1.00  0.00    -0.226 NA
HETATM   12  C9  UNL     1      24.480   2.330  51.424  1.00  0.00     0.123 C 
HETATM   13  C14 UNL     1      24.718   3.580  51.117  1.00  0.00     0.057 C 
HETATM   14  C15 UNL     1      23.823   4.409  50.310  1.00  0.00     0.171 C 
HETATM   15  O2  UNL     1      22.535   4.388  50.895  1.00  0.00    -0.380 OA
HETATM   16  C18 UNL     1      21.706   3.960  49.881  1.00  0.00     0.173 C 
HETATM   17  C19 UNL     1      20.284   4.000  50.291  1.00  0.00     0.083 C 
BRANCH  12  18
HETATM   18  N3  UNL     1      25.370   1.537  52.216  1.00  0.00    -0.371 N 
HETATM   19  H6  UNL     1      25.356   0.661  51.635  1.00  0.00     0.161 HD
BRANCH  18  20
HETATM   20  C10 UNL     1      25.999   2.028  53.451  1.00  0.00     0.150 C 
BRANCH  20  21
HETATM   21  C11 UNL     1      27.158   1.187  53.838  1.00  0.00     0.014 C 
HETATM   22  C12 UNL     1      27.571  -0.035  53.604  1.00  0.00     0.038 C 
HETATM   23 CL1  UNL     1      26.862  -1.303  52.651  1.00  0.00    -0.087 Cl
BRANCH  22  24
HETATM   24  C13 UNL     1      28.836  -0.517  54.200  1.00  0.00     0.273 C 
HETATM   25  F2  UNL     1      29.871  -0.193  53.323  1.00  0.00    -0.250 F 
ENDBRANCH  22  24
ENDBRANCH  20  21
ENDBRANCH  18  20
ENDBRANCH  12  18
BRANCH  14  26
HETATM   26  C16 UNL     1      24.298   5.846  50.206  1.00  0.00     0.203 C 
BRANCH  26  27
HETATM   27  O1  UNL     1      23.858   6.582  51.287  1.00  0.00    -0.393 OA
HETATM   28  C17 UNL     1      23.340   7.778  50.833  1.00  0.00     0.201 C 
ENDBRANCH  26  27
ENDBRANCH  14  26
ENDBRANCH   3   4
TORSDOF 7
ENDMDL
