MODEL 1
REMARK VINA RESULT:      -7.9      0.000      0.000
REMARK  3 active torsions:
REMARK  status: ('A' for Active; 'I' for Inactive)
REMARK    1  A    between atoms: N1_1  and  C1_2 
REMARK    2  A    between atoms: C2_3  and  C3_4 
REMARK    3  A    between atoms: C16_22  and  O1_23 
ROOT
HETATM    1  C3  UNL     1      22.765   2.335  49.306  1.00  0.00    -0.049 C 
HETATM    2  C4  UNL     1      21.705   1.609  49.018  1.00  0.00     0.077 C 
HETATM    3  S1  UNL     1      20.017   2.152  49.071  1.00  0.00     0.001 SA
HETATM    4  N2  UNL     1      19.542   2.342  50.753  1.00  0.00    -0.205 NA
HETATM    5  C5  UNL     1      19.771   1.392  51.580  1.00  0.00     0.243 C 
HETATM    6  N3  UNL     1      19.839   0.629  52.748  1.00  0.00    -0.237 NA
HETATM    7  C6  UNL     1      20.432   0.932  53.847  1.00  0.00     0.204 C 
HETATM    8  N4  UNL     1      20.022  -0.317  54.440  1.00  0.00    -0.381 N 
HETATM    9  C7  UNL     1      20.965  -1.380  54.179  1.00  0.00     0.149 C 
HETATM   10  C8  UNL     1      22.257  -1.244  54.870  1.00  0.00     0.016 C 
HETATM   11  C9  UNL     1      23.501  -1.115  54.455  1.00  0.00     0.031 C 
HETATM   12 CL1  UNL     1      24.844  -0.981  55.599  1.00  0.00    -0.085 Cl
HETATM   13  C10 UNL     1      24.502  -0.952  53.428  1.00  0.00     0.019 C 
HETATM   14  C11 UNL     1      25.571  -0.815  52.718  1.00  0.00    -0.025 C 
HETATM   15  C12 UNL     1      26.964  -0.776  53.188  1.00  0.00     0.033 C 
HETATM   16  C13 UNL     1      27.718   0.451  52.893  1.00  0.00     0.002 C 
HETATM   17  C14 UNL     1      26.927   1.351  52.239  1.00  0.00     0.023 C 
HETATM   18  C15 UNL     1      27.149   2.733  51.701  1.00  0.00     0.011 C 
HETATM   19  C16 UNL     1      25.972   3.111  51.163  1.00  0.00     0.040 C 
HETATM   20  C17 UNL     1      24.576   2.684  50.913  1.00  0.00     0.068 C 
HETATM   21  C18 UNL     1      24.201   2.677  49.450  1.00  0.00     0.045 C 
HETATM   22  H8  UNL     1      19.130  -0.434  55.000  1.00  0.00     0.160 HD
ENDROOT
BRANCH   1  23
HETATM   23  C2  UNL     1      21.897   3.496  49.599  1.00  0.00     0.024 C 
HETATM   24  C1  UNL     1      22.224   4.771  49.437  1.00  0.00     0.081 C 
BRANCH  24  25
HETATM   25  N1  UNL     1      21.759   6.099  49.576  1.00  0.00    -0.408 N 
HETATM   26  H1  UNL     1      22.314   6.981  49.745  1.00  0.00     0.155 HD
HETATM   27  H2  UNL     1      20.771   6.459  49.529  1.00  0.00     0.155 HD
ENDBRANCH  24  25
ENDBRANCH   1  23
BRANCH  19  28
HETATM   28  O1  UNL     1      25.891   4.393  50.571  1.00  0.00    -0.365 OA
HETATM   29  H19 UNL     1      26.752   4.861  50.245  1.00  0.00     0.217 HD
ENDBRANCH  19  28
TORSDOF 3
ENDMDL
MODEL 2
REMARK VINA RESULT:      -7.6      4.050      7.516
REMARK  3 active torsions:
REMARK  status: ('A' for Active; 'I' for Inactive)
REMARK    1  A    between atoms: N1_1  and  C1_2 
REMARK    2  A    between atoms: C2_3  and  C3_4 
REMARK    3  A    between atoms: C16_22  and  O1_23 
ROOT
HETATM    1  C3  UNL     1      23.800  -0.645  52.985  1.00  0.00    -0.049 C 
HETATM    2  C4  UNL     1      24.813  -0.094  52.351  1.00  0.00     0.077 C 
HETATM    3  S1  UNL     1      26.194   0.730  53.101  1.00  0.00     0.001 SA
HETATM    4  N2  UNL     1      25.645   2.269  53.749  1.00  0.00    -0.205 NA
HETATM    5  C5  UNL     1      24.957   3.053  53.006  1.00  0.00     0.243 C 
HETATM    6  N3  UNL     1      24.218   4.145  52.545  1.00  0.00    -0.237 NA
HETATM    7  C6  UNL     1      23.120   4.605  53.027  1.00  0.00     0.204 C 
HETATM    8  N4  UNL     1      23.082   5.637  52.020  1.00  0.00    -0.381 N 
HETATM    9  C7  UNL     1      22.416   5.199  50.816  1.00  0.00     0.149 C 
HETATM   10  C8  UNL     1      20.965   4.997  50.950  1.00  0.00     0.016 C 
HETATM   11  C9  UNL     1      20.176   3.950  50.816  1.00  0.00     0.031 C 
HETATM   12 CL1  UNL     1      18.427   4.078  51.052  1.00  0.00    -0.085 Cl
HETATM   13  C10 UNL     1      19.934   2.543  50.599  1.00  0.00     0.019 C 
HETATM   14  C11 UNL     1      19.457   1.357  50.424  1.00  0.00    -0.025 C 
HETATM   15  C12 UNL     1      18.043   0.951  50.399  1.00  0.00     0.033 C 
HETATM   16  C13 UNL     1      17.628  -0.028  51.413  1.00  0.00     0.002 C 
HETATM   17  C14 UNL     1      18.679  -0.353  52.221  1.00  0.00     0.023 C 
HETATM   18  C15 UNL     1      18.845  -1.274  53.393  1.00  0.00     0.011 C 
HETATM   19  C16 UNL     1      20.131  -1.154  53.775  1.00  0.00     0.040 C 
HETATM   20  C17 UNL     1      21.411  -0.468  53.481  1.00  0.00     0.068 C 
HETATM   21  C18 UNL     1      22.545  -1.415  53.168  1.00  0.00     0.045 C 
HETATM   22  H8  UNL     1      23.498   6.602  52.156  1.00  0.00     0.160 HD
ENDROOT
BRANCH   1  23
HETATM   23  C2  UNL     1      24.389  -0.251  54.284  1.00  0.00     0.024 C 
HETATM   24  C1  UNL     1      24.618  -1.057  55.311  1.00  0.00     0.081 C 
BRANCH  24  25
HETATM   25  N1  UNL     1      25.118  -1.115  56.631  1.00  0.00    -0.408 N 
HETATM   26  H1  UNL     1      26.108  -0.979  56.973  1.00  0.00     0.155 HD
HETATM   27  H2  UNL     1      24.594  -1.299  57.526  1.00  0.00     0.155 HD
ENDBRANCH  24  25
ENDBRANCH   1  23
BRANCH  19  28
HETATM   28  O1  UNL     1      20.574  -1.924  54.876  1.00  0.00    -0.365 OA
HETATM   29  H19 UNL     1      21.106  -2.793  54.711  1.00  0.00     0.217 HD
ENDBRANCH  19  28
TORSDOF 3
ENDMDL
MODEL 3
REMARK VINA RESULT:      -7.3      1.878      2.508
REMARK  3 active torsions:
REMARK  status: ('A' for Active; 'I' for Inactive)
REMARK    1  A    between atoms: N1_1  and  C1_2 
REMARK    2  A    between atoms: C2_3  and  C3_4 
REMARK    3  A    between atoms: C16_22  and  O1_23 
ROOT
HETATM    1  C3  UNL     1      22.928   2.857  48.513  1.00  0.00    -0.049 C 
HETATM    2  C4  UNL     1      22.015   2.318  47.734  1.00  0.00     0.077 C 
HETATM    3  S1  UNL     1      20.627   3.155  47.012  1.00  0.00     0.001 SA
HETATM    4  N2  UNL     1      19.464   3.511  48.281  1.00  0.00    -0.205 NA
HETATM    5  C5  UNL     1      19.105   2.577  49.081  1.00  0.00     0.243 C 
HETATM    6  N3  UNL     1      18.480   1.873  50.114  1.00  0.00    -0.237 NA
HETATM    7  C6  UNL     1      18.534   2.121  51.373  1.00  0.00     0.204 C 
HETATM    8  N4  UNL     1      17.677   0.996  51.655  1.00  0.00    -0.381 N 
HETATM    9  C7  UNL     1      18.423  -0.230  51.824  1.00  0.00     0.149 C 
HETATM   10  C8  UNL     1      19.243  -0.291  53.044  1.00  0.00     0.016 C 
HETATM   11  C9  UNL     1      20.537  -0.407  53.265  1.00  0.00     0.031 C 
HETATM   12 CL1  UNL     1      21.189  -0.457  54.909  1.00  0.00    -0.085 Cl
HETATM   13  C10 UNL     1      21.913  -0.476  52.834  1.00  0.00     0.019 C 
HETATM   14  C11 UNL     1      23.195  -0.567  52.713  1.00  0.00    -0.025 C 
HETATM   15  C12 UNL     1      24.188  -0.753  53.782  1.00  0.00     0.033 C 
HETATM   16  C13 UNL     1      25.199   0.304  53.923  1.00  0.00     0.002 C 
HETATM   17  C14 UNL     1      24.983   1.297  53.011  1.00  0.00     0.023 C 
HETATM   18  C15 UNL     1      25.675   2.589  52.696  1.00  0.00     0.011 C 
HETATM   19  C16 UNL     1      24.977   3.142  51.685  1.00  0.00     0.040 C 
HETATM   20  C17 UNL     1      23.808   2.959  50.793  1.00  0.00     0.068 C 
HETATM   21  C18 UNL     1      24.166   2.945  49.326  1.00  0.00     0.045 C 
HETATM   22  H8  UNL     1      16.622   1.068  51.727  1.00  0.00     0.160 HD
ENDROOT
BRANCH   1  23
HETATM   23  C2  UNL     1      22.250   4.168  48.412  1.00  0.00     0.024 C 
HETATM   24  C1  UNL     1      22.842   5.354  48.439  1.00  0.00     0.081 C 
BRANCH  24  25
HETATM   25  N1  UNL     1      22.616   6.748  48.383  1.00  0.00    -0.408 N 
HETATM   26  H1  UNL     1      21.923   7.330  48.927  1.00  0.00     0.155 HD
HETATM   27  H2  UNL     1      23.102   7.471  47.791  1.00  0.00     0.155 HD
ENDBRANCH  24  25
ENDBRANCH   1  23
BRANCH  19  28
HETATM   28  O1  UNL     1      25.415   4.387  51.176  1.00  0.00    -0.365 OA
HETATM   29  H19 UNL     1      24.935   4.803  50.362  1.00  0.00     0.217 HD
ENDBRANCH  19  28
TORSDOF 3
ENDMDL
MODEL 4
REMARK VINA RESULT:      -7.1      1.690      2.225
REMARK  3 active torsions:
REMARK  status: ('A' for Active; 'I' for Inactive)
REMARK    1  A    between atoms: N1_1  and  C1_2 
REMARK    2  A    between atoms: C2_3  and  C3_4 
REMARK    3  A    between atoms: C16_22  and  O1_23 
ROOT
HETATM    1  C3  UNL     1      20.742   2.344  49.403  1.00  0.00    -0.049 C 
HETATM    2  C4  UNL     1      20.021   1.243  49.394  1.00  0.00     0.077 C 
HETATM    3  S1  UNL     1      18.357   1.075  49.987  1.00  0.00     0.001 SA
HETATM    4  N2  UNL     1      18.378   1.155  51.743  1.00  0.00    -0.205 NA
HETATM    5  C5  UNL     1      19.201   0.422  52.394  1.00  0.00     0.243 C 
HETATM    6  N3  UNL     1      19.913  -0.185  53.432  1.00  0.00    -0.237 NA
HETATM    7  C6  UNL     1      20.640   0.389  54.322  1.00  0.00     0.204 C 
HETATM    8  N4  UNL     1      20.955  -0.885  54.920  1.00  0.00    -0.381 N 
HETATM    9  C7  UNL     1      22.114  -1.500  54.315  1.00  0.00     0.149 C 
HETATM   10  C8  UNL     1      23.390  -0.824  54.596  1.00  0.00     0.016 C 
HETATM   11  C9  UNL     1      24.295  -0.237  53.839  1.00  0.00     0.031 C 
HETATM   12 CL1  UNL     1      25.753   0.483  54.535  1.00  0.00    -0.085 Cl
HETATM   13  C10 UNL     1      24.789   0.252  52.573  1.00  0.00     0.019 C 
HETATM   14  C11 UNL     1      25.449   0.761  51.588  1.00  0.00    -0.025 C 
HETATM   15  C12 UNL     1      26.785   1.375  51.622  1.00  0.00     0.033 C 
HETATM   16  C13 UNL     1      26.867   2.782  51.203  1.00  0.00     0.002 C 
HETATM   17  C14 UNL     1      25.628   3.256  50.881  1.00  0.00     0.023 C 
HETATM   18  C15 UNL     1      25.114   4.581  50.400  1.00  0.00     0.011 C 
HETATM   19  C16 UNL     1      23.782   4.430  50.266  1.00  0.00     0.040 C 
HETATM   20  C17 UNL     1      22.662   3.472  50.415  1.00  0.00     0.068 C 
HETATM   21  C18 UNL     1      21.897   3.234  49.135  1.00  0.00     0.045 C 
HETATM   22  H8  UNL     1      20.396  -1.313  55.712  1.00  0.00     0.160 HD
ENDROOT
BRANCH   1  23
HETATM   23  C2  UNL     1      19.620   3.081  50.023  1.00  0.00     0.024 C 
HETATM   24  C1  UNL     1      19.203   4.293  49.684  1.00  0.00     0.081 C 
BRANCH  24  25
HETATM   25  N1  UNL     1      18.258   5.302  49.975  1.00  0.00    -0.408 N 
HETATM   26  H1  UNL     1      17.205   5.262  49.911  1.00  0.00     0.155 HD
HETATM   27  H2  UNL     1      18.426   6.284  50.316  1.00  0.00     0.155 HD
ENDBRANCH  24  25
ENDBRANCH   1  23
BRANCH  19  28
HETATM   28  O1  UNL     1      23.028   5.540  49.818  1.00  0.00    -0.365 OA
HETATM   29  H19 UNL     1      22.052   5.656  50.134  1.00  0.00     0.217 HD
ENDBRANCH  19  28
TORSDOF 3
ENDMDL
MODEL 5
REMARK VINA RESULT:      -7.1      3.543      5.596
REMARK  3 active torsions:
REMARK  status: ('A' for Active; 'I' for Inactive)
REMARK    1  A    between atoms: N1_1  and  C1_2 
REMARK    2  A    between atoms: C2_3  and  C3_4 
REMARK    3  A    between atoms: C16_22  and  O1_23 
ROOT
HETATM    1  C3  UNL     1      17.478   1.194  50.356  1.00  0.00    -0.049 C 
HETATM    2  C4  UNL     1      17.474  -0.113  50.513  1.00  0.00     0.077 C 
HETATM    3  S1  UNL     1      16.651  -1.009  51.805  1.00  0.00     0.001 SA
HETATM    4  N2  UNL     1      17.515  -0.739  53.312  1.00  0.00    -0.205 NA
HETATM    5  C5  UNL     1      18.785  -0.899  53.344  1.00  0.00     0.243 C 
HETATM    6  N3  UNL     1      20.110  -0.963  53.782  1.00  0.00    -0.237 NA
HETATM    7  C6  UNL     1      20.813  -0.013  54.287  1.00  0.00     0.204 C 
HETATM    8  N4  UNL     1      21.945  -0.896  54.429  1.00  0.00    -0.381 N 
HETATM    9  C7  UNL     1      22.767  -0.925  53.242  1.00  0.00     0.149 C 
HETATM   10  C8  UNL     1      23.511   0.315  52.974  1.00  0.00     0.016 C 
HETATM   11  C9  UNL     1      23.504   1.185  51.983  1.00  0.00     0.031 C 
HETATM   12 CL1  UNL     1      24.569   2.598  51.990  1.00  0.00    -0.085 Cl
HETATM   13  C10 UNL     1      22.992   1.713  50.741  1.00  0.00     0.019 C 
HETATM   14  C11 UNL     1      22.729   2.370  49.662  1.00  0.00    -0.025 C 
HETATM   15  C12 UNL     1      23.421   3.560  49.143  1.00  0.00     0.033 C 
HETATM   16  C13 UNL     1      22.604   4.771  48.982  1.00  0.00     0.002 C 
HETATM   17  C14 UNL     1      21.322   4.539  49.391  1.00  0.00     0.023 C 
HETATM   18  C15 UNL     1      20.082   5.380  49.455  1.00  0.00     0.011 C 
HETATM   19  C16 UNL     1      19.124   4.582  49.965  1.00  0.00     0.040 C 
HETATM   20  C17 UNL     1      18.843   3.221  50.477  1.00  0.00     0.068 C 
HETATM   21  C18 UNL     1      17.757   2.502  49.713  1.00  0.00     0.045 C 
HETATM   22  H8  UNL     1      22.143  -1.454  55.308  1.00  0.00     0.160 HD
ENDROOT
BRANCH   1  23
HETATM   23  C2  UNL     1      16.633   1.349  51.559  1.00  0.00     0.024 C 
HETATM   24  C1  UNL     1      15.754   2.318  51.773  1.00  0.00     0.081 C 
BRANCH  24  25
HETATM   25  N1  UNL     1      14.810   2.825  52.694  1.00  0.00    -0.408 N 
HETATM   26  H1  UNL     1      14.871   2.874  53.747  1.00  0.00     0.155 HD
HETATM   27  H2  UNL     1      13.868   3.257  52.502  1.00  0.00     0.155 HD
ENDBRANCH  24  25
ENDBRANCH   1  23
BRANCH  19  28
HETATM   28  O1  UNL     1      17.828   5.124  50.137  1.00  0.00    -0.365 OA
HETATM   29  H19 UNL     1      17.504   5.882  49.516  1.00  0.00     0.217 HD
ENDBRANCH  19  28
TORSDOF 3
ENDMDL
MODEL 6
REMARK VINA RESULT:      -7.1      3.516      5.789
REMARK  3 active torsions:
REMARK  status: ('A' for Active; 'I' for Inactive)
REMARK    1  A    between atoms: N1_1  and  C1_2 
REMARK    2  A    between atoms: C2_3  and  C3_4 
REMARK    3  A    between atoms: C16_22  and  O1_23 
ROOT
HETATM    1  C3  UNL     1      20.349   5.115  50.179  1.00  0.00    -0.049 C 
HETATM    2  C4  UNL     1      21.154   5.993  50.740  1.00  0.00     0.077 C 
HETATM    3  S1  UNL     1      22.418   6.929  49.918  1.00  0.00     0.001 SA
HETATM    4  N2  UNL     1      23.739   5.845  49.506  1.00  0.00    -0.205 NA
HETATM    5  C5  UNL     1      24.217   5.069  50.406  1.00  0.00     0.243 C 
HETATM    6  N3  UNL     1      24.988   4.108  51.066  1.00  0.00    -0.237 NA
HETATM    7  C6  UNL     1      25.103   2.863  50.772  1.00  0.00     0.204 C 
HETATM    8  N4  UNL     1      26.006   2.662  51.878  1.00  0.00    -0.381 N 
HETATM    9  C7  UNL     1      25.307   2.348  53.103  1.00  0.00     0.149 C 
HETATM   10  C8  UNL     1      24.663   1.026  53.126  1.00  0.00     0.016 C 
HETATM   11  C9  UNL     1      23.413   0.624  53.245  1.00  0.00     0.031 C 
HETATM   12 CL1  UNL     1      22.994  -1.095  53.239  1.00  0.00    -0.085 Cl
HETATM   13  C10 UNL     1      21.992   0.859  53.341  1.00  0.00     0.019 C 
HETATM   14  C11 UNL     1      20.707   0.799  53.447  1.00  0.00    -0.025 C 
HETATM   15  C12 UNL     1      19.873  -0.403  53.601  1.00  0.00     0.033 C 
HETATM   16  C13 UNL     1      18.877  -0.644  52.548  1.00  0.00     0.002 C 
HETATM   17  C14 UNL     1      18.953   0.324  51.588  1.00  0.00     0.023 C 
HETATM   18  C15 UNL     1      18.206   0.587  50.315  1.00  0.00     0.011 C 
HETATM   19  C16 UNL     1      18.751   1.703  49.794  1.00  0.00     0.040 C 
HETATM   20  C17 UNL     1      19.789   2.740  50.000  1.00  0.00     0.068 C 
HETATM   21  C18 UNL     1      19.233   4.143  50.072  1.00  0.00     0.045 C 
HETATM   22  H8  UNL     1      27.060   2.738  51.795  1.00  0.00     0.160 HD
ENDROOT
BRANCH   1  23
HETATM   23  C2  UNL     1      20.989   5.355  48.868  1.00  0.00     0.024 C 
HETATM   24  C1  UNL     1      20.392   5.282  47.686  1.00  0.00     0.081 C 
BRANCH  24  25
HETATM   25  N1  UNL     1      20.590   5.416  46.293  1.00  0.00    -0.408 N 
HETATM   26  H1  UNL     1      20.919   4.694  45.598  1.00  0.00     0.155 HD
HETATM   27  H2  UNL     1      20.439   6.262  45.685  1.00  0.00     0.155 HD
ENDBRANCH  24  25
ENDBRANCH   1  23
BRANCH  19  28
HETATM   28  O1  UNL     1      18.231   2.192  48.572  1.00  0.00    -0.365 OA
HETATM   29  H19 UNL     1      17.266   1.950  48.295  1.00  0.00     0.217 HD
ENDBRANCH  19  28
TORSDOF 3
ENDMDL
MODEL 7
REMARK VINA RESULT:      -6.9      2.093      3.238
REMARK  3 active torsions:
REMARK  status: ('A' for Active; 'I' for Inactive)
REMARK    1  A    between atoms: N1_1  and  C1_2 
REMARK    2  A    between atoms: C2_3  and  C3_4 
REMARK    3  A    between atoms: C16_22  and  O1_23 
ROOT
HETATM    1  C3  UNL     1      25.085   3.461  49.344  1.00  0.00    -0.049 C 
HETATM    2  C4  UNL     1      24.065   3.532  48.514  1.00  0.00     0.077 C 
HETATM    3  S1  UNL     1      23.184   5.004  48.061  1.00  0.00     0.001 SA
HETATM    4  N2  UNL     1      22.220   5.526  49.435  1.00  0.00    -0.205 NA
HETATM    5  C5  UNL     1      21.470   4.677  50.033  1.00  0.00     0.243 C 
HETATM    6  N3  UNL     1      20.564   4.091  50.921  1.00  0.00    -0.237 NA
HETATM    7  C6  UNL     1      20.661   4.015  52.200  1.00  0.00     0.204 C 
HETATM    8  N4  UNL     1      19.402   3.315  52.276  1.00  0.00    -0.381 N 
HETATM    9  C7  UNL     1      19.563   1.886  52.140  1.00  0.00     0.149 C 
HETATM   10  C8  UNL     1      20.229   1.227  53.275  1.00  0.00     0.016 C 
HETATM   11  C9  UNL     1      21.347   0.540  53.400  1.00  0.00     0.031 C 
HETATM   12 CL1  UNL     1      21.846  -0.131  54.959  1.00  0.00    -0.085 Cl
HETATM   13  C10 UNL     1      22.587   0.001  52.894  1.00  0.00     0.019 C 
HETATM   14  C11 UNL     1      23.719  -0.585  52.691  1.00  0.00    -0.025 C 
HETATM   15  C12 UNL     1      24.497  -1.392  53.643  1.00  0.00     0.033 C 
HETATM   16  C13 UNL     1      25.848  -0.908  53.956  1.00  0.00     0.002 C 
HETATM   17  C14 UNL     1      26.105   0.256  53.291  1.00  0.00     0.023 C 
HETATM   18  C15 UNL     1      27.285   1.179  53.226  1.00  0.00     0.011 C 
HETATM   19  C16 UNL     1      26.925   2.176  52.394  1.00  0.00     0.040 C 
HETATM   20  C17 UNL     1      25.826   2.692  51.545  1.00  0.00     0.068 C 
HETATM   21  C18 UNL     1      26.210   2.849  50.093  1.00  0.00     0.045 C 
HETATM   22  H8  UNL     1      18.471   3.801  52.417  1.00  0.00     0.160 HD
ENDROOT
BRANCH   1  23
HETATM   23  C2  UNL     1      25.018   4.923  49.562  1.00  0.00     0.024 C 
HETATM   24  C1  UNL     1      26.055   5.734  49.715  1.00  0.00     0.081 C 
BRANCH  24  25
HETATM   25  N1  UNL     1      26.436   7.078  49.931  1.00  0.00    -0.408 N 
HETATM   26  H1  UNL     1      27.174   7.646  49.434  1.00  0.00     0.155 HD
HETATM   27  H2  UNL     1      26.049   7.769  50.625  1.00  0.00     0.155 HD
ENDBRANCH  24  25
ENDBRANCH   1  23
BRANCH  19  28
HETATM   28  O1  UNL     1      27.863   3.205  52.142  1.00  0.00    -0.365 OA
HETATM   29  H19 UNL     1      27.636   3.948  51.462  1.00  0.00     0.217 HD
ENDBRANCH  19  28
TORSDOF 3
ENDMDL
MODEL 8
REMARK VINA RESULT:      -6.8      3.113      3.986
REMARK  3 active torsions:
REMARK  status: ('A' for Active; 'I' for Inactive)
REMARK    1  A    between atoms: N1_1  and  C1_2 
REMARK    2  A    between atoms: C2_3  and  C3_4 
REMARK    3  A    between atoms: C16_22  and  O1_23 
ROOT
HETATM    1  C3  UNL     1      20.449   4.826  48.759  1.00  0.00    -0.049 C 
HETATM    2  C4  UNL     1      19.647   4.244  47.892  1.00  0.00     0.077 C 
HETATM    3  S1  UNL     1      17.997   4.753  47.486  1.00  0.00     0.001 SA
HETATM    4  N2  UNL     1      16.945   4.383  48.844  1.00  0.00    -0.205 NA
HETATM    5  C5  UNL     1      16.978   3.211  49.361  1.00  0.00     0.243 C 
HETATM    6  N3  UNL     1      16.719   2.105  50.174  1.00  0.00    -0.237 NA
HETATM    7  C6  UNL     1      16.851   2.025  51.450  1.00  0.00     0.204 C 
HETATM    8  N4  UNL     1      16.405   0.654  51.433  1.00  0.00    -0.381 N 
HETATM    9  C7  UNL     1      17.495  -0.271  51.224  1.00  0.00     0.149 C 
HETATM   10  C8  UNL     1      18.439  -0.380  52.346  1.00  0.00     0.016 C 
HETATM   11  C9  UNL     1      19.726  -0.132  52.480  1.00  0.00     0.031 C 
HETATM   12 CL1  UNL     1      20.560  -0.393  54.019  1.00  0.00    -0.085 Cl
HETATM   13  C10 UNL     1      20.998   0.352  51.998  1.00  0.00     0.019 C 
HETATM   14  C11 UNL     1      22.225   0.707  51.811  1.00  0.00    -0.025 C 
HETATM   15  C12 UNL     1      23.351   0.578  52.748  1.00  0.00     0.033 C 
HETATM   16  C13 UNL     1      24.015   1.828  53.146  1.00  0.00     0.002 C 
HETATM   17  C14 UNL     1      23.405   2.900  52.559  1.00  0.00     0.023 C 
HETATM   18  C15 UNL     1      23.642   4.380  52.596  1.00  0.00     0.011 C 
HETATM   19  C16 UNL     1      22.693   4.923  51.808  1.00  0.00     0.040 C 
HETATM   20  C17 UNL     1      21.531   4.613  50.943  1.00  0.00     0.068 C 
HETATM   21  C18 UNL     1      21.695   5.091  49.519  1.00  0.00     0.045 C 
HETATM   22  H8  UNL     1      15.393   0.366  51.561  1.00  0.00     0.160 HD
ENDROOT
BRANCH   1  23
HETATM   23  C2  UNL     1      19.407   5.834  49.056  1.00  0.00     0.024 C 
HETATM   24  C1  UNL     1      19.617   7.117  49.312  1.00  0.00     0.081 C 
BRANCH  24  25
HETATM   25  N1  UNL     1      18.983   8.341  49.625  1.00  0.00    -0.408 N 
HETATM   26  H1  UNL     1      17.961   8.595  49.554  1.00  0.00     0.155 HD
HETATM   27  H2  UNL     1      19.411   9.229  49.994  1.00  0.00     0.155 HD
ENDBRANCH  24  25
ENDBRANCH   1  23
BRANCH  19  28
HETATM   28  O1  UNL     1      22.678   6.329  51.655  1.00  0.00    -0.365 OA
HETATM   29  H19 UNL     1      22.268   6.746  50.804  1.00  0.00     0.217 HD
ENDBRANCH  19  28
TORSDOF 3
ENDMDL
MODEL 9
REMARK VINA RESULT:      -6.7      3.663      6.157
REMARK  3 active torsions:
REMARK  status: ('A' for Active; 'I' for Inactive)
REMARK    1  A    between atoms: N1_1  and  C1_2 
REMARK    2  A    between atoms: C2_3  and  C3_4 
REMARK    3  A    between atoms: C16_22  and  O1_23 
ROOT
HETATM    1  C3  UNL     1      18.751   4.149  49.537  1.00  0.00    -0.049 C 
HETATM    2  C4  UNL     1      19.415   5.283  49.621  1.00  0.00     0.077 C 
HETATM    3  S1  UNL     1      20.172   6.156  48.275  1.00  0.00     0.001 SA
HETATM    4  N2  UNL     1      21.590   5.259  47.751  1.00  0.00    -0.205 NA
HETATM    5  C5  UNL     1      22.446   4.876  48.623  1.00  0.00     0.243 C 
HETATM    6  N3  UNL     1      23.568   4.303  49.228  1.00  0.00    -0.237 NA
HETATM    7  C6  UNL     1      23.923   3.069  49.204  1.00  0.00     0.204 C 
HETATM    8  N4  UNL     1      25.081   3.363  50.012  1.00  0.00    -0.381 N 
HETATM    9  C7  UNL     1      24.791   3.292  51.426  1.00  0.00     0.149 C 
HETATM   10  C8  UNL     1      24.528   1.938  51.937  1.00  0.00     0.016 C 
HETATM   11  C9  UNL     1      23.485   1.367  52.505  1.00  0.00     0.031 C 
HETATM   12 CL1  UNL     1      23.525  -0.327  53.014  1.00  0.00    -0.085 Cl
HETATM   13  C10 UNL     1      22.114   1.357  52.958  1.00  0.00     0.019 C 
HETATM   14  C11 UNL     1      20.948   1.097  53.447  1.00  0.00    -0.025 C 
HETATM   15  C12 UNL     1      20.506  -0.140  54.109  1.00  0.00     0.033 C 
HETATM   16  C13 UNL     1      19.386  -0.852  53.478  1.00  0.00     0.002 C 
HETATM   17  C14 UNL     1      18.986  -0.204  52.344  1.00  0.00     0.023 C 
HETATM   18  C15 UNL     1      17.920  -0.460  51.321  1.00  0.00     0.011 C 
HETATM   19  C16 UNL     1      18.027   0.540  50.423  1.00  0.00     0.040 C 
HETATM   20  C17 UNL     1      18.786   1.763  50.075  1.00  0.00     0.068 C 
HETATM   21  C18 UNL     1      17.926   3.001  49.985  1.00  0.00     0.045 C 
HETATM   22  H8  UNL     1      26.031   3.602  49.608  1.00  0.00     0.160 HD
ENDROOT
BRANCH   1  23
HETATM   23  C2  UNL     1      18.984   4.114  48.076  1.00  0.00     0.024 C 
HETATM   24  C1  UNL     1      18.411   3.282  47.218  1.00  0.00     0.081 C 
BRANCH  24  25
HETATM   25  N1  UNL     1      18.337   2.914  45.855  1.00  0.00    -0.408 N 
HETATM   26  H1  UNL     1      18.897   3.281  45.038  1.00  0.00     0.155 HD
HETATM   27  H2  UNL     1      17.714   2.199  45.399  1.00  0.00     0.155 HD
ENDBRANCH  24  25
ENDBRANCH   1  23
BRANCH  19  28
HETATM   28  O1  UNL     1      17.128   0.552  49.331  1.00  0.00    -0.365 OA
HETATM   29  H19 UNL     1      16.186   0.144  49.439  1.00  0.00     0.217 HD
ENDBRANCH  19  28
TORSDOF 3
ENDMDL
