MODEL 1
REMARK VINA RESULT:      -6.8      0.000      0.000
REMARK  8 active torsions:
REMARK  status: ('A' for Active; 'I' for Inactive)
REMARK    1  A    between atoms: C2_2  and  C3_3 
REMARK    2  A    between atoms: C2_2  and  C16_17 
REMARK    3  A    between atoms: C3_3  and  C4_4 
REMARK    4  A    between atoms: C4_4  and  O1_5 
REMARK    5  A    between atoms: C5_6  and  C6_7 
REMARK    6  A    between atoms: C6_7  and  C8_9 
REMARK    7  A    between atoms: C8_9  and  C9_10 
REMARK    8  A    between atoms: C16_17  and  N1_18 
ROOT
HETATM    1  C4  UNL     1      26.193   1.883  51.593  1.00  0.00     0.043 C 
HETATM    2  C5  UNL     1      25.170   2.600  51.223  1.00  0.00     0.010 C 
ENDROOT
BRANCH   2   3
HETATM    3  C6  UNL     1      24.788   4.006  50.949  1.00  0.00     0.010 C 
HETATM    4  C7  UNL     1      23.399   4.231  51.502  1.00  0.00     0.014 C 
BRANCH   3   5
HETATM    5  C8  UNL     1      24.826   4.202  49.446  1.00  0.00     0.047 C 
BRANCH   5   6
HETATM    6  C9  UNL     1      25.990   4.988  48.986  1.00  0.00    -0.052 A 
HETATM    7  C10 UNL     1      27.293   4.492  48.889  1.00  0.00     0.007 A 
HETATM    8  C11 UNL     1      28.329   5.277  48.454  1.00  0.00     0.001 A 
HETATM    9  C12 UNL     1      28.102   6.577  48.103  1.00  0.00     0.001 A 
HETATM   10  C13 UNL     1      26.814   7.112  48.185  1.00  0.00     0.007 A 
HETATM   11  C14 UNL     1      25.779   6.287  48.633  1.00  0.00    -0.056 A 
HETATM   12  C15 UNL     1      24.474   7.003  48.665  1.00  0.00     0.049 C 
ENDBRANCH   5   6
ENDBRANCH   3   5
ENDBRANCH   2   3
BRANCH   1  13
HETATM   13  C3  UNL     1      26.628   0.486  51.881  1.00  0.00     0.098 C 
BRANCH  13  14
HETATM   14  C2  UNL     1      26.394   0.141  53.306  1.00  0.00    -0.066 C 
HETATM   15  C1  UNL     1      25.124  -0.189  53.608  1.00  0.00     0.016 C 
BRANCH  14  16
HETATM   16  C16 UNL     1      27.398   0.137  54.398  1.00  0.00     0.149 C 
BRANCH  16  17
HETATM   17  N1  UNL     1      28.745   0.349  53.953  1.00  0.00    -0.417 N 
HETATM   18  C17 UNL     1      29.371   1.522  54.461  1.00  0.00     0.142 C 
HETATM   19  C18 UNL     1      29.578  -0.793  53.875  1.00  0.00     0.142 C 
ENDBRANCH  16  17
ENDBRANCH  14  16
ENDBRANCH  13  14
ENDBRANCH   1  13
BRANCH   1  20
HETATM   20  O1  UNL     1      27.386   2.595  51.836  1.00  0.00    -0.365 OA
HETATM   21  H5  UNL     1      28.197   2.055  52.170  1.00  0.00     0.217 HD
ENDBRANCH   1  20
TORSDOF 8
ENDMDL
MODEL 2
REMARK VINA RESULT:      -6.6      1.078      1.966
REMARK  8 active torsions:
REMARK  status: ('A' for Active; 'I' for Inactive)
REMARK    1  A    between atoms: C2_2  and  C3_3 
REMARK    2  A    between atoms: C2_2  and  C16_17 
REMARK    3  A    between atoms: C3_3  and  C4_4 
REMARK    4  A    between atoms: C4_4  and  O1_5 
REMARK    5  A    between atoms: C5_6  and  C6_7 
REMARK    6  A    between atoms: C6_7  and  C8_9 
REMARK    7  A    between atoms: C8_9  and  C9_10 
REMARK    8  A    between atoms: C16_17  and  N1_18 
ROOT
HETATM    1  C4  UNL     1      24.838   2.075  53.013  1.00  0.00     0.043 C 
HETATM    2  C5  UNL     1      24.171   2.753  52.123  1.00  0.00     0.010 C 
ENDROOT
BRANCH   2   3
HETATM    3  C6  UNL     1      24.027   4.129  51.593  1.00  0.00     0.010 C 
HETATM    4  C7  UNL     1      22.704   4.681  52.072  1.00  0.00     0.014 C 
BRANCH   3   5
HETATM    5  C8  UNL     1      24.078   4.042  50.081  1.00  0.00     0.047 C 
BRANCH   5   6
HETATM    6  C9  UNL     1      25.185   4.819  49.484  1.00  0.00    -0.052 A 
HETATM    7  C10 UNL     1      25.096   6.162  49.106  1.00  0.00     0.007 A 
HETATM    8  C11 UNL     1      26.162   6.824  48.557  1.00  0.00     0.001 A 
HETATM    9  C12 UNL     1      27.349   6.174  48.368  1.00  0.00     0.001 A 
HETATM   10  C13 UNL     1      27.479   4.832  48.733  1.00  0.00     0.007 A 
HETATM   11  C14 UNL     1      26.374   4.184  49.289  1.00  0.00    -0.056 A 
HETATM   12  C15 UNL     1      26.674   2.763  49.621  1.00  0.00     0.049 C 
ENDBRANCH   5   6
ENDBRANCH   3   5
ENDBRANCH   2   3
BRANCH   1  13
HETATM   13  C3  UNL     1      25.020   0.707  53.581  1.00  0.00     0.098 C 
BRANCH  13  14
HETATM   14  C2  UNL     1      26.363   0.170  53.249  1.00  0.00    -0.066 C 
HETATM   15  C1  UNL     1      26.567  -0.079  51.941  1.00  0.00     0.016 C 
BRANCH  14  16
HETATM   16  C16 UNL     1      27.465  -0.120  54.197  1.00  0.00     0.149 C 
BRANCH  16  17
HETATM   17  N1  UNL     1      28.754   0.315  53.744  1.00  0.00    -0.417 N 
HETATM   18  C17 UNL     1      29.151   1.605  54.197  1.00  0.00     0.142 C 
HETATM   19  C18 UNL     1      29.784  -0.657  53.719  1.00  0.00     0.142 C 
ENDBRANCH  16  17
ENDBRANCH  14  16
ENDBRANCH  13  14
ENDBRANCH   1  13
BRANCH   1  20
HETATM   20  O1  UNL     1      25.761   2.813  53.781  1.00  0.00    -0.365 OA
HETATM   21  H5  UNL     1      26.760   2.594  53.658  1.00  0.00     0.217 HD
ENDBRANCH   1  20
TORSDOF 8
ENDMDL
MODEL 3
REMARK VINA RESULT:      -6.6      4.026      6.929
REMARK  8 active torsions:
REMARK  status: ('A' for Active; 'I' for Inactive)
REMARK    1  A    between atoms: C2_2  and  C3_3 
REMARK    2  A    between atoms: C2_2  and  C16_17 
REMARK    3  A    between atoms: C3_3  and  C4_4 
REMARK    4  A    between atoms: C4_4  and  O1_5 
REMARK    5  A    between atoms: C5_6  and  C6_7 
REMARK    6  A    between atoms: C6_7  and  C8_9 
REMARK    7  A    between atoms: C8_9  and  C9_10 
REMARK    8  A    between atoms: C16_17  and  N1_18 
ROOT
HETATM    1  C4  UNL     1      22.487  -0.189  53.778  1.00  0.00     0.043 C 
HETATM    2  C5  UNL     1      23.737  -0.082  53.429  1.00  0.00     0.010 C 
ENDROOT
BRANCH   2   3
HETATM    3  C6  UNL     1      25.056  -0.720  53.657  1.00  0.00     0.010 C 
HETATM    4  C7  UNL     1      25.478  -0.430  55.079  1.00  0.00     0.014 C 
BRANCH   3   5
HETATM    5  C8  UNL     1      26.027  -0.125  52.657  1.00  0.00     0.047 C 
BRANCH   5   6
HETATM    6  C9  UNL     1      27.444  -0.376  52.994  1.00  0.00    -0.052 A 
HETATM    7  C10 UNL     1      28.045  -1.637  53.000  1.00  0.00     0.007 A 
HETATM    8  C11 UNL     1      29.367  -1.800  53.323  1.00  0.00     0.001 A 
HETATM    9  C12 UNL     1      30.131  -0.716  53.648  1.00  0.00     0.001 A 
HETATM   10  C13 UNL     1      29.569   0.563  53.653  1.00  0.00     0.007 A 
HETATM   11  C14 UNL     1      28.218   0.696  53.321  1.00  0.00    -0.056 A 
HETATM   12  C15 UNL     1      27.772   2.116  53.374  1.00  0.00     0.049 C 
ENDBRANCH   5   6
ENDBRANCH   3   5
ENDBRANCH   2   3
BRANCH   1  13
HETATM   13  C3  UNL     1      21.138   0.417  53.582  1.00  0.00     0.098 C 
BRANCH  13  14
HETATM   14  C2  UNL     1      21.082   1.189  52.316  1.00  0.00    -0.066 C 
HETATM   15  C1  UNL     1      20.809   0.458  51.218  1.00  0.00     0.016 C 
BRANCH  14  16
HETATM   16  C16 UNL     1      21.303   2.646  52.151  1.00  0.00     0.149 C 
BRANCH  16  17
HETATM   17  N1  UNL     1      22.559   2.981  51.546  1.00  0.00    -0.417 N 
HETATM   18  C17 UNL     1      22.466   3.662  50.299  1.00  0.00     0.142 C 
HETATM   19  C18 UNL     1      23.580   3.445  52.410  1.00  0.00     0.142 C 
ENDBRANCH  16  17
ENDBRANCH  14  16
ENDBRANCH  13  14
ENDBRANCH   1  13
BRANCH   1  20
HETATM   20  O1  UNL     1      22.187  -1.237  54.672  1.00  0.00    -0.365 OA
HETATM   21  H5  UNL     1      21.378  -1.833  54.446  1.00  0.00     0.217 HD
ENDBRANCH   1  20
TORSDOF 8
ENDMDL
MODEL 4
REMARK VINA RESULT:      -6.6      1.586      2.542
REMARK  8 active torsions:
REMARK  status: ('A' for Active; 'I' for Inactive)
REMARK    1  A    between atoms: C2_2  and  C3_3 
REMARK    2  A    between atoms: C2_2  and  C16_17 
REMARK    3  A    between atoms: C3_3  and  C4_4 
REMARK    4  A    between atoms: C4_4  and  O1_5 
REMARK    5  A    between atoms: C5_6  and  C6_7 
REMARK    6  A    between atoms: C6_7  and  C8_9 
REMARK    7  A    between atoms: C8_9  and  C9_10 
REMARK    8  A    between atoms: C16_17  and  N1_18 
ROOT
HETATM    1  C4  UNL     1      26.347   2.084  51.706  1.00  0.00     0.043 C 
HETATM    2  C5  UNL     1      25.314   2.742  51.264  1.00  0.00     0.010 C 
ENDROOT
BRANCH   2   3
HETATM    3  C6  UNL     1      24.899   4.111  50.877  1.00  0.00     0.010 C 
HETATM    4  C7  UNL     1      23.478   4.323  51.347  1.00  0.00     0.014 C 
BRANCH   3   5
HETATM    5  C8  UNL     1      25.007   4.209  49.369  1.00  0.00     0.047 C 
BRANCH   5   6
HETATM    6  C9  UNL     1      26.146   5.033  48.913  1.00  0.00    -0.052 A 
HETATM    7  C10 UNL     1      27.463   4.576  48.811  1.00  0.00     0.007 A 
HETATM    8  C11 UNL     1      28.474   5.394  48.380  1.00  0.00     0.001 A 
HETATM    9  C12 UNL     1      28.209   6.689  48.038  1.00  0.00     0.001 A 
HETATM   10  C13 UNL     1      26.906   7.185  48.125  1.00  0.00     0.007 A 
HETATM   11  C14 UNL     1      25.896   6.327  48.568  1.00  0.00    -0.056 A 
HETATM   12  C15 UNL     1      24.570   7.004  48.606  1.00  0.00     0.049 C 
ENDBRANCH   5   6
ENDBRANCH   3   5
ENDBRANCH   2   3
BRANCH   1  13
HETATM   13  C3  UNL     1      26.813   0.724  52.108  1.00  0.00     0.098 C 
BRANCH  13  14
HETATM   14  C2  UNL     1      26.011   0.203  53.242  1.00  0.00    -0.066 C 
HETATM   15  C1  UNL     1      26.433   0.591  54.461  1.00  0.00     0.016 C 
BRANCH  14  16
HETATM   16  C16 UNL     1      24.828  -0.688  53.162  1.00  0.00     0.149 C 
BRANCH  16  17
HETATM   17  N1  UNL     1      23.652  -0.153  53.783  1.00  0.00    -0.417 N 
HETATM   18  C17 UNL     1      22.855   0.683  52.950  1.00  0.00     0.142 C 
HETATM   19  C18 UNL     1      22.926  -1.023  54.632  1.00  0.00     0.142 C 
ENDBRANCH  16  17
ENDBRANCH  14  16
ENDBRANCH  13  14
ENDBRANCH   1  13
BRANCH   1  20
HETATM   20  O1  UNL     1      27.515   2.845  51.917  1.00  0.00    -0.365 OA
HETATM   21  H5  UNL     1      27.395   3.802  52.279  1.00  0.00     0.217 HD
ENDBRANCH   1  20
TORSDOF 8
ENDMDL
MODEL 5
REMARK VINA RESULT:      -6.5      2.780      7.098
REMARK  8 active torsions:
REMARK  status: ('A' for Active; 'I' for Inactive)
REMARK    1  A    between atoms: C2_2  and  C3_3 
REMARK    2  A    between atoms: C2_2  and  C16_17 
REMARK    3  A    between atoms: C3_3  and  C4_4 
REMARK    4  A    between atoms: C4_4  and  O1_5 
REMARK    5  A    between atoms: C5_6  and  C6_7 
REMARK    6  A    between atoms: C6_7  and  C8_9 
REMARK    7  A    between atoms: C8_9  and  C9_10 
REMARK    8  A    between atoms: C16_17  and  N1_18 
ROOT
HETATM    1  C4  UNL     1      26.604   2.362  50.938  1.00  0.00     0.043 C 
HETATM    2  C5  UNL     1      26.330   1.219  51.498  1.00  0.00     0.010 C 
ENDROOT
BRANCH   2   3
HETATM    3  C6  UNL     1      26.657   0.418  52.701  1.00  0.00     0.010 C 
HETATM    4  C7  UNL     1      26.574  -1.045  52.328  1.00  0.00     0.014 C 
BRANCH   3   5
HETATM    5  C8  UNL     1      25.647   0.776  53.773  1.00  0.00     0.047 C 
BRANCH   5   6
HETATM    6  C9  UNL     1      24.266   0.370  53.438  1.00  0.00    -0.052 A 
HETATM    7  C10 UNL     1      23.517   0.902  52.385  1.00  0.00     0.007 A 
HETATM    8  C11 UNL     1      22.239   0.480  52.129  1.00  0.00     0.001 A 
HETATM    9  C12 UNL     1      21.666  -0.482  52.911  1.00  0.00     0.001 A 
HETATM   10  C13 UNL     1      22.380  -1.040  53.974  1.00  0.00     0.007 A 
HETATM   11  C14 UNL     1      23.681  -0.588  54.210  1.00  0.00    -0.056 A 
HETATM   12  C15 UNL     1      24.304  -1.277  55.374  1.00  0.00     0.049 C 
ENDBRANCH   5   6
ENDBRANCH   3   5
ENDBRANCH   2   3
BRANCH   1  13
HETATM   13  C3  UNL     1      26.308   3.207  49.744  1.00  0.00     0.098 C 
BRANCH  13  14
HETATM   14  C2  UNL     1      24.955   3.808  49.842  1.00  0.00    -0.066 C 
HETATM   15  C1  UNL     1      23.983   3.121  49.210  1.00  0.00     0.016 C 
BRANCH  14  16
HETATM   16  C16 UNL     1      24.584   5.061  50.543  1.00  0.00     0.149 C 
BRANCH  16  17
HETATM   17  N1  UNL     1      23.380   4.963  51.315  1.00  0.00    -0.417 N 
HETATM   18  C17 UNL     1      23.564   4.590  52.676  1.00  0.00     0.142 C 
HETATM   19  C18 UNL     1      22.396   5.957  51.091  1.00  0.00     0.142 C 
ENDBRANCH  16  17
ENDBRANCH  14  16
ENDBRANCH  13  14
ENDBRANCH   1  13
BRANCH   1  20
HETATM   20  O1  UNL     1      27.507   3.188  51.638  1.00  0.00    -0.365 OA
HETATM   21  H5  UNL     1      27.951   3.955  51.112  1.00  0.00     0.217 HD
ENDBRANCH   1  20
TORSDOF 8
ENDMDL
MODEL 6
REMARK VINA RESULT:      -6.3      3.086      7.343
REMARK  8 active torsions:
REMARK  status: ('A' for Active; 'I' for Inactive)
REMARK    1  A    between atoms: C2_2  and  C3_3 
REMARK    2  A    between atoms: C2_2  and  C16_17 
REMARK    3  A    between atoms: C3_3  and  C4_4 
REMARK    4  A    between atoms: C4_4  and  O1_5 
REMARK    5  A    between atoms: C5_6  and  C6_7 
REMARK    6  A    between atoms: C6_7  and  C8_9 
REMARK    7  A    between atoms: C8_9  and  C9_10 
REMARK    8  A    between atoms: C16_17  and  N1_18 
ROOT
HETATM    1  C4  UNL     1      23.787   4.719  51.968  1.00  0.00     0.043 C 
HETATM    2  C5  UNL     1      23.905   3.423  52.013  1.00  0.00     0.010 C 
ENDROOT
BRANCH   2   3
HETATM    3  C6  UNL     1      24.067   2.313  52.983  1.00  0.00     0.010 C 
HETATM    4  C7  UNL     1      25.507   2.296  53.442  1.00  0.00     0.014 C 
BRANCH   3   5
HETATM    5  C8  UNL     1      23.696   1.029  52.270  1.00  0.00     0.047 C 
BRANCH   5   6
HETATM    6  C9  UNL     1      22.811   0.151  53.064  1.00  0.00    -0.052 A 
HETATM    7  C10 UNL     1      23.231  -0.632  54.143  1.00  0.00     0.007 A 
HETATM    8  C11 UNL     1      22.356  -1.425  54.838  1.00  0.00     0.001 A 
HETATM    9  C12 UNL     1      21.038  -1.465  54.482  1.00  0.00     0.001 A 
HETATM   10  C13 UNL     1      20.577  -0.698  53.410  1.00  0.00     0.007 A 
HETATM   11  C14 UNL     1      21.493   0.101  52.721  1.00  0.00    -0.056 A 
HETATM   12  C15 UNL     1      20.847   0.852  51.610  1.00  0.00     0.049 C 
ENDBRANCH   5   6
ENDBRANCH   3   5
ENDBRANCH   2   3
BRANCH   1  13
HETATM   13  C3  UNL     1      23.624   5.870  51.033  1.00  0.00     0.098 C 
BRANCH  13  14
HETATM   14  C2  UNL     1      24.453   5.685  49.816  1.00  0.00    -0.066 C 
HETATM   15  C1  UNL     1      23.782   5.238  48.736  1.00  0.00     0.016 C 
BRANCH  14  16
HETATM   16  C16 UNL     1      25.909   5.930  49.683  1.00  0.00     0.149 C 
BRANCH  16  17
HETATM   17  N1  UNL     1      26.632   4.843  49.089  1.00  0.00    -0.417 N 
HETATM   18  C17 UNL     1      27.869   5.202  48.481  1.00  0.00     0.142 C 
HETATM   19  C18 UNL     1      26.643   3.618  49.799  1.00  0.00     0.142 C 
ENDBRANCH  16  17
ENDBRANCH  14  16
ENDBRANCH  13  14
ENDBRANCH   1  13
BRANCH   1  20
HETATM   20  O1  UNL     1      23.806   5.380  53.213  1.00  0.00    -0.365 OA
HETATM   21  H5  UNL     1      24.514   6.118  53.344  1.00  0.00     0.217 HD
ENDBRANCH   1  20
TORSDOF 8
ENDMDL
MODEL 7
REMARK VINA RESULT:      -6.3      2.744      5.998
REMARK  8 active torsions:
REMARK  status: ('A' for Active; 'I' for Inactive)
REMARK    1  A    between atoms: C2_2  and  C3_3 
REMARK    2  A    between atoms: C2_2  and  C16_17 
REMARK    3  A    between atoms: C3_3  and  C4_4 
REMARK    4  A    between atoms: C4_4  and  O1_5 
REMARK    5  A    between atoms: C5_6  and  C6_7 
REMARK    6  A    between atoms: C6_7  and  C8_9 
REMARK    7  A    between atoms: C8_9  and  C9_10 
REMARK    8  A    between atoms: C16_17  and  N1_18 
ROOT
HETATM    1  C4  UNL     1      23.662   2.570  52.085  1.00  0.00     0.043 C 
HETATM    2  C5  UNL     1      24.568   2.640  51.153  1.00  0.00     0.010 C 
ENDROOT
BRANCH   2   3
HETATM    3  C6  UNL     1      26.036   2.749  50.979  1.00  0.00     0.010 C 
HETATM    4  C7  UNL     1      26.307   3.284  49.592  1.00  0.00     0.014 C 
BRANCH   3   5
HETATM    5  C8  UNL     1      26.619   1.361  51.162  1.00  0.00     0.047 C 
BRANCH   5   6
HETATM    6  C9  UNL     1      27.434   1.223  52.388  1.00  0.00    -0.052 A 
HETATM    7  C10 UNL     1      28.159   2.262  52.978  1.00  0.00     0.007 A 
HETATM    8  C11 UNL     1      28.895   2.066  54.116  1.00  0.00     0.001 A 
HETATM    9  C12 UNL     1      28.935   0.833  54.702  1.00  0.00     0.001 A 
HETATM   10  C13 UNL     1      28.224  -0.233  54.144  1.00  0.00     0.007 A 
HETATM   11  C14 UNL     1      27.482  -0.001  52.983  1.00  0.00    -0.056 A 
HETATM   12  C15 UNL     1      26.787  -1.232  52.515  1.00  0.00     0.049 C 
ENDBRANCH   5   6
ENDBRANCH   3   5
ENDBRANCH   2   3
BRANCH   1  13
HETATM   13  C3  UNL     1      22.192   2.462  52.313  1.00  0.00     0.098 C 
BRANCH  13  14
HETATM   14  C2  UNL     1      21.702   1.101  51.980  1.00  0.00    -0.066 C 
HETATM   15  C1  UNL     1      20.593   1.070  51.215  1.00  0.00     0.016 C 
BRANCH  14  16
HETATM   16  C16 UNL     1      22.295  -0.189  52.405  1.00  0.00     0.149 C 
BRANCH  16  17
HETATM   17  N1  UNL     1      22.333  -0.373  53.827  1.00  0.00    -0.417 N 
HETATM   18  C17 UNL     1      21.189  -1.013  54.383  1.00  0.00     0.142 C 
HETATM   19  C18 UNL     1      23.573  -0.763  54.387  1.00  0.00     0.142 C 
ENDBRANCH  16  17
ENDBRANCH  14  16
ENDBRANCH  13  14
ENDBRANCH   1  13
BRANCH   1  20
HETATM   20  O1  UNL     1      24.142   2.597  53.411  1.00  0.00    -0.365 OA
HETATM   21  H5  UNL     1      24.834   3.322  53.647  1.00  0.00     0.217 HD
ENDBRANCH   1  20
TORSDOF 8
ENDMDL
MODEL 8
REMARK VINA RESULT:      -6.3      2.551      7.016
REMARK  8 active torsions:
REMARK  status: ('A' for Active; 'I' for Inactive)
REMARK    1  A    between atoms: C2_2  and  C3_3 
REMARK    2  A    between atoms: C2_2  and  C16_17 
REMARK    3  A    between atoms: C3_3  and  C4_4 
REMARK    4  A    between atoms: C4_4  and  O1_5 
REMARK    5  A    between atoms: C5_6  and  C6_7 
REMARK    6  A    between atoms: C6_7  and  C8_9 
REMARK    7  A    between atoms: C8_9  and  C9_10 
REMARK    8  A    between atoms: C16_17  and  N1_18 
ROOT
HETATM    1  C4  UNL     1      24.694   3.395  50.653  1.00  0.00     0.043 C 
HETATM    2  C5  UNL     1      24.796   2.146  51.008  1.00  0.00     0.010 C 
ENDROOT
BRANCH   2   3
HETATM    3  C6  UNL     1      24.827   1.291  52.218  1.00  0.00     0.010 C 
HETATM    4  C7  UNL     1      23.538   1.504  52.978  1.00  0.00     0.014 C 
BRANCH   3   5
HETATM    5  C8  UNL     1      26.031   1.709  53.039  1.00  0.00     0.047 C 
BRANCH   5   6
HETATM    6  C9  UNL     1      27.077   0.668  53.120  1.00  0.00    -0.052 A 
HETATM    7  C10 UNL     1      26.860  -0.693  52.890  1.00  0.00     0.007 A 
HETATM    8  C11 UNL     1      27.876  -1.607  52.982  1.00  0.00     0.001 A 
HETATM    9  C12 UNL     1      29.138  -1.198  53.306  1.00  0.00     0.001 A 
HETATM   10  C13 UNL     1      29.398   0.154  53.543  1.00  0.00     0.007 A 
HETATM   11  C14 UNL     1      28.341   1.062  53.442  1.00  0.00    -0.056 A 
HETATM   12  C15 UNL     1      28.779   2.457  53.725  1.00  0.00     0.049 C 
ENDBRANCH   5   6
ENDBRANCH   3   5
ENDBRANCH   2   3
BRANCH   1  13
HETATM   13  C3  UNL     1      24.658   4.298  49.466  1.00  0.00     0.098 C 
BRANCH  13  14
HETATM   14  C2  UNL     1      25.906   5.096  49.370  1.00  0.00    -0.066 C 
HETATM   15  C1  UNL     1      27.016   4.382  49.101  1.00  0.00     0.016 C 
BRANCH  14  16
HETATM   16  C16 UNL     1      26.042   6.562  49.545  1.00  0.00     0.149 C 
BRANCH  16  17
HETATM   17  N1  UNL     1      24.947   7.318  49.013  1.00  0.00    -0.417 N 
HETATM   18  C17 UNL     1      24.575   8.462  49.775  1.00  0.00     0.142 C 
HETATM   19  C18 UNL     1      24.916   7.495  47.608  1.00  0.00     0.142 C 
ENDBRANCH  16  17
ENDBRANCH  14  16
ENDBRANCH  13  14
ENDBRANCH   1  13
BRANCH   1  20
HETATM   20  O1  UNL     1      24.564   4.323  51.706  1.00  0.00    -0.365 OA
HETATM   21  H5  UNL     1      23.667   4.339  52.213  1.00  0.00     0.217 HD
ENDBRANCH   1  20
TORSDOF 8
ENDMDL
MODEL 9
REMARK VINA RESULT:      -6.3      5.175      7.651
REMARK  8 active torsions:
REMARK  status: ('A' for Active; 'I' for Inactive)
REMARK    1  A    between atoms: C2_2  and  C3_3 
REMARK    2  A    between atoms: C2_2  and  C16_17 
REMARK    3  A    between atoms: C3_3  and  C4_4 
REMARK    4  A    between atoms: C4_4  and  O1_5 
REMARK    5  A    between atoms: C5_6  and  C6_7 
REMARK    6  A    between atoms: C6_7  and  C8_9 
REMARK    7  A    between atoms: C8_9  and  C9_10 
REMARK    8  A    between atoms: C16_17  and  N1_18 
ROOT
HETATM    1  C4  UNL     1      22.381  -0.728  54.054  1.00  0.00     0.043 C 
HETATM    2  C5  UNL     1      23.594  -0.512  53.633  1.00  0.00     0.010 C 
ENDROOT
BRANCH   2   3
HETATM    3  C6  UNL     1      24.995  -0.920  53.898  1.00  0.00     0.010 C 
HETATM    4  C7  UNL     1      25.349  -0.500  55.305  1.00  0.00     0.014 C 
BRANCH   3   5
HETATM    5  C8  UNL     1      25.871  -0.226  52.874  1.00  0.00     0.047 C 
BRANCH   5   6
HETATM    6  C9  UNL     1      27.316  -0.438  53.098  1.00  0.00    -0.052 A 
HETATM    7  C10 UNL     1      27.952  -1.682  53.055  1.00  0.00     0.007 A 
HETATM    8  C11 UNL     1      29.298  -1.807  53.272  1.00  0.00     0.001 A 
HETATM    9  C12 UNL     1      30.055  -0.702  53.540  1.00  0.00     0.001 A 
HETATM   10  C13 UNL     1      29.459   0.560  53.591  1.00  0.00     0.007 A 
HETATM   11  C14 UNL     1      28.083   0.656  53.365  1.00  0.00    -0.056 A 
HETATM   12  C15 UNL     1      27.603   2.063  53.457  1.00  0.00     0.049 C 
ENDBRANCH   5   6
ENDBRANCH   3   5
ENDBRANCH   2   3
BRANCH   1  13
HETATM   13  C3  UNL     1      20.955  -0.349  53.828  1.00  0.00     0.098 C 
BRANCH  13  14
HETATM   14  C2  UNL     1      20.835   0.617  52.707  1.00  0.00    -0.066 C 
HETATM   15  C1  UNL     1      20.777   1.911  53.079  1.00  0.00     0.016 C 
BRANCH  14  16
HETATM   16  C16 UNL     1      20.765   0.300  51.261  1.00  0.00     0.149 C 
BRANCH  16  17
HETATM   17  N1  UNL     1      19.453   0.433  50.697  1.00  0.00    -0.417 N 
HETATM   18  C17 UNL     1      18.404  -0.143  51.467  1.00  0.00     0.142 C 
HETATM   19  C18 UNL     1      19.143   1.673  50.087  1.00  0.00     0.142 C 
ENDBRANCH  16  17
ENDBRANCH  14  16
ENDBRANCH  13  14
ENDBRANCH   1  13
BRANCH   1  20
HETATM   20  O1  UNL     1      22.253  -1.645  55.116  1.00  0.00    -0.365 OA
HETATM   21  H5  UNL     1      23.109  -2.125  55.431  1.00  0.00     0.217 HD
ENDBRANCH   1  20
TORSDOF 8
ENDMDL
