MODEL 1
REMARK VINA RESULT:      -7.5      0.000      0.000
REMARK  9 active torsions:
REMARK  status: ('A' for Active; 'I' for Inactive)
REMARK    1  A    between atoms: C1_2  and  C2_3 
REMARK    2  A    between atoms: C2_3  and  C3_4 
REMARK    3  A    between atoms: C3_4  and  C4_5 
REMARK    4  A    between atoms: C4_5  and  N1_13 
REMARK    5  A    between atoms: C5_6  and  C6_7 
REMARK    6  A    between atoms: C7_8  and  O1_9 
REMARK    7  A    between atoms: O1_9  and  C8_10 
REMARK    8  A    between atoms: N1_13  and  C9_14 
REMARK    9  A    between atoms: C12_18  and  C13_19 
ROOT
HETATM    1  N1  UNL     1      23.680   1.991  52.634  1.00  0.00    -0.192 N 
HETATM    2  H11 UNL     1      23.411   2.609  53.422  1.00  0.00     0.184 HD
ENDROOT
BRANCH   1   3
HETATM    3  C4  UNL     1      24.067   0.701  53.069  1.00  0.00     0.026 C 
HETATM    4  C5  UNL     1      25.358   0.473  52.926  1.00  0.00     0.027 C 
BRANCH   3   5
HETATM    5  C3  UNL     1      23.194  -0.345  53.632  1.00  0.00     0.060 C 
BRANCH   5   6
HETATM    6  C2  UNL     1      21.872  -0.497  52.933  1.00  0.00     0.037 C 
BRANCH   6   7
HETATM    7  C1  UNL     1      20.751  -0.857  53.878  1.00  0.00     0.222 C 
HETATM    8  F1  UNL     1      21.279  -1.449  55.011  1.00  0.00    -0.255 F 
ENDBRANCH   6   7
ENDBRANCH   5   6
ENDBRANCH   3   5
BRANCH   4   9
HETATM    9  C6  UNL     1      26.480  -0.443  53.085  1.00  0.00     0.026 C 
HETATM   10  C7  UNL     1      27.119  -1.571  52.848  1.00  0.00     0.141 C 
BRANCH  10  11
HETATM   11  O1  UNL     1      28.348  -1.759  53.465  1.00  0.00    -0.302 OA
BRANCH  11  12
HETATM   12  C8  UNL     1      29.237  -0.707  53.794  1.00  0.00     0.504 C 
HETATM   13  F2  UNL     1      28.932  -0.283  55.075  1.00  0.00    -0.184 F 
HETATM   14  F3  UNL     1      30.550  -1.129  53.729  1.00  0.00    -0.184 F 
ENDBRANCH  11  12
ENDBRANCH  10  11
ENDBRANCH   4   9
ENDBRANCH   1   3
BRANCH   1  15
HETATM   15  C9  UNL     1      23.652   2.418  51.280  1.00  0.00     0.727 A 
HETATM   16  N2  UNL     1      22.659   1.983  50.458  1.00  0.00    -0.075 NA
HETATM   17  C10 UNL     1      22.665   2.420  49.161  1.00  0.00     0.139 A 
HETATM   18  C11 UNL     1      23.685   3.270  48.796  1.00  0.00     0.053 A 
HETATM   19  C12 UNL     1      24.702   3.725  49.608  1.00  0.00     0.087 A 
HETATM   20  N4  UNL     1      24.624   3.245  50.881  1.00  0.00    -0.062 NA
BRANCH  19  21
HETATM   21  C13 UNL     1      25.752   4.623  49.165  1.00  0.00    -0.004 A 
HETATM   22  C14 UNL     1      27.064   4.265  49.005  1.00  0.00     0.033 A 
HETATM   23  C15 UNL     1      28.011   5.196  48.572  1.00  0.00     0.117 A 
HETATM   24  N3  UNL     1      27.635   6.458  48.309  1.00  0.00    -0.273 NA
HETATM   25  C16 UNL     1      26.350   6.818  48.463  1.00  0.00     0.117 A 
HETATM   26  C17 UNL     1      25.358   5.935  48.891  1.00  0.00     0.033 A 
ENDBRANCH  19  21
ENDBRANCH   1  15
TORSDOF 9
ENDMDL
MODEL 2
REMARK VINA RESULT:      -7.3      3.659      7.465
REMARK  9 active torsions:
REMARK  status: ('A' for Active; 'I' for Inactive)
REMARK    1  A    between atoms: C1_2  and  C2_3 
REMARK    2  A    between atoms: C2_3  and  C3_4 
REMARK    3  A    between atoms: C3_4  and  C4_5 
REMARK    4  A    between atoms: C4_5  and  N1_13 
REMARK    5  A    between atoms: C5_6  and  C6_7 
REMARK    6  A    between atoms: C7_8  and  O1_9 
REMARK    7  A    between atoms: O1_9  and  C8_10 
REMARK    8  A    between atoms: N1_13  and  C9_14 
REMARK    9  A    between atoms: C12_18  and  C13_19 
ROOT
HETATM    1  N1  UNL     1      26.334  -0.819  53.172  1.00  0.00    -0.192 N 
HETATM    2  H11 UNL     1      26.871  -1.651  52.865  1.00  0.00     0.184 HD
ENDROOT
BRANCH   1   3
HETATM    3  C4  UNL     1      26.967   0.395  52.812  1.00  0.00     0.026 C 
HETATM    4  C5  UNL     1      26.311   1.064  51.883  1.00  0.00     0.027 C 
BRANCH   3   5
HETATM    5  C3  UNL     1      28.224   0.936  53.357  1.00  0.00     0.060 C 
BRANCH   5   6
HETATM    6  C2  UNL     1      28.933   0.020  54.316  1.00  0.00     0.037 C 
BRANCH   6   7
HETATM    7  C1  UNL     1      29.991  -0.822  53.643  1.00  0.00     0.222 C 
HETATM    8  F1  UNL     1      29.390  -1.898  53.016  1.00  0.00    -0.255 F 
ENDBRANCH   6   7
ENDBRANCH   5   6
ENDBRANCH   3   5
BRANCH   4   9
HETATM    9  C6  UNL     1      26.229   2.242  51.030  1.00  0.00     0.026 C 
HETATM   10  C7  UNL     1      26.745   3.288  50.417  1.00  0.00     0.141 C 
BRANCH  10  11
HETATM   11  O1  UNL     1      25.895   4.076  49.655  1.00  0.00    -0.302 OA
BRANCH  11  12
HETATM   12  C8  UNL     1      26.267   5.316  49.081  1.00  0.00     0.504 C 
HETATM   13  F2  UNL     1      27.356   5.091  48.260  1.00  0.00    -0.184 F 
HETATM   14  F3  UNL     1      25.224   5.860  48.357  1.00  0.00    -0.184 F 
ENDBRANCH  11  12
ENDBRANCH  10  11
ENDBRANCH   4   9
ENDBRANCH   1   3
BRANCH   1  15
HETATM   15  C9  UNL     1      25.104  -0.917  53.876  1.00  0.00     0.727 A 
HETATM   16  N2  UNL     1      25.107  -1.277  55.188  1.00  0.00    -0.075 NA
HETATM   17  C10 UNL     1      23.902  -1.356  55.832  1.00  0.00     0.139 A 
HETATM   18  C11 UNL     1      22.780  -1.063  55.090  1.00  0.00     0.053 A 
HETATM   19  C12 UNL     1      22.749  -0.697  53.761  1.00  0.00     0.087 A 
HETATM   20  N4  UNL     1      23.987  -0.641  53.195  1.00  0.00    -0.062 NA
BRANCH  19  21
HETATM   21  C13 UNL     1      21.532  -0.400  53.031  1.00  0.00    -0.004 A 
HETATM   22  C14 UNL     1      21.491   0.174  51.788  1.00  0.00     0.033 A 
HETATM   23  C15 UNL     1      20.271   0.425  51.156  1.00  0.00     0.117 A 
HETATM   24  N3  UNL     1      19.122   0.102  51.770  1.00  0.00    -0.273 NA
HETATM   25  C16 UNL     1      19.151  -0.461  52.990  1.00  0.00     0.117 A 
HETATM   26  C17 UNL     1      20.337  -0.737  53.672  1.00  0.00     0.033 A 
ENDBRANCH  19  21
ENDBRANCH   1  15
TORSDOF 9
ENDMDL
MODEL 3
REMARK VINA RESULT:      -7.3      1.500      1.869
REMARK  9 active torsions:
REMARK  status: ('A' for Active; 'I' for Inactive)
REMARK    1  A    between atoms: C1_2  and  C2_3 
REMARK    2  A    between atoms: C2_3  and  C3_4 
REMARK    3  A    between atoms: C3_4  and  C4_5 
REMARK    4  A    between atoms: C4_5  and  N1_13 
REMARK    5  A    between atoms: C5_6  and  C6_7 
REMARK    6  A    between atoms: C7_8  and  O1_9 
REMARK    7  A    between atoms: O1_9  and  C8_10 
REMARK    8  A    between atoms: N1_13  and  C9_14 
REMARK    9  A    between atoms: C12_18  and  C13_19 
ROOT
HETATM    1  N1  UNL     1      23.961   3.497  52.404  1.00  0.00    -0.192 N 
HETATM    2  H11 UNL     1      23.817   4.061  53.262  1.00  0.00     0.184 HD
ENDROOT
BRANCH   1   3
HETATM    3  C4  UNL     1      24.210   2.133  52.691  1.00  0.00     0.026 C 
HETATM    4  C5  UNL     1      25.356   1.937  53.315  1.00  0.00     0.027 C 
BRANCH   3   5
HETATM    5  C3  UNL     1      23.345   0.985  52.365  1.00  0.00     0.060 C 
BRANCH   5   6
HETATM    6  C2  UNL     1      22.350   0.631  53.435  1.00  0.00     0.037 C 
BRANCH   6   7
HETATM    7  C1  UNL     1      22.504  -0.789  53.927  1.00  0.00     0.222 C 
HETATM    8  F1  UNL     1      23.593  -0.863  54.776  1.00  0.00    -0.255 F 
ENDBRANCH   6   7
ENDBRANCH   5   6
ENDBRANCH   3   5
BRANCH   4   9
HETATM    9  C6  UNL     1      26.294   0.999  53.918  1.00  0.00     0.026 C 
HETATM   10  C7  UNL     1      26.764   0.290  54.924  1.00  0.00     0.141 C 
BRANCH  10  11
HETATM   11  O1  UNL     1      27.881  -0.500  54.691  1.00  0.00    -0.302 OA
BRANCH  11  12
HETATM   12  C8  UNL     1      29.043  -0.048  54.019  1.00  0.00     0.504 C 
HETATM   13  F2  UNL     1      29.507   1.071  54.688  1.00  0.00    -0.184 F 
HETATM   14  F3  UNL     1      30.014  -1.029  53.994  1.00  0.00    -0.184 F 
ENDBRANCH  11  12
ENDBRANCH  10  11
ENDBRANCH   4   9
ENDBRANCH   1   3
BRANCH   1  15
HETATM   15  C9  UNL     1      23.908   4.057  51.100  1.00  0.00     0.727 A 
HETATM   16  N2  UNL     1      22.728   4.070  50.421  1.00  0.00    -0.075 NA
HETATM   17  C10 UNL     1      22.717   4.621  49.169  1.00  0.00     0.139 A 
HETATM   18  C11 UNL     1      23.911   5.119  48.698  1.00  0.00     0.053 A 
HETATM   19  C12 UNL     1      25.118   5.118  49.363  1.00  0.00     0.087 A 
HETATM   20  N4  UNL     1      25.045   4.553  50.601  1.00  0.00    -0.062 NA
BRANCH  19  21
HETATM   21  C13 UNL     1      26.347   5.659  48.814  1.00  0.00    -0.004 A 
HETATM   22  C14 UNL     1      26.482   6.925  48.313  1.00  0.00     0.033 A 
HETATM   23  C15 UNL     1      27.706   7.365  47.803  1.00  0.00     0.117 A 
HETATM   24  N3  UNL     1      28.764   6.540  47.801  1.00  0.00    -0.273 NA
HETATM   25  C16 UNL     1      28.642   5.295  48.291  1.00  0.00     0.117 A 
HETATM   26  C17 UNL     1      27.448   4.798  48.814  1.00  0.00     0.033 A 
ENDBRANCH  19  21
ENDBRANCH   1  15
TORSDOF 9
ENDMDL
MODEL 4
REMARK VINA RESULT:      -7.3      1.983      4.757
REMARK  9 active torsions:
REMARK  status: ('A' for Active; 'I' for Inactive)
REMARK    1  A    between atoms: C1_2  and  C2_3 
REMARK    2  A    between atoms: C2_3  and  C3_4 
REMARK    3  A    between atoms: C3_4  and  C4_5 
REMARK    4  A    between atoms: C4_5  and  N1_13 
REMARK    5  A    between atoms: C5_6  and  C6_7 
REMARK    6  A    between atoms: C7_8  and  O1_9 
REMARK    7  A    between atoms: O1_9  and  C8_10 
REMARK    8  A    between atoms: N1_13  and  C9_14 
REMARK    9  A    between atoms: C12_18  and  C13_19 
ROOT
HETATM    1  N1  UNL     1      26.609   1.916  51.060  1.00  0.00    -0.192 N 
HETATM    2  H11 UNL     1      27.176   1.172  50.613  1.00  0.00     0.184 HD
ENDROOT
BRANCH   1   3
HETATM    3  C4  UNL     1      26.395   1.678  52.439  1.00  0.00     0.026 C 
HETATM    4  C5  UNL     1      25.448   0.789  52.669  1.00  0.00     0.027 C 
BRANCH   3   5
HETATM    5  C3  UNL     1      27.103   2.307  53.568  1.00  0.00     0.060 C 
BRANCH   5   6
HETATM    6  C2  UNL     1      28.592   2.096  53.566  1.00  0.00     0.037 C 
BRANCH   6   7
HETATM    7  C1  UNL     1      28.991   0.757  54.138  1.00  0.00     0.222 C 
HETATM    8  F1  UNL     1      30.136   0.311  53.504  1.00  0.00    -0.255 F 
ENDBRANCH   6   7
ENDBRANCH   5   6
ENDBRANCH   3   5
BRANCH   4   9
HETATM    9  C6  UNL     1      24.668   0.033  53.640  1.00  0.00     0.026 C 
HETATM   10  C7  UNL     1      24.475  -0.982  54.458  1.00  0.00     0.141 C 
BRANCH  10  11
HETATM   11  O1  UNL     1      23.280  -1.025  55.163  1.00  0.00    -0.302 OA
BRANCH  11  12
HETATM   12  C8  UNL     1      22.003  -0.904  54.563  1.00  0.00     0.504 C 
HETATM   13  F2  UNL     1      21.325  -2.090  54.776  1.00  0.00    -0.184 F 
HETATM   14  F3  UNL     1      21.300   0.154  55.104  1.00  0.00    -0.184 F 
ENDBRANCH  11  12
ENDBRANCH  10  11
ENDBRANCH   4   9
ENDBRANCH   1   3
BRANCH   1  15
HETATM   15  C9  UNL     1      26.115   3.039  50.343  1.00  0.00     0.727 A 
HETATM   16  N2  UNL     1      24.774   3.257  50.277  1.00  0.00    -0.075 NA
HETATM   17  C10 UNL     1      24.337   4.350  49.580  1.00  0.00     0.139 A 
HETATM   18  C11 UNL     1      25.303   5.144  49.000  1.00  0.00     0.053 A 
HETATM   19  C12 UNL     1      26.665   4.945  49.051  1.00  0.00     0.087 A 
HETATM   20  N4  UNL     1      27.017   3.837  49.762  1.00  0.00    -0.062 NA
BRANCH  19  21
HETATM   21  C13 UNL     1      27.635   5.818  48.417  1.00  0.00    -0.004 A 
HETATM   22  C14 UNL     1      28.970   5.539  48.298  1.00  0.00     0.033 A 
HETATM   23  C15 UNL     1      29.835   6.439  47.671  1.00  0.00     0.117 A 
HETATM   24  N3  UNL     1      29.357   7.592  47.178  1.00  0.00    -0.273 NA
HETATM   25  C16 UNL     1      28.048   7.874  47.289  1.00  0.00     0.117 A 
HETATM   26  C17 UNL     1      27.135   7.017  47.904  1.00  0.00     0.033 A 
ENDBRANCH  19  21
ENDBRANCH   1  15
TORSDOF 9
ENDMDL
MODEL 5
REMARK VINA RESULT:      -7.2      4.568      7.703
REMARK  9 active torsions:
REMARK  status: ('A' for Active; 'I' for Inactive)
REMARK    1  A    between atoms: C1_2  and  C2_3 
REMARK    2  A    between atoms: C2_3  and  C3_4 
REMARK    3  A    between atoms: C3_4  and  C4_5 
REMARK    4  A    between atoms: C4_5  and  N1_13 
REMARK    5  A    between atoms: C5_6  and  C6_7 
REMARK    6  A    between atoms: C7_8  and  O1_9 
REMARK    7  A    between atoms: O1_9  and  C8_10 
REMARK    8  A    between atoms: N1_13  and  C9_14 
REMARK    9  A    between atoms: C12_18  and  C13_19 
ROOT
HETATM    1  N1  UNL     1      25.404   3.721  49.471  1.00  0.00    -0.192 N 
HETATM    2  H11 UNL     1      25.022   3.212  48.653  1.00  0.00     0.184 HD
ENDROOT
BRANCH   1   3
HETATM    3  C4  UNL     1      26.028   4.938  49.106  1.00  0.00     0.026 C 
HETATM    4  C5  UNL     1      27.297   4.790  48.776  1.00  0.00     0.027 C 
BRANCH   3   5
HETATM    5  C3  UNL     1      25.410   6.276  49.069  1.00  0.00     0.060 C 
BRANCH   5   6
HETATM    6  C2  UNL     1      25.798   7.172  50.213  1.00  0.00     0.037 C 
BRANCH   6   7
HETATM    7  C1  UNL     1      26.400   8.478  49.751  1.00  0.00     0.222 C 
HETATM    8  F1  UNL     1      27.300   8.928  50.699  1.00  0.00    -0.255 F 
ENDBRANCH   6   7
ENDBRANCH   5   6
ENDBRANCH   3   5
BRANCH   4   9
HETATM    9  C6  UNL     1      28.541   5.404  48.330  1.00  0.00     0.026 C 
HETATM   10  C7  UNL     1      29.404   6.398  48.267  1.00  0.00     0.141 C 
BRANCH  10  11
HETATM   11  O1  UNL     1      30.558   6.203  47.520  1.00  0.00    -0.302 OA
BRANCH  11  12
HETATM   12  C8  UNL     1      31.383   5.057  47.623  1.00  0.00     0.504 C 
HETATM   13  F2  UNL     1      32.371   5.161  46.660  1.00  0.00    -0.184 F 
HETATM   14  F3  UNL     1      31.947   4.964  48.880  1.00  0.00    -0.184 F 
ENDBRANCH  11  12
ENDBRANCH  10  11
ENDBRANCH   4   9
ENDBRANCH   1   3
BRANCH   1  15
HETATM   15  C9  UNL     1      25.300   3.228  50.799  1.00  0.00     0.727 A 
HETATM   16  N2  UNL     1      24.391   3.776  51.650  1.00  0.00    -0.075 NA
HETATM   17  C10 UNL     1      24.317   3.272  52.920  1.00  0.00     0.139 A 
HETATM   18  C11 UNL     1      25.178   2.242  53.230  1.00  0.00     0.053 A 
HETATM   19  C12 UNL     1      26.108   1.670  52.389  1.00  0.00     0.087 A 
HETATM   20  N4  UNL     1      26.117   2.228  51.146  1.00  0.00    -0.062 NA
BRANCH  19  21
HETATM   21  C13 UNL     1      26.990   0.585  52.774  1.00  0.00    -0.004 A 
HETATM   22  C14 UNL     1      28.176   0.746  53.437  1.00  0.00     0.033 A 
HETATM   23  C15 UNL     1      28.964  -0.358  53.771  1.00  0.00     0.117 A 
HETATM   24  N3  UNL     1      28.558  -1.593  53.439  1.00  0.00    -0.273 NA
HETATM   25  C16 UNL     1      27.395  -1.762  52.788  1.00  0.00     0.117 A 
HETATM   26  C17 UNL     1      26.564  -0.701  52.428  1.00  0.00     0.033 A 
ENDBRANCH  19  21
ENDBRANCH   1  15
TORSDOF 9
ENDMDL
MODEL 6
REMARK VINA RESULT:      -6.9      4.737      7.869
REMARK  9 active torsions:
REMARK  status: ('A' for Active; 'I' for Inactive)
REMARK    1  A    between atoms: C1_2  and  C2_3 
REMARK    2  A    between atoms: C2_3  and  C3_4 
REMARK    3  A    between atoms: C3_4  and  C4_5 
REMARK    4  A    between atoms: C4_5  and  N1_13 
REMARK    5  A    between atoms: C5_6  and  C6_7 
REMARK    6  A    between atoms: C7_8  and  O1_9 
REMARK    7  A    between atoms: O1_9  and  C8_10 
REMARK    8  A    between atoms: N1_13  and  C9_14 
REMARK    9  A    between atoms: C12_18  and  C13_19 
ROOT
HETATM    1  N1  UNL     1      23.603   4.663  51.983  1.00  0.00    -0.192 N 
HETATM    2  H11 UNL     1      23.158   5.378  52.588  1.00  0.00     0.184 HD
ENDROOT
BRANCH   1   3
HETATM    3  C4  UNL     1      24.306   5.237  50.896  1.00  0.00     0.026 C 
HETATM    4  C5  UNL     1      24.568   6.518  51.069  1.00  0.00     0.027 C 
BRANCH   3   5
HETATM    5  C3  UNL     1      24.738   4.558  49.662  1.00  0.00     0.060 C 
BRANCH   5   6
HETATM    6  C2  UNL     1      26.197   4.194  49.629  1.00  0.00     0.037 C 
BRANCH   6   7
HETATM    7  C1  UNL     1      27.006   5.110  48.741  1.00  0.00     0.222 C 
HETATM    8  F1  UNL     1      28.148   4.452  48.323  1.00  0.00    -0.255 F 
ENDBRANCH   6   7
ENDBRANCH   5   6
ENDBRANCH   3   5
BRANCH   4   9
HETATM    9  C6  UNL     1      25.165   7.742  50.550  1.00  0.00     0.026 C 
HETATM   10  C7  UNL     1      25.325   8.674  49.632  1.00  0.00     0.141 C 
BRANCH  10  11
HETATM   11  O1  UNL     1      26.224   9.697  49.900  1.00  0.00    -0.302 OA
BRANCH  11  12
HETATM   12  C8  UNL     1      27.622   9.509  50.024  1.00  0.00     0.504 C 
HETATM   13  F2  UNL     1      27.954   8.355  49.337  1.00  0.00    -0.184 F 
HETATM   14  F3  UNL     1      28.314  10.588  49.513  1.00  0.00    -0.184 F 
ENDBRANCH  11  12
ENDBRANCH  10  11
ENDBRANCH   4   9
ENDBRANCH   1   3
BRANCH   1  15
HETATM   15  C9  UNL     1      23.503   3.270  52.241  1.00  0.00     0.727 A 
HETATM   16  N2  UNL     1      22.306   2.642  52.082  1.00  0.00    -0.075 NA
HETATM   17  C10 UNL     1      22.250   1.299  52.337  1.00  0.00     0.139 A 
HETATM   18  C11 UNL     1      23.421   0.692  52.736  1.00  0.00     0.053 A 
HETATM   19  C12 UNL     1      24.644   1.305  52.905  1.00  0.00     0.087 A 
HETATM   20  N4  UNL     1      24.615   2.639  52.632  1.00  0.00    -0.062 NA
BRANCH  19  21
HETATM   21  C13 UNL     1      25.845   0.611  53.329  1.00  0.00    -0.004 A 
HETATM   22  C14 UNL     1      26.570   0.924  54.448  1.00  0.00     0.033 A 
HETATM   23  C15 UNL     1      27.717   0.201  54.782  1.00  0.00     0.117 A 
HETATM   24  N3  UNL     1      28.118  -0.813  54.000  1.00  0.00    -0.273 NA
HETATM   25  C16 UNL     1      27.414  -1.128  52.900  1.00  0.00     0.117 A 
HETATM   26  C17 UNL     1      26.261  -0.445  52.514  1.00  0.00     0.033 A 
ENDBRANCH  19  21
ENDBRANCH   1  15
TORSDOF 9
ENDMDL
MODEL 7
REMARK VINA RESULT:      -6.9      4.336      7.707
REMARK  9 active torsions:
REMARK  status: ('A' for Active; 'I' for Inactive)
REMARK    1  A    between atoms: C1_2  and  C2_3 
REMARK    2  A    between atoms: C2_3  and  C3_4 
REMARK    3  A    between atoms: C3_4  and  C4_5 
REMARK    4  A    between atoms: C4_5  and  N1_13 
REMARK    5  A    between atoms: C5_6  and  C6_7 
REMARK    6  A    between atoms: C7_8  and  O1_9 
REMARK    7  A    between atoms: O1_9  and  C8_10 
REMARK    8  A    between atoms: N1_13  and  C9_14 
REMARK    9  A    between atoms: C12_18  and  C13_19 
ROOT
HETATM    1  N1  UNL     1      26.555   2.798  49.730  1.00  0.00    -0.192 N 
HETATM    2  H11 UNL     1      26.856   2.171  48.962  1.00  0.00     0.184 HD
ENDROOT
BRANCH   1   3
HETATM    3  C4  UNL     1      26.305   4.118  49.283  1.00  0.00     0.026 C 
HETATM    4  C5  UNL     1      27.400   4.756  48.917  1.00  0.00     0.027 C 
BRANCH   3   5
HETATM    5  C3  UNL     1      24.998   4.795  49.201  1.00  0.00     0.060 C 
BRANCH   5   6
HETATM    6  C2  UNL     1      24.723   5.757  50.324  1.00  0.00     0.037 C 
BRANCH   6   7
HETATM    7  C1  UNL     1      23.873   5.151  51.415  1.00  0.00     0.222 C 
HETATM    8  F1  UNL     1      23.070   4.163  50.875  1.00  0.00    -0.255 F 
ENDBRANCH   6   7
ENDBRANCH   5   6
ENDBRANCH   3   5
BRANCH   4   9
HETATM    9  C6  UNL     1      28.010   5.973  48.398  1.00  0.00     0.026 C 
HETATM   10  C7  UNL     1      27.965   7.156  47.820  1.00  0.00     0.141 C 
BRANCH  10  11
HETATM   11  O1  UNL     1      29.164   7.830  47.632  1.00  0.00    -0.302 OA
BRANCH  11  12
HETATM   12  C8  UNL     1      29.890   8.458  48.673  1.00  0.00     0.504 C 
HETATM   13  F2  UNL     1      28.977   8.920  49.604  1.00  0.00    -0.184 F 
HETATM   14  F3  UNL     1      30.773   7.575  49.263  1.00  0.00    -0.184 F 
ENDBRANCH  11  12
ENDBRANCH  10  11
ENDBRANCH   4   9
ENDBRANCH   1   3
BRANCH   1  15
HETATM   15  C9  UNL     1      26.418   2.355  51.073  1.00  0.00     0.727 A 
HETATM   16  N2  UNL     1      27.468   2.473  51.930  1.00  0.00    -0.075 NA
HETATM   17  C10 UNL     1      27.296   2.039  53.216  1.00  0.00     0.139 A 
HETATM   18  C11 UNL     1      26.063   1.514  53.535  1.00  0.00     0.053 A 
HETATM   19  C12 UNL     1      24.985   1.383  52.687  1.00  0.00     0.087 A 
HETATM   20  N4  UNL     1      25.238   1.838  51.428  1.00  0.00    -0.062 NA
BRANCH  19  21
HETATM   21  C13 UNL     1      23.708   0.820  53.082  1.00  0.00    -0.004 A 
HETATM   22  C14 UNL     1      22.495   1.414  52.860  1.00  0.00     0.033 A 
HETATM   23  C15 UNL     1      21.311   0.800  53.274  1.00  0.00     0.117 A 
HETATM   24  N3  UNL     1      21.358  -0.387  53.899  1.00  0.00    -0.273 NA
HETATM   25  C16 UNL     1      22.544  -0.979  54.122  1.00  0.00     0.117 A 
HETATM   26  C17 UNL     1      23.759  -0.416  53.732  1.00  0.00     0.033 A 
ENDBRANCH  19  21
ENDBRANCH   1  15
TORSDOF 9
ENDMDL
MODEL 8
REMARK VINA RESULT:      -6.8      3.313      5.062
REMARK  9 active torsions:
REMARK  status: ('A' for Active; 'I' for Inactive)
REMARK    1  A    between atoms: C1_2  and  C2_3 
REMARK    2  A    between atoms: C2_3  and  C3_4 
REMARK    3  A    between atoms: C3_4  and  C4_5 
REMARK    4  A    between atoms: C4_5  and  N1_13 
REMARK    5  A    between atoms: C5_6  and  C6_7 
REMARK    6  A    between atoms: C7_8  and  O1_9 
REMARK    7  A    between atoms: O1_9  and  C8_10 
REMARK    8  A    between atoms: N1_13  and  C9_14 
REMARK    9  A    between atoms: C12_18  and  C13_19 
ROOT
HETATM    1  N1  UNL     1      22.821  -0.864  53.213  1.00  0.00    -0.192 N 
HETATM    2  H11 UNL     1      23.079  -1.842  53.439  1.00  0.00     0.184 HD
ENDROOT
BRANCH   1   3
HETATM    3  C4  UNL     1      23.907   0.031  53.370  1.00  0.00     0.026 C 
HETATM    4  C5  UNL     1      25.013  -0.563  53.773  1.00  0.00     0.027 C 
BRANCH   3   5
HETATM    5  C3  UNL     1      23.898   1.486  53.136  1.00  0.00     0.060 C 
BRANCH   5   6
HETATM    6  C2  UNL     1      24.631   1.922  51.897  1.00  0.00     0.037 C 
BRANCH   6   7
HETATM    7  C1  UNL     1      23.834   2.896  51.061  1.00  0.00     0.222 C 
HETATM    8  F1  UNL     1      22.669   3.226  51.729  1.00  0.00    -0.255 F 
ENDBRANCH   6   7
ENDBRANCH   5   6
ENDBRANCH   3   5
BRANCH   4   9
HETATM    9  C6  UNL     1      26.418  -0.448  54.142  1.00  0.00     0.026 C 
HETATM   10  C7  UNL     1      27.466   0.216  54.587  1.00  0.00     0.141 C 
BRANCH  10  11
HETATM   11  O1  UNL     1      28.672  -0.464  54.673  1.00  0.00    -0.302 OA
BRANCH  11  12
HETATM   12  C8  UNL     1      29.424  -0.888  53.549  1.00  0.00     0.504 C 
HETATM   13  F2  UNL     1      30.540  -0.076  53.459  1.00  0.00    -0.184 F 
HETATM   14  F3  UNL     1      29.801  -2.210  53.676  1.00  0.00    -0.184 F 
ENDBRANCH  11  12
ENDBRANCH  10  11
ENDBRANCH   4   9
ENDBRANCH   1   3
BRANCH   1  15
HETATM   15  C9  UNL     1      21.515  -0.492  52.796  1.00  0.00     0.727 A 
HETATM   16  N2  UNL     1      20.440  -0.858  53.546  1.00  0.00    -0.075 NA
HETATM   17  C10 UNL     1      19.199  -0.478  53.112  1.00  0.00     0.139 A 
HETATM   18  C11 UNL     1      19.144   0.249  51.944  1.00  0.00     0.053 A 
HETATM   19  C12 UNL     1      20.216   0.631  51.166  1.00  0.00     0.087 A 
HETATM   20  N4  UNL     1      21.413   0.214  51.665  1.00  0.00    -0.062 NA
BRANCH  19  21
HETATM   21  C13 UNL     1      20.095   1.398  49.941  1.00  0.00    -0.004 A 
HETATM   22  C14 UNL     1      18.998   2.139  49.593  1.00  0.00     0.033 A 
HETATM   23  C15 UNL     1      18.967   2.850  48.391  1.00  0.00     0.117 A 
HETATM   24  N3  UNL     1      20.023   2.809  47.564  1.00  0.00    -0.273 NA
HETATM   25  C16 UNL     1      21.105   2.085  47.896  1.00  0.00     0.117 A 
HETATM   26  C17 UNL     1      21.196   1.355  49.081  1.00  0.00     0.033 A 
ENDBRANCH  19  21
ENDBRANCH   1  15
TORSDOF 9
ENDMDL
MODEL 9
REMARK VINA RESULT:      -6.7      5.250      8.423
REMARK  9 active torsions:
REMARK  status: ('A' for Active; 'I' for Inactive)
REMARK    1  A    between atoms: C1_2  and  C2_3 
REMARK    2  A    between atoms: C2_3  and  C3_4 
REMARK    3  A    between atoms: C3_4  and  C4_5 
REMARK    4  A    between atoms: C4_5  and  N1_13 
REMARK    5  A    between atoms: C5_6  and  C6_7 
REMARK    6  A    between atoms: C7_8  and  O1_9 
REMARK    7  A    between atoms: O1_9  and  C8_10 
REMARK    8  A    between atoms: N1_13  and  C9_14 
REMARK    9  A    between atoms: C12_18  and  C13_19 
ROOT
HETATM    1  N1  UNL     1      24.256   4.035  52.514  1.00  0.00    -0.192 N 
HETATM    2  H11 UNL     1      24.421   4.732  53.263  1.00  0.00     0.184 HD
ENDROOT
BRANCH   1   3
HETATM    3  C4  UNL     1      23.905   4.638  51.283  1.00  0.00     0.026 C 
HETATM    4  C5  UNL     1      23.120   5.688  51.426  1.00  0.00     0.027 C 
BRANCH   3   5
HETATM    5  C3  UNL     1      24.320   4.209  49.935  1.00  0.00     0.060 C 
BRANCH   5   6
HETATM    6  C2  UNL     1      25.537   4.915  49.404  1.00  0.00     0.037 C 
BRANCH   6   7
HETATM    7  C1  UNL     1      26.756   4.024  49.366  1.00  0.00     0.222 C 
HETATM    8  F1  UNL     1      26.405   2.749  49.769  1.00  0.00    -0.255 F 
ENDBRANCH   6   7
ENDBRANCH   5   6
ENDBRANCH   3   5
BRANCH   4   9
HETATM    9  C6  UNL     1      22.371   6.770  50.801  1.00  0.00     0.026 C 
HETATM   10  C7  UNL     1      21.296   7.285  50.239  1.00  0.00     0.141 C 
BRANCH  10  11
HETATM   11  O1  UNL     1      21.352   8.609  49.828  1.00  0.00    -0.302 OA
BRANCH  11  12
HETATM   12  C8  UNL     1      20.210   9.406  49.570  1.00  0.00     0.504 C 
HETATM   13  F2  UNL     1      19.469   9.470  50.737  1.00  0.00    -0.184 F 
HETATM   14  F3  UNL     1      20.573  10.674  49.163  1.00  0.00    -0.184 F 
ENDBRANCH  11  12
ENDBRANCH  10  11
ENDBRANCH   4   9
ENDBRANCH   1   3
BRANCH   1  15
HETATM   15  C9  UNL     1      24.377   2.636  52.729  1.00  0.00     0.727 A 
HETATM   16  N2  UNL     1      23.258   1.863  52.770  1.00  0.00    -0.075 NA
HETATM   17  C10 UNL     1      23.415   0.520  52.975  1.00  0.00     0.139 A 
HETATM   18  C11 UNL     1      24.705   0.061  53.125  1.00  0.00     0.053 A 
HETATM   19  C12 UNL     1      25.854   0.821  53.089  1.00  0.00     0.087 A 
HETATM   20  N4  UNL     1      25.611   2.145  52.881  1.00  0.00    -0.062 NA
BRANCH  19  21
HETATM   21  C13 UNL     1      27.190   0.279  53.255  1.00  0.00    -0.004 A 
HETATM   22  C14 UNL     1      27.528  -1.032  53.050  1.00  0.00     0.033 A 
HETATM   23  C15 UNL     1      28.842  -1.468  53.231  1.00  0.00     0.117 A 
HETATM   24  N3  UNL     1      29.788  -0.596  53.612  1.00  0.00    -0.273 NA
HETATM   25  C16 UNL     1      29.467   0.693  53.815  1.00  0.00     0.117 A 
HETATM   26  C17 UNL     1      28.174   1.189  53.650  1.00  0.00     0.033 A 
ENDBRANCH  19  21
ENDBRANCH   1  15
TORSDOF 9
ENDMDL
