MODEL 1
REMARK VINA RESULT:      -8.1      0.000      0.000
REMARK  0 active torsions:
REMARK  status: ('A' for Active; 'I' for Inactive)
ROOT
HETATM    1  C1  UNL     1      26.616   1.011  51.951  1.00  0.00     0.017 A 
HETATM    2  C2  UNL     1      25.735   2.021  51.738  1.00  0.00    -0.027 A 
HETATM    3  C3  UNL     1      25.099   1.012  52.520  1.00  0.00     0.049 A 
HETATM    4  C4  UNL     1      23.857   1.268  52.873  1.00  0.00     0.004 C 
HETATM    5  C5  UNL     1      23.264   2.168  52.129  1.00  0.00     0.037 C 
HETATM    6  N1  UNL     1      23.525   1.774  50.670  1.00  0.00    -0.388 N 
HETATM    7  C6  UNL     1      23.538   2.506  49.430  1.00  0.00     0.092 C 
HETATM    8  C7  UNL     1      24.497   3.665  49.353  1.00  0.00     0.026 C 
HETATM    9  C8  UNL     1      25.926   3.307  49.580  1.00  0.00     0.003 C 
HETATM   10  C9  UNL     1      26.348   3.051  50.955  1.00  0.00     0.011 C 
HETATM   11  C10 UNL     1      22.347   2.655  48.573  1.00  0.00     0.055 C 
HETATM   12  C11 UNL     1      21.586   1.350  48.594  1.00  0.00    -0.016 C 
HETATM   13  C12 UNL     1      20.953   1.107  49.762  1.00  0.00    -0.001 C 
HETATM   14  C13 UNL     1      21.093   1.602  51.158  1.00  0.00     0.037 C 
HETATM   15  C14 UNL     1      21.458   2.838  51.326  1.00  0.00     0.179 A 
HETATM   16  C15 UNL     1      22.436   3.458  52.130  1.00  0.00     0.261 A 
HETATM   17  C16 UNL     1      22.939   4.590  52.509  1.00  0.00     0.110 A 
HETATM   18  C17 UNL     1      22.009   5.385  51.617  1.00  0.00     0.353 A 
HETATM   19  O1  UNL     1      21.756   6.539  51.307  1.00  0.00    -0.260 OA
HETATM   20  N2  UNL     1      21.347   4.242  51.107  1.00  0.00     0.072 N 
HETATM   21  C18 UNL     1      20.590   4.336  49.823  1.00  0.00     0.218 C 
HETATM   22  C19 UNL     1      21.416   3.826  48.762  1.00  0.00     0.010 C 
HETATM   23  H4  UNL     1      23.717   0.715  50.573  1.00  0.00     0.159 HD
ENDROOT
TORSDOF 0
ENDMDL
MODEL 2
REMARK VINA RESULT:      -7.9      2.542      4.353
REMARK  0 active torsions:
REMARK  status: ('A' for Active; 'I' for Inactive)
ROOT
HETATM    1  C1  UNL     1      26.678   7.737  49.707  1.00  0.00     0.017 A 
HETATM    2  C2  UNL     1      25.948   6.645  49.365  1.00  0.00    -0.027 A 
HETATM    3  C3  UNL     1      25.132   7.520  50.141  1.00  0.00     0.049 A 
HETATM    4  C4  UNL     1      23.895   7.115  50.336  1.00  0.00     0.004 C 
HETATM    5  C5  UNL     1      23.721   5.827  50.170  1.00  0.00     0.037 C 
HETATM    6  N1  UNL     1      24.834   5.127  50.958  1.00  0.00    -0.388 N 
HETATM    7  C6  UNL     1      25.458   3.833  50.861  1.00  0.00     0.092 C 
HETATM    8  C7  UNL     1      26.102   3.503  49.540  1.00  0.00     0.026 C 
HETATM    9  C8  UNL     1      27.168   4.454  49.112  1.00  0.00     0.003 C 
HETATM   10  C9  UNL     1      26.744   5.748  48.583  1.00  0.00     0.011 C 
HETATM   11  C10 UNL     1      24.980   2.653  51.607  1.00  0.00     0.055 C 
HETATM   12  C11 UNL     1      24.548   3.108  52.981  1.00  0.00    -0.016 C 
HETATM   13  C12 UNL     1      23.398   3.817  52.984  1.00  0.00    -0.001 C 
HETATM   14  C13 UNL     1      22.628   4.578  51.964  1.00  0.00     0.037 C 
HETATM   15  C14 UNL     1      22.643   4.135  50.743  1.00  0.00     0.179 A 
HETATM   16  C15 UNL     1      22.870   4.747  49.494  1.00  0.00     0.261 A 
HETATM   17  C16 UNL     1      22.887   4.570  48.210  1.00  0.00     0.110 A 
HETATM   18  C17 UNL     1      22.544   3.100  48.336  1.00  0.00     0.353 A 
HETATM   19  O1  UNL     1      22.353   2.114  47.641  1.00  0.00    -0.260 OA
HETATM   20  N2  UNL     1      22.477   3.127  49.749  1.00  0.00     0.072 N 
HETATM   21  C18 UNL     1      22.601   1.853  50.520  1.00  0.00     0.218 C 
HETATM   22  C19 UNL     1      23.954   1.733  50.996  1.00  0.00     0.010 C 
HETATM   23  H4  UNL     1      25.199   5.747  51.765  1.00  0.00     0.159 HD
ENDROOT
TORSDOF 0
ENDMDL
MODEL 3
REMARK VINA RESULT:      -7.7      1.048      1.477
REMARK  0 active torsions:
REMARK  status: ('A' for Active; 'I' for Inactive)
ROOT
HETATM    1  C1  UNL     1      24.424   0.210  53.384  1.00  0.00     0.017 A 
HETATM    2  C2  UNL     1      24.025   1.404  52.877  1.00  0.00    -0.027 A 
HETATM    3  C3  UNL     1      22.876   0.584  53.085  1.00  0.00     0.049 A 
HETATM    4  C4  UNL     1      21.722   1.139  52.778  1.00  0.00     0.004 C 
HETATM    5  C5  UNL     1      21.819   2.154  51.955  1.00  0.00     0.037 C 
HETATM    6  N1  UNL     1      22.723   1.701  50.802  1.00  0.00    -0.388 N 
HETATM    7  C6  UNL     1      23.545   2.402  49.850  1.00  0.00     0.092 C 
HETATM    8  C7  UNL     1      24.617   3.291  50.424  1.00  0.00     0.026 C 
HETATM    9  C8  UNL     1      25.596   2.595  51.307  1.00  0.00     0.003 C 
HETATM   10  C9  UNL     1      25.160   2.249  52.658  1.00  0.00     0.011 C 
HETATM   11  C10 UNL     1      23.052   2.834  48.528  1.00  0.00     0.055 C 
HETATM   12  C11 UNL     1      22.142   1.756  47.990  1.00  0.00    -0.016 C 
HETATM   13  C12 UNL     1      20.952   1.680  48.624  1.00  0.00    -0.001 C 
HETATM   14  C13 UNL     1      20.431   2.131  49.943  1.00  0.00     0.037 C 
HETATM   15  C14 UNL     1      20.901   3.241  50.428  1.00  0.00     0.179 A 
HETATM   16  C15 UNL     1      21.409   3.606  51.692  1.00  0.00     0.261 A 
HETATM   17  C16 UNL     1      21.858   4.583  52.415  1.00  0.00     0.110 A 
HETATM   18  C17 UNL     1      21.734   5.577  51.280  1.00  0.00     0.353 A 
HETATM   19  O1  UNL     1      21.933   6.757  51.033  1.00  0.00    -0.260 OA
HETATM   20  N2  UNL     1      21.221   4.629  50.363  1.00  0.00     0.072 N 
HETATM   21  C18 UNL     1      21.299   4.900  48.896  1.00  0.00     0.218 C 
HETATM   22  C19 UNL     1      22.433   4.198  48.357  1.00  0.00     0.010 C 
HETATM   23  H4  UNL     1      22.711   0.627  50.686  1.00  0.00     0.159 HD
ENDROOT
TORSDOF 0
ENDMDL
MODEL 4
REMARK VINA RESULT:      -7.7      1.921      4.006
REMARK  0 active torsions:
REMARK  status: ('A' for Active; 'I' for Inactive)
ROOT
HETATM    1  C1  UNL     1      26.820   1.960  52.068  1.00  0.00     0.017 A 
HETATM    2  C2  UNL     1      25.628   2.264  51.495  1.00  0.00    -0.027 A 
HETATM    3  C3  UNL     1      26.679   2.689  50.629  1.00  0.00     0.049 A 
HETATM    4  C4  UNL     1      26.292   3.241  49.498  1.00  0.00     0.004 C 
HETATM    5  C5  UNL     1      25.064   3.698  49.519  1.00  0.00     0.037 C 
HETATM    6  N1  UNL     1      24.925   4.525  50.802  1.00  0.00    -0.388 N 
HETATM    7  C6  UNL     1      23.802   4.917  51.615  1.00  0.00     0.092 C 
HETATM    8  C7  UNL     1      22.961   3.798  52.170  1.00  0.00     0.026 C 
HETATM    9  C8  UNL     1      23.703   2.824  53.021  1.00  0.00     0.003 C 
HETATM   10  C9  UNL     1      24.554   1.848  52.344  1.00  0.00     0.011 C 
HETATM   11  C10 UNL     1      23.063   6.177  51.409  1.00  0.00     0.055 C 
HETATM   12  C11 UNL     1      24.060   7.253  51.047  1.00  0.00    -0.016 C 
HETATM   13  C12 UNL     1      24.572   7.125  49.803  1.00  0.00    -0.001 C 
HETATM   14  C13 UNL     1      24.693   6.012  48.824  1.00  0.00     0.037 C 
HETATM   15  C14 UNL     1      23.736   5.133  48.790  1.00  0.00     0.179 A 
HETATM   16  C15 UNL     1      23.717   3.723  48.791  1.00  0.00     0.261 A 
HETATM   17  C16 UNL     1      22.965   2.670  48.710  1.00  0.00     0.110 A 
HETATM   18  C17 UNL     1      21.697   3.493  48.623  1.00  0.00     0.353 A 
HETATM   19  O1  UNL     1      20.487   3.354  48.527  1.00  0.00    -0.260 OA
HETATM   20  N2  UNL     1      22.371   4.736  48.692  1.00  0.00     0.072 N 
HETATM   21  C18 UNL     1      21.621   5.963  49.095  1.00  0.00     0.218 C 
HETATM   22  C19 UNL     1      21.869   6.217  50.490  1.00  0.00     0.010 C 
HETATM   23  H4  UNL     1      25.881   4.899  51.140  1.00  0.00     0.159 HD
ENDROOT
TORSDOF 0
ENDMDL
MODEL 5
REMARK VINA RESULT:      -7.3      2.065      4.138
REMARK  0 active torsions:
REMARK  status: ('A' for Active; 'I' for Inactive)
ROOT
HETATM    1  C1  UNL     1      27.058   5.636  49.001  1.00  0.00     0.017 A 
HETATM    2  C2  UNL     1      26.076   4.698  49.002  1.00  0.00    -0.027 A 
HETATM    3  C3  UNL     1      25.513   5.955  48.632  1.00  0.00     0.049 A 
HETATM    4  C4  UNL     1      24.225   5.939  48.360  1.00  0.00     0.004 C 
HETATM    5  C5  UNL     1      23.584   4.915  48.866  1.00  0.00     0.037 C 
HETATM    6  N1  UNL     1      24.005   4.815  50.337  1.00  0.00    -0.388 N 
HETATM    7  C6  UNL     1      24.024   3.740  51.294  1.00  0.00     0.092 C 
HETATM    8  C7  UNL     1      24.832   2.527  50.916  1.00  0.00     0.026 C 
HETATM    9  C8  UNL     1      26.274   2.799  50.647  1.00  0.00     0.003 C 
HETATM   10  C9  UNL     1      26.615   3.424  49.371  1.00  0.00     0.011 C 
HETATM   11  C10 UNL     1      22.893   3.449  52.197  1.00  0.00     0.055 C 
HETATM   12  C11 UNL     1      22.302   4.764  52.650  1.00  0.00    -0.016 C 
HETATM   13  C12 UNL     1      21.616   5.413  51.684  1.00  0.00    -0.001 C 
HETATM   14  C13 UNL     1      21.584   5.360  50.198  1.00  0.00     0.037 C 
HETATM   15  C14 UNL     1      21.777   4.207  49.632  1.00  0.00     0.179 A 
HETATM   16  C15 UNL     1      22.604   3.773  48.576  1.00  0.00     0.261 A 
HETATM   17  C16 UNL     1      22.930   2.770  47.824  1.00  0.00     0.110 A 
HETATM   18  C17 UNL     1      21.980   1.832  48.539  1.00  0.00     0.353 A 
HETATM   19  O1  UNL     1      21.610   0.668  48.519  1.00  0.00    -0.260 OA
HETATM   20  N2  UNL     1      21.509   2.821  49.436  1.00  0.00     0.072 N 
HETATM   21  C18 UNL     1      20.848   2.409  50.710  1.00  0.00     0.218 C 
HETATM   22  C19 UNL     1      21.811   2.488  51.776  1.00  0.00     0.010 C 
HETATM   23  H4  UNL     1      24.335   5.770  50.721  1.00  0.00     0.159 HD
ENDROOT
TORSDOF 0
ENDMDL
MODEL 6
REMARK VINA RESULT:      -7.3      9.297     12.062
REMARK  0 active torsions:
REMARK  status: ('A' for Active; 'I' for Inactive)
ROOT
HETATM    1  C1  UNL     1      34.829   9.831  45.372  1.00  0.00     0.017 A 
HETATM    2  C2  UNL     1      33.913   8.923  45.794  1.00  0.00    -0.027 A 
HETATM    3  C3  UNL     1      35.009   8.930  46.706  1.00  0.00     0.049 A 
HETATM    4  C4  UNL     1      34.899   8.110  47.729  1.00  0.00     0.004 C 
HETATM    5  C5  UNL     1      34.043   7.135  47.544  1.00  0.00     0.037 C 
HETATM    6  N1  UNL     1      34.360   6.527  46.172  1.00  0.00    -0.388 N 
HETATM    7  C6  UNL     1      33.590   5.768  45.221  1.00  0.00     0.092 C 
HETATM    8  C7  UNL     1      32.334   6.422  44.710  1.00  0.00     0.026 C 
HETATM    9  C8  UNL     1      32.544   7.738  44.041  1.00  0.00     0.003 C 
HETATM   10  C9  UNL     1      32.798   8.895  44.896  1.00  0.00     0.011 C 
HETATM   11  C10 UNL     1      33.543   4.293  45.220  1.00  0.00     0.055 C 
HETATM   12  C11 UNL     1      34.921   3.777  45.559  1.00  0.00    -0.016 C 
HETATM   13  C12 UNL     1      35.269   3.959  46.852  1.00  0.00    -0.001 C 
HETATM   14  C13 UNL     1      34.807   4.849  47.951  1.00  0.00     0.037 C 
HETATM   15  C14 UNL     1      33.545   5.157  47.987  1.00  0.00     0.179 A 
HETATM   16  C15 UNL     1      32.851   6.375  48.134  1.00  0.00     0.261 A 
HETATM   17  C16 UNL     1      31.684   6.926  48.255  1.00  0.00     0.110 A 
HETATM   18  C17 UNL     1      30.965   5.599  48.133  1.00  0.00     0.353 A 
HETATM   19  O1  UNL     1      29.835   5.135  48.128  1.00  0.00    -0.260 OA
HETATM   20  N2  UNL     1      32.155   4.844  47.997  1.00  0.00     0.072 N 
HETATM   21  C18 UNL     1      32.101   3.478  47.396  1.00  0.00     0.218 C 
HETATM   22  C19 UNL     1      32.485   3.567  46.013  1.00  0.00     0.010 C 
HETATM   23  H4  UNL     1      35.389   6.699  45.889  1.00  0.00     0.159 HD
ENDROOT
TORSDOF 0
ENDMDL
MODEL 7
REMARK VINA RESULT:      -7.3      1.888      4.164
REMARK  0 active torsions:
REMARK  status: ('A' for Active; 'I' for Inactive)
ROOT
HETATM    1  C1  UNL     1      19.683   0.726  50.727  1.00  0.00     0.017 A 
HETATM    2  C2  UNL     1      20.965   1.134  50.547  1.00  0.00    -0.027 A 
HETATM    3  C3  UNL     1      20.492   1.635  51.795  1.00  0.00     0.049 A 
HETATM    4  C4  UNL     1      21.363   2.337  52.490  1.00  0.00     0.004 C 
HETATM    5  C5  UNL     1      22.349   2.821  51.777  1.00  0.00     0.037 C 
HETATM    6  N1  UNL     1      21.719   3.482  50.546  1.00  0.00    -0.388 N 
HETATM    7  C6  UNL     1      22.208   3.799  49.228  1.00  0.00     0.092 C 
HETATM    8  C7  UNL     1      22.729   2.642  48.417  1.00  0.00     0.026 C 
HETATM    9  C8  UNL     1      21.743   1.548  48.186  1.00  0.00     0.003 C 
HETATM   10  C9  UNL     1      21.466   0.643  49.299  1.00  0.00     0.011 C 
HETATM   11  C10 UNL     1      22.826   5.095  48.892  1.00  0.00     0.055 C 
HETATM   12  C11 UNL     1      22.075   6.181  49.626  1.00  0.00    -0.016 C 
HETATM   13  C12 UNL     1      22.306   6.197  50.958  1.00  0.00    -0.001 C 
HETATM   14  C13 UNL     1      22.819   5.214  51.949  1.00  0.00     0.037 C 
HETATM   15  C14 UNL     1      23.726   4.373  51.551  1.00  0.00     0.179 A 
HETATM   16  C15 UNL     1      23.870   2.976  51.671  1.00  0.00     0.261 A 
HETATM   17  C16 UNL     1      24.643   1.963  51.437  1.00  0.00     0.110 A 
HETATM   18  C17 UNL     1      25.688   2.825  50.759  1.00  0.00     0.353 A 
HETATM   19  O1  UNL     1      26.775   2.732  50.209  1.00  0.00    -0.260 OA
HETATM   20  N2  UNL     1      24.969   4.030  50.944  1.00  0.00     0.072 N 
HETATM   21  C18 UNL     1      25.281   5.216  50.092  1.00  0.00     0.218 C 
HETATM   22  C19 UNL     1      24.316   5.284  49.026  1.00  0.00     0.010 C 
HETATM   23  H4  UNL     1      20.699   3.784  50.735  1.00  0.00     0.159 HD
ENDROOT
TORSDOF 0
ENDMDL
MODEL 8
REMARK VINA RESULT:      -7.2      9.148     11.482
REMARK  0 active torsions:
REMARK  status: ('A' for Active; 'I' for Inactive)
ROOT
HETATM    1  C1  UNL     1      34.986   2.993  45.952  1.00  0.00     0.017 A 
HETATM    2  C2  UNL     1      34.735   4.321  46.079  1.00  0.00    -0.027 A 
HETATM    3  C3  UNL     1      34.882   3.753  47.379  1.00  0.00     0.049 A 
HETATM    4  C4  UNL     1      34.771   4.599  48.382  1.00  0.00     0.004 C 
HETATM    5  C5  UNL     1      34.138   5.706  48.080  1.00  0.00     0.037 C 
HETATM    6  N1  UNL     1      32.856   5.294  47.348  1.00  0.00    -0.388 N 
HETATM    7  C6  UNL     1      31.983   5.964  46.419  1.00  0.00     0.092 C 
HETATM    8  C7  UNL     1      32.621   6.465  45.150  1.00  0.00     0.026 C 
HETATM    9  C8  UNL     1      33.285   5.412  44.330  1.00  0.00     0.003 C 
HETATM   10  C9  UNL     1      34.582   4.918  44.787  1.00  0.00     0.011 C 
HETATM   11  C10 UNL     1      30.803   6.741  46.844  1.00  0.00     0.055 C 
HETATM   12  C11 UNL     1      30.153   6.016  48.000  1.00  0.00    -0.016 C 
HETATM   13  C12 UNL     1      30.855   6.087  49.152  1.00  0.00    -0.001 C 
HETATM   14  C13 UNL     1      32.270   6.381  49.505  1.00  0.00     0.037 C 
HETATM   15  C14 UNL     1      32.908   7.243  48.772  1.00  0.00     0.179 A 
HETATM   16  C15 UNL     1      34.173   7.236  48.149  1.00  0.00     0.261 A 
HETATM   17  C16 UNL     1      35.022   7.930  47.459  1.00  0.00     0.110 A 
HETATM   18  C17 UNL     1      34.096   9.127  47.388  1.00  0.00     0.353 A 
HETATM   19  O1  UNL     1      34.050  10.258  46.928  1.00  0.00    -0.260 OA
HETATM   20  N2  UNL     1      33.067   8.511  48.140  1.00  0.00     0.072 N 
HETATM   21  C18 UNL     1      31.672   9.035  48.053  1.00  0.00     0.218 C 
HETATM   22  C19 UNL     1      30.928   8.215  47.134  1.00  0.00     0.010 C 
HETATM   23  H4  UNL     1      32.550   4.292  47.615  1.00  0.00     0.159 HD
ENDROOT
TORSDOF 0
ENDMDL
MODEL 9
REMARK VINA RESULT:      -7.2      2.385      4.853
REMARK  0 active torsions:
REMARK  status: ('A' for Active; 'I' for Inactive)
ROOT
HETATM    1  C1  UNL     1      22.547   7.574  47.849  1.00  0.00     0.017 A 
HETATM    2  C2  UNL     1      23.367   6.757  48.558  1.00  0.00    -0.027 A 
HETATM    3  C3  UNL     1      22.570   5.963  47.681  1.00  0.00     0.049 A 
HETATM    4  C4  UNL     1      22.801   4.668  47.724  1.00  0.00     0.004 C 
HETATM    5  C5  UNL     1      23.389   4.266  48.824  1.00  0.00     0.037 C 
HETATM    6  N1  UNL     1      22.618   4.893  49.990  1.00  0.00    -0.388 N 
HETATM    7  C6  UNL     1      22.960   5.206  51.354  1.00  0.00     0.092 C 
HETATM    8  C7  UNL     1      24.132   6.131  51.549  1.00  0.00     0.026 C 
HETATM    9  C8  UNL     1      23.990   7.464  50.896  1.00  0.00     0.003 C 
HETATM   10  C9  UNL     1      24.180   7.529  49.448  1.00  0.00     0.011 C 
HETATM   11  C10 UNL     1      22.744   4.267  52.471  1.00  0.00     0.055 C 
HETATM   12  C11 UNL     1      21.435   3.550  52.237  1.00  0.00    -0.016 C 
HETATM   13  C12 UNL     1      21.481   2.647  51.233  1.00  0.00    -0.001 C 
HETATM   14  C13 UNL     1      22.368   2.421  50.060  1.00  0.00     0.037 C 
HETATM   15  C14 UNL     1      23.628   2.709  50.193  1.00  0.00     0.179 A 
HETATM   16  C15 UNL     1      24.541   3.441  49.407  1.00  0.00     0.261 A 
HETATM   17  C16 UNL     1      25.777   3.810  49.280  1.00  0.00     0.110 A 
HETATM   18  C17 UNL     1      26.191   3.121  50.564  1.00  0.00     0.353 A 
HETATM   19  O1  UNL     1      27.178   2.934  51.258  1.00  0.00    -0.260 OA
HETATM   20  N2  UNL     1      24.893   2.631  50.845  1.00  0.00     0.072 N 
HETATM   21  C18 UNL     1      24.542   2.221  52.238  1.00  0.00     0.218 C 
HETATM   22  C19 UNL     1      23.827   3.297  52.870  1.00  0.00     0.010 C 
HETATM   23  H4  UNL     1      21.599   5.123  49.715  1.00  0.00     0.159 HD
ENDROOT
TORSDOF 0
ENDMDL
