MODEL 1
REMARK VINA RESULT:      -8.5      0.000      0.000
REMARK  6 active torsions:
REMARK  status: ('A' for Active; 'I' for Inactive)
REMARK    1  A    between atoms: C4_6  and  C5_7 
REMARK    2  A    between atoms: C5_7  and  O1_8 
REMARK    3  A    between atoms: O1_8  and  C6_9 
REMARK    4  A    between atoms: C9_12  and  N2_13 
REMARK    5  A    between atoms: N2_13  and  C10_14 
REMARK    6  A    between atoms: C12_16  and  C13_17 
ROOT
HETATM    1  C6  UNL     1      25.274   2.688  51.441  1.00  0.00     0.090 A 
HETATM    2  C7  UNL     1      26.372   2.509  50.632  1.00  0.00     0.041 A 
HETATM    3  C8  UNL     1      26.666   3.492  49.730  1.00  0.00     0.032 A 
HETATM    4  C9  UNL     1      25.980   4.660  49.536  1.00  0.00     0.035 A 
HETATM    5  C18 UNL     1      24.883   4.780  50.383  1.00  0.00     0.056 A 
HETATM    6  C19 UNL     1      24.527   3.833  51.313  1.00  0.00     0.069 A 
HETATM    7 CL1  UNL     1      23.128   4.068  52.339  1.00  0.00    -0.081 Cl
ENDROOT
BRANCH   4   8
HETATM    8  N2  UNL     1      26.280   5.678  48.606  1.00  0.00    -0.341 N 
HETATM    9  H7  UNL     1      25.557   5.791  47.836  1.00  0.00     0.167 HD
BRANCH   8  10
HETATM   10  C10 UNL     1      27.402   6.529  48.598  1.00  0.00     0.131 A 
HETATM   11  C11 UNL     1      28.629   5.988  48.234  1.00  0.00     0.083 A 
HETATM   12  C12 UNL     1      29.802   6.693  48.180  1.00  0.00     0.072 A 
HETATM   13  N3  UNL     1      29.706   7.989  48.511  1.00  0.00    -0.241 NA
HETATM   14  C17 UNL     1      28.529   8.538  48.867  1.00  0.00     0.235 A 
HETATM   15  N4  UNL     1      27.395   7.828  48.912  1.00  0.00    -0.224 NA
BRANCH  12  16
HETATM   16  C13 UNL     1      31.069   6.098  47.796  1.00  0.00    -0.000 A 
HETATM   17  C14 UNL     1      31.213   4.764  47.545  1.00  0.00     0.021 A 
HETATM   18  C15 UNL     1      32.398   4.244  47.192  1.00  0.00     0.050 A 
HETATM   19  S1  UNL     1      33.516   5.660  47.172  1.00  0.00    -0.113 SA
HETATM   20  C16 UNL     1      32.258   6.880  47.657  1.00  0.00     0.063 A 
ENDBRANCH  12  16
ENDBRANCH   8  10
ENDBRANCH   4   8
BRANCH   1  21
HETATM   21  O1  UNL     1      24.902   1.750  52.378  1.00  0.00    -0.345 OA
BRANCH  21  22
HETATM   22  C5  UNL     1      25.375   0.414  52.356  1.00  0.00     0.212 C 
BRANCH  22  23
HETATM   23  C4  UNL     1      26.628   0.256  53.122  1.00  0.00    -0.033 C 
HETATM   24  C3  UNL     1      26.636   1.095  54.353  1.00  0.00     0.186 C 
HETATM   25  N1  UNL     1      27.981   0.994  54.918  1.00  0.00    -0.280 NA
HETATM   26  C2  UNL     1      28.624  -0.077  54.758  1.00  0.00     0.121 C 
HETATM   27  C1  UNL     1      28.832  -0.618  53.598  1.00  0.00     0.147 C 
HETATM   28  F1  UNL     1      29.917  -1.208  53.072  1.00  0.00    -0.204 F 
HETATM   29  C20 UNL     1      27.642  -0.541  52.764  1.00  0.00     0.051 C 
ENDBRANCH  22  23
ENDBRANCH  21  22
ENDBRANCH   1  21
TORSDOF 6
ENDMDL
MODEL 2
REMARK VINA RESULT:      -8.5      1.380      1.833
REMARK  6 active torsions:
REMARK  status: ('A' for Active; 'I' for Inactive)
REMARK    1  A    between atoms: C4_6  and  C5_7 
REMARK    2  A    between atoms: C5_7  and  O1_8 
REMARK    3  A    between atoms: O1_8  and  C6_9 
REMARK    4  A    between atoms: C9_12  and  N2_13 
REMARK    5  A    between atoms: N2_13  and  C10_14 
REMARK    6  A    between atoms: C12_16  and  C13_17 
ROOT
HETATM    1  C6  UNL     1      25.341   3.948  50.463  1.00  0.00     0.090 A 
HETATM    2  C7  UNL     1      26.383   3.387  49.762  1.00  0.00     0.041 A 
HETATM    3  C8  UNL     1      27.145   4.211  48.984  1.00  0.00     0.032 A 
HETATM    4  C9  UNL     1      26.988   5.560  48.817  1.00  0.00     0.035 A 
HETATM    5  C18 UNL     1      25.918   6.065  49.550  1.00  0.00     0.056 A 
HETATM    6  C19 UNL     1      25.110   5.297  50.354  1.00  0.00     0.069 A 
HETATM    7 CL1  UNL     1      23.786   6.019  51.241  1.00  0.00    -0.081 Cl
ENDROOT
BRANCH   4   8
HETATM    8  N2  UNL     1      27.771   6.415  48.015  1.00  0.00    -0.341 N 
HETATM    9  H7  UNL     1      27.249   6.843  47.194  1.00  0.00     0.167 HD
BRANCH   8  10
HETATM   10  C10 UNL     1      29.130   6.747  48.186  1.00  0.00     0.131 A 
HETATM   11  C11 UNL     1      30.080   5.774  47.905  1.00  0.00     0.083 A 
HETATM   12  C12 UNL     1      31.433   5.952  48.025  1.00  0.00     0.072 A 
HETATM   13  N3  UNL     1      31.813   7.167  48.447  1.00  0.00    -0.241 NA
HETATM   14  C17 UNL     1      30.912   8.128  48.727  1.00  0.00     0.235 A 
HETATM   15  N4  UNL     1      29.595   7.929  48.601  1.00  0.00    -0.224 NA
BRANCH  12  16
HETATM   16  C13 UNL     1      32.402   4.914  47.723  1.00  0.00    -0.000 A 
HETATM   17  C14 UNL     1      32.072   3.767  47.061  1.00  0.00     0.021 A 
HETATM   18  C15 UNL     1      32.990   2.826  46.797  1.00  0.00     0.050 A 
HETATM   19  S1  UNL     1      34.518   3.487  47.492  1.00  0.00    -0.113 SA
HETATM   20  C16 UNL     1      33.774   5.030  48.104  1.00  0.00     0.063 A 
ENDBRANCH  12  16
ENDBRANCH   8  10
ENDBRANCH   4   8
BRANCH   1  21
HETATM   21  O1  UNL     1      24.520   3.194  51.272  1.00  0.00    -0.345 OA
BRANCH  21  22
HETATM   22  C5  UNL     1      24.579   1.779  51.319  1.00  0.00     0.212 C 
BRANCH  22  23
HETATM   23  C4  UNL     1      25.544   1.296  52.328  1.00  0.00    -0.033 C 
HETATM   24  C3  UNL     1      25.512   2.123  53.566  1.00  0.00     0.186 C 
HETATM   25  N1  UNL     1      26.623   1.666  54.401  1.00  0.00    -0.280 NA
HETATM   26  C2  UNL     1      26.969   0.458  54.337  1.00  0.00     0.121 C 
HETATM   27  C1  UNL     1      27.270  -0.141  53.225  1.00  0.00     0.147 C 
HETATM   28  F1  UNL     1      28.240  -1.016  52.919  1.00  0.00    -0.204 F 
HETATM   29  C20 UNL     1      26.356   0.245  52.160  1.00  0.00     0.051 C 
ENDBRANCH  22  23
ENDBRANCH  21  22
ENDBRANCH   1  21
TORSDOF 6
ENDMDL
MODEL 3
REMARK VINA RESULT:      -8.2      5.096      9.696
REMARK  6 active torsions:
REMARK  status: ('A' for Active; 'I' for Inactive)
REMARK    1  A    between atoms: C4_6  and  C5_7 
REMARK    2  A    between atoms: C5_7  and  O1_8 
REMARK    3  A    between atoms: O1_8  and  C6_9 
REMARK    4  A    between atoms: C9_12  and  N2_13 
REMARK    5  A    between atoms: N2_13  and  C10_14 
REMARK    6  A    between atoms: C12_16  and  C13_17 
ROOT
HETATM    1  C6  UNL     1      27.645   7.217  48.682  1.00  0.00     0.090 A 
HETATM    2  C7  UNL     1      28.305   6.075  48.290  1.00  0.00     0.041 A 
HETATM    3  C8  UNL     1      27.732   4.872  48.590  1.00  0.00     0.032 A 
HETATM    4  C9  UNL     1      26.550   4.668  49.250  1.00  0.00     0.035 A 
HETATM    5  C18 UNL     1      25.934   5.860  49.619  1.00  0.00     0.056 A 
HETATM    6  C19 UNL     1      26.451   7.104  49.351  1.00  0.00     0.069 A 
HETATM    7 CL1  UNL     1      25.606   8.552  49.853  1.00  0.00    -0.081 Cl
ENDROOT
BRANCH   4   8
HETATM    8  N2  UNL     1      25.954   3.429  49.563  1.00  0.00    -0.341 N 
HETATM    9  H7  UNL     1      25.378   3.011  48.775  1.00  0.00     0.167 HD
BRANCH   8  10
HETATM   10  C10 UNL     1      26.043   2.715  50.774  1.00  0.00     0.131 A 
HETATM   11  C11 UNL     1      24.892   2.110  51.262  1.00  0.00     0.083 A 
HETATM   12  C12 UNL     1      24.827   1.386  52.423  1.00  0.00     0.072 A 
HETATM   13  N3  UNL     1      25.982   1.284  53.097  1.00  0.00    -0.241 NA
HETATM   14  C17 UNL     1      27.113   1.860  52.646  1.00  0.00     0.235 A 
HETATM   15  N4  UNL     1      27.150   2.563  51.509  1.00  0.00    -0.224 NA
BRANCH  12  16
HETATM   16  C13 UNL     1      23.607   0.766  52.907  1.00  0.00    -0.000 A 
HETATM   17  C14 UNL     1      23.580  -0.488  53.445  1.00  0.00     0.021 A 
HETATM   18  C15 UNL     1      22.436  -1.034  53.884  1.00  0.00     0.050 A 
HETATM   19  S1  UNL     1      21.190   0.232  53.569  1.00  0.00    -0.113 SA
HETATM   20  C16 UNL     1      22.347   1.436  52.848  1.00  0.00     0.063 A 
ENDBRANCH  12  16
ENDBRANCH   8  10
ENDBRANCH   4   8
BRANCH   1  21
HETATM   21  O1  UNL     1      28.149   8.472  48.422  1.00  0.00    -0.345 OA
BRANCH  21  22
HETATM   22  C5  UNL     1      29.241   9.024  49.137  1.00  0.00     0.212 C 
BRANCH  22  23
HETATM   23  C4  UNL     1      29.317  10.491  48.989  1.00  0.00    -0.033 C 
HETATM   24  C3  UNL     1      30.722  10.982  49.040  1.00  0.00     0.186 C 
HETATM   25  N1  UNL     1      30.653  12.442  49.068  1.00  0.00    -0.280 NA
HETATM   26  C2  UNL     1      29.700  13.014  48.477  1.00  0.00     0.121 C 
HETATM   27  C1  UNL     1      28.453  12.731  48.694  1.00  0.00     0.147 C 
HETATM   28  F1  UNL     1      27.369  13.514  48.809  1.00  0.00    -0.204 F 
HETATM   29  C20 UNL     1      28.258  11.295  48.830  1.00  0.00     0.051 C 
ENDBRANCH  22  23
ENDBRANCH  21  22
ENDBRANCH   1  21
TORSDOF 6
ENDMDL
MODEL 4
REMARK VINA RESULT:      -8.2      1.487      2.001
REMARK  6 active torsions:
REMARK  status: ('A' for Active; 'I' for Inactive)
REMARK    1  A    between atoms: C4_6  and  C5_7 
REMARK    2  A    between atoms: C5_7  and  O1_8 
REMARK    3  A    between atoms: O1_8  and  C6_9 
REMARK    4  A    between atoms: C9_12  and  N2_13 
REMARK    5  A    between atoms: N2_13  and  C10_14 
REMARK    6  A    between atoms: C12_16  and  C13_17 
ROOT
HETATM    1  C6  UNL     1      25.448   3.668  50.349  1.00  0.00     0.090 A 
HETATM    2  C7  UNL     1      26.596   3.348  49.662  1.00  0.00     0.041 A 
HETATM    3  C8  UNL     1      27.205   4.336  48.942  1.00  0.00     0.032 A 
HETATM    4  C9  UNL     1      26.796   5.637  48.823  1.00  0.00     0.035 A 
HETATM    5  C18 UNL     1      25.631   5.896  49.539  1.00  0.00     0.056 A 
HETATM    6  C19 UNL     1      24.965   4.953  50.285  1.00  0.00     0.069 A 
HETATM    7 CL1  UNL     1      23.505   5.368  51.155  1.00  0.00    -0.081 Cl
ENDROOT
BRANCH   4   8
HETATM    8  N2  UNL     1      27.421   6.661  48.081  1.00  0.00    -0.341 N 
HETATM    9  H7  UNL     1      27.001   6.820  47.118  1.00  0.00     0.167 HD
BRANCH   8  10
HETATM   10  C10 UNL     1      28.508   7.465  48.476  1.00  0.00     0.131 A 
HETATM   11  C11 UNL     1      29.787   6.938  48.358  1.00  0.00     0.083 A 
HETATM   12  C12 UNL     1      30.936   7.602  48.701  1.00  0.00     0.072 A 
HETATM   13  N3  UNL     1      30.757   8.842  49.178  1.00  0.00    -0.241 NA
HETATM   14  C17 UNL     1      29.527   9.377  49.303  1.00  0.00     0.235 A 
HETATM   15  N4  UNL     1      28.420   8.708  48.960  1.00  0.00    -0.224 NA
BRANCH  12  16
HETATM   16  C13 UNL     1      32.259   7.022  48.566  1.00  0.00    -0.000 A 
HETATM   17  C14 UNL     1      33.400   7.770  48.615  1.00  0.00     0.021 A 
HETATM   18  C15 UNL     1      34.610   7.205  48.487  1.00  0.00     0.050 A 
HETATM   19  S1  UNL     1      34.260   5.449  48.268  1.00  0.00    -0.113 SA
HETATM   20  C16 UNL     1      32.453   5.620  48.369  1.00  0.00     0.063 A 
ENDBRANCH  12  16
ENDBRANCH   8  10
ENDBRANCH   4   8
BRANCH   1  21
HETATM   21  O1  UNL     1      24.767   2.736  51.100  1.00  0.00    -0.345 OA
BRANCH  21  22
HETATM   22  C5  UNL     1      25.026   2.523  52.476  1.00  0.00     0.212 C 
BRANCH  22  23
HETATM   23  C4  UNL     1      25.649   1.207  52.727  1.00  0.00    -0.033 C 
HETATM   24  C3  UNL     1      24.652   0.198  53.181  1.00  0.00     0.186 C 
HETATM   25  N1  UNL     1      25.409  -0.992  53.567  1.00  0.00    -0.280 NA
HETATM   26  C2  UNL     1      26.484  -1.247  52.963  1.00  0.00     0.121 C 
HETATM   27  C1  UNL     1      27.457  -0.396  52.847  1.00  0.00     0.147 C 
HETATM   28  F1  UNL     1      28.787  -0.547  52.938  1.00  0.00    -0.204 F 
HETATM   29  C20 UNL     1      26.952   0.941  52.570  1.00  0.00     0.051 C 
ENDBRANCH  22  23
ENDBRANCH  21  22
ENDBRANCH   1  21
TORSDOF 6
ENDMDL
MODEL 5
REMARK VINA RESULT:      -8.2      2.332      3.019
REMARK  6 active torsions:
REMARK  status: ('A' for Active; 'I' for Inactive)
REMARK    1  A    between atoms: C4_6  and  C5_7 
REMARK    2  A    between atoms: C5_7  and  O1_8 
REMARK    3  A    between atoms: O1_8  and  C6_9 
REMARK    4  A    between atoms: C9_12  and  N2_13 
REMARK    5  A    between atoms: N2_13  and  C10_14 
REMARK    6  A    between atoms: C12_16  and  C13_17 
ROOT
HETATM    1  C6  UNL     1      25.245   4.315  50.290  1.00  0.00     0.090 A 
HETATM    2  C7  UNL     1      26.278   3.630  49.694  1.00  0.00     0.041 A 
HETATM    3  C8  UNL     1      27.165   4.343  48.939  1.00  0.00     0.032 A 
HETATM    4  C9  UNL     1      27.144   5.691  48.703  1.00  0.00     0.035 A 
HETATM    5  C18 UNL     1      26.077   6.325  49.331  1.00  0.00     0.056 A 
HETATM    6  C19 UNL     1      25.148   5.673  50.105  1.00  0.00     0.069 A 
HETATM    7 CL1  UNL     1      23.837   6.552  50.860  1.00  0.00    -0.081 Cl
ENDROOT
BRANCH   4   8
HETATM    8  N2  UNL     1      28.057   6.432  47.924  1.00  0.00    -0.341 N 
HETATM    9  H7  UNL     1      27.709   6.664  46.947  1.00  0.00     0.167 HD
BRANCH   8  10
HETATM   10  C10 UNL     1      29.340   6.879  48.298  1.00  0.00     0.131 A 
HETATM   11  C11 UNL     1      30.409   6.009  48.131  1.00  0.00     0.083 A 
HETATM   12  C12 UNL     1      31.708   6.305  48.450  1.00  0.00     0.072 A 
HETATM   13  N3  UNL     1      31.907   7.531  48.954  1.00  0.00    -0.241 NA
HETATM   14  C17 UNL     1      30.887   8.395  49.126  1.00  0.00     0.235 A 
HETATM   15  N4  UNL     1      29.626   8.082  48.807  1.00  0.00    -0.224 NA
BRANCH  12  16
HETATM   16  C13 UNL     1      32.805   5.373  48.263  1.00  0.00    -0.000 A 
HETATM   17  C14 UNL     1      34.092   5.670  48.607  1.00  0.00     0.021 A 
HETATM   18  C15 UNL     1      35.085   4.787  48.423  1.00  0.00     0.050 A 
HETATM   19  S1  UNL     1      34.271   3.348  47.699  1.00  0.00    -0.113 SA
HETATM   20  C16 UNL     1      32.604   4.074  47.703  1.00  0.00     0.063 A 
ENDBRANCH  12  16
ENDBRANCH   8  10
ENDBRANCH   4   8
BRANCH   1  21
HETATM   21  O1  UNL     1      24.304   3.678  51.069  1.00  0.00    -0.345 OA
BRANCH  21  22
HETATM   22  C5  UNL     1      23.689   2.461  50.686  1.00  0.00     0.212 C 
BRANCH  22  23
HETATM   23  C4  UNL     1      23.723   1.457  51.768  1.00  0.00    -0.033 C 
HETATM   24  C3  UNL     1      22.356   1.009  52.155  1.00  0.00     0.186 C 
HETATM   25  N1  UNL     1      22.512   0.169  53.341  1.00  0.00    -0.280 NA
HETATM   26  C2  UNL     1      23.566  -0.508  53.467  1.00  0.00     0.121 C 
HETATM   27  C1  UNL     1      24.756   0.005  53.405  1.00  0.00     0.147 C 
HETATM   28  F1  UNL     1      25.863  -0.223  54.127  1.00  0.00    -0.204 F 
HETATM   29  C20 UNL     1      24.842   0.997  52.343  1.00  0.00     0.051 C 
ENDBRANCH  22  23
ENDBRANCH  21  22
ENDBRANCH   1  21
TORSDOF 6
ENDMDL
MODEL 6
REMARK VINA RESULT:      -8.2      8.368     12.113
REMARK  6 active torsions:
REMARK  status: ('A' for Active; 'I' for Inactive)
REMARK    1  A    between atoms: C4_6  and  C5_7 
REMARK    2  A    between atoms: C5_7  and  O1_8 
REMARK    3  A    between atoms: O1_8  and  C6_9 
REMARK    4  A    between atoms: C9_12  and  N2_13 
REMARK    5  A    between atoms: N2_13  and  C10_14 
REMARK    6  A    between atoms: C12_16  and  C13_17 
ROOT
HETATM    1  C6  UNL     1      22.864  -0.470  53.179  1.00  0.00     0.090 A 
HETATM    2  C7  UNL     1      22.051  -0.040  52.156  1.00  0.00     0.041 A 
HETATM    3  C8  UNL     1      20.701  -0.091  52.350  1.00  0.00     0.032 A 
HETATM    4  C9  UNL     1      20.048  -0.530  53.470  1.00  0.00     0.035 A 
HETATM    5  C18 UNL     1      20.924  -0.951  54.466  1.00  0.00     0.056 A 
HETATM    6  C19 UNL     1      22.293  -0.928  54.341  1.00  0.00     0.069 A 
HETATM    7 CL1  UNL     1      23.319  -1.478  55.647  1.00  0.00    -0.081 Cl
ENDROOT
BRANCH   4   8
HETATM    8  N2  UNL     1      18.654  -0.584  53.676  1.00  0.00    -0.341 N 
HETATM    9  H7  UNL     1      18.234   0.313  54.059  1.00  0.00     0.167 HD
BRANCH   8  10
HETATM   10  C10 UNL     1      17.792  -1.672  53.431  1.00  0.00     0.131 A 
HETATM   11  C11 UNL     1      16.688  -1.459  52.616  1.00  0.00     0.083 A 
HETATM   12  C12 UNL     1      15.766  -2.419  52.291  1.00  0.00     0.072 A 
HETATM   13  N3  UNL     1      15.991  -3.629  52.822  1.00  0.00    -0.241 NA
HETATM   14  C17 UNL     1      17.055  -3.862  53.615  1.00  0.00     0.235 A 
HETATM   15  N4  UNL     1      17.941  -2.907  53.918  1.00  0.00    -0.224 NA
BRANCH  12  16
HETATM   16  C13 UNL     1      14.621  -2.165  51.436  1.00  0.00    -0.000 A 
HETATM   17  C14 UNL     1      14.356  -2.903  50.319  1.00  0.00     0.021 A 
HETATM   18  C15 UNL     1      13.289  -2.645  49.548  1.00  0.00     0.050 A 
HETATM   19  S1  UNL     1      12.488  -1.245  50.355  1.00  0.00    -0.113 SA
HETATM   20  C16 UNL     1      13.692  -1.115  51.712  1.00  0.00     0.063 A 
ENDBRANCH  12  16
ENDBRANCH   8  10
ENDBRANCH   4   8
BRANCH   1  21
HETATM   21  O1  UNL     1      24.237  -0.455  53.071  1.00  0.00    -0.345 OA
BRANCH  21  22
HETATM   22  C5  UNL     1      24.957   0.666  52.590  1.00  0.00     0.212 C 
BRANCH  22  23
HETATM   23  C4  UNL     1      26.290   0.781  53.216  1.00  0.00    -0.033 C 
HETATM   24  C3  UNL     1      26.570  -0.354  54.139  1.00  0.00     0.186 C 
HETATM   25  N1  UNL     1      27.821  -0.035  54.825  1.00  0.00    -0.280 NA
HETATM   26  C2  UNL     1      28.689   0.642  54.215  1.00  0.00     0.121 C 
HETATM   27  C1  UNL     1      28.442   1.791  53.665  1.00  0.00     0.147 C 
HETATM   28  F1  UNL     1      29.151   2.929  53.622  1.00  0.00    -0.204 F 
HETATM   29  C20 UNL     1      27.151   1.781  52.990  1.00  0.00     0.051 C 
ENDBRANCH  22  23
ENDBRANCH  21  22
ENDBRANCH   1  21
TORSDOF 6
ENDMDL
MODEL 7
REMARK VINA RESULT:      -8.1      4.412      8.878
REMARK  6 active torsions:
REMARK  status: ('A' for Active; 'I' for Inactive)
REMARK    1  A    between atoms: C4_6  and  C5_7 
REMARK    2  A    between atoms: C5_7  and  O1_8 
REMARK    3  A    between atoms: O1_8  and  C6_9 
REMARK    4  A    between atoms: C9_12  and  N2_13 
REMARK    5  A    between atoms: N2_13  and  C10_14 
REMARK    6  A    between atoms: C12_16  and  C13_17 
ROOT
HETATM    1  C6  UNL     1      27.609   7.324  48.701  1.00  0.00     0.090 A 
HETATM    2  C7  UNL     1      28.196   6.149  48.292  1.00  0.00     0.041 A 
HETATM    3  C8  UNL     1      27.565   4.979  48.603  1.00  0.00     0.032 A 
HETATM    4  C9  UNL     1      26.390   4.837  49.289  1.00  0.00     0.035 A 
HETATM    5  C18 UNL     1      25.848   6.059  49.675  1.00  0.00     0.056 A 
HETATM    6  C19 UNL     1      26.426   7.274  49.397  1.00  0.00     0.069 A 
HETATM    7 CL1  UNL     1      25.672   8.764  49.922  1.00  0.00    -0.081 Cl
ENDROOT
BRANCH   4   8
HETATM    8  N2  UNL     1      25.734   3.630  49.612  1.00  0.00    -0.341 N 
HETATM    9  H7  UNL     1      25.017   3.318  48.893  1.00  0.00     0.167 HD
BRANCH   8  10
HETATM   10  C10 UNL     1      25.929   2.827  50.753  1.00  0.00     0.131 A 
HETATM   11  C11 UNL     1      24.818   2.212  51.315  1.00  0.00     0.083 A 
HETATM   12  C12 UNL     1      24.854   1.404  52.421  1.00  0.00     0.072 A 
HETATM   13  N3  UNL     1      26.069   1.228  52.960  1.00  0.00    -0.241 NA
HETATM   14  C17 UNL     1      27.163   1.813  52.434  1.00  0.00     0.235 A 
HETATM   15  N4  UNL     1      27.101   2.598  51.352  1.00  0.00    -0.224 NA
BRANCH  12  16
HETATM   16  C13 UNL     1      23.674   0.776  52.986  1.00  0.00    -0.000 A 
HETATM   17  C14 UNL     1      23.728  -0.382  53.707  1.00  0.00     0.021 A 
HETATM   18  C15 UNL     1      22.620  -0.939  54.216  1.00  0.00     0.050 A 
HETATM   19  S1  UNL     1      21.291   0.170  53.708  1.00  0.00    -0.113 SA
HETATM   20  C16 UNL     1      22.369   1.334  52.820  1.00  0.00     0.063 A 
ENDBRANCH  12  16
ENDBRANCH   8  10
ENDBRANCH   4   8
BRANCH   1  21
HETATM   21  O1  UNL     1      28.174   8.551  48.433  1.00  0.00    -0.345 OA
BRANCH  21  22
HETATM   22  C5  UNL     1      29.169   9.134  49.257  1.00  0.00     0.212 C 
BRANCH  22  23
HETATM   23  C4  UNL     1      30.533   8.850  48.766  1.00  0.00    -0.033 C 
HETATM   24  C3  UNL     1      30.901   9.719  47.614  1.00  0.00     0.186 C 
HETATM   25  N1  UNL     1      32.180   9.223  47.109  1.00  0.00    -0.280 NA
HETATM   26  C2  UNL     1      32.990   8.704  47.922  1.00  0.00     0.121 C 
HETATM   27  C1  UNL     1      32.676   7.729  48.718  1.00  0.00     0.147 C 
HETATM   28  F1  UNL     1      33.347   6.626  49.083  1.00  0.00    -0.204 F 
HETATM   29  C20 UNL     1      31.349   7.923  49.285  1.00  0.00     0.051 C 
ENDBRANCH  22  23
ENDBRANCH  21  22
ENDBRANCH   1  21
TORSDOF 6
ENDMDL
MODEL 8
REMARK VINA RESULT:      -8.0      4.485      8.225
REMARK  6 active torsions:
REMARK  status: ('A' for Active; 'I' for Inactive)
REMARK    1  A    between atoms: C4_6  and  C5_7 
REMARK    2  A    between atoms: C5_7  and  O1_8 
REMARK    3  A    between atoms: O1_8  and  C6_9 
REMARK    4  A    between atoms: C9_12  and  N2_13 
REMARK    5  A    between atoms: N2_13  and  C10_14 
REMARK    6  A    between atoms: C12_16  and  C13_17 
ROOT
HETATM    1  C6  UNL     1      29.249   7.003  48.349  1.00  0.00     0.090 A 
HETATM    2  C7  UNL     1      29.127   5.634  48.291  1.00  0.00     0.041 A 
HETATM    3  C8  UNL     1      27.889   5.095  48.495  1.00  0.00     0.032 A 
HETATM    4  C9  UNL     1      26.730   5.775  48.755  1.00  0.00     0.035 A 
HETATM    5  C18 UNL     1      26.921   7.153  48.801  1.00  0.00     0.056 A 
HETATM    6  C19 UNL     1      28.136   7.765  48.606  1.00  0.00     0.069 A 
HETATM    7 CL1  UNL     1      28.283   9.507  48.681  1.00  0.00    -0.081 Cl
ENDROOT
BRANCH   4   8
HETATM    8  N2  UNL     1      25.450   5.224  48.967  1.00  0.00    -0.341 N 
HETATM    9  H7  UNL     1      24.846   5.175  48.094  1.00  0.00     0.167 HD
BRANCH   8  10
HETATM   10  C10 UNL     1      24.910   4.747  50.178  1.00  0.00     0.131 A 
HETATM   11  C11 UNL     1      25.319   3.500  50.629  1.00  0.00     0.083 A 
HETATM   12  C12 UNL     1      24.881   2.909  51.785  1.00  0.00     0.072 A 
HETATM   13  N3  UNL     1      23.997   3.627  52.493  1.00  0.00    -0.241 NA
HETATM   14  C17 UNL     1      23.583   4.840  52.077  1.00  0.00     0.235 A 
HETATM   15  N4  UNL     1      24.026   5.395  50.944  1.00  0.00    -0.224 NA
BRANCH  12  16
HETATM   16  C13 UNL     1      25.329   1.603  52.230  1.00  0.00    -0.000 A 
HETATM   17  C14 UNL     1      26.475   1.020  51.773  1.00  0.00     0.021 A 
HETATM   18  C15 UNL     1      26.863  -0.190  52.203  1.00  0.00     0.050 A 
HETATM   19  S1  UNL     1      25.578  -0.678  53.372  1.00  0.00    -0.113 SA
HETATM   20  C16 UNL     1      24.589   0.836  53.183  1.00  0.00     0.063 A 
ENDBRANCH  12  16
ENDBRANCH   8  10
ENDBRANCH   4   8
BRANCH   1  21
HETATM   21  O1  UNL     1      30.459   7.634  48.156  1.00  0.00    -0.345 OA
BRANCH  21  22
HETATM   22  C5  UNL     1      31.392   7.839  49.202  1.00  0.00     0.212 C 
BRANCH  22  23
HETATM   23  C4  UNL     1      32.725   7.293  48.873  1.00  0.00    -0.033 C 
HETATM   24  C3  UNL     1      32.748   5.805  48.941  1.00  0.00     0.186 C 
HETATM   25  N1  UNL     1      34.144   5.402  48.779  1.00  0.00    -0.280 NA
HETATM   26  C2  UNL     1      34.899   6.113  48.065  1.00  0.00     0.121 C 
HETATM   27  C1  UNL     1      35.059   7.388  48.244  1.00  0.00     0.147 C 
HETATM   28  F1  UNL     1      36.152   8.165  48.195  1.00  0.00    -0.204 F 
HETATM   29  C20 UNL     1      33.791   8.036  48.551  1.00  0.00     0.051 C 
ENDBRANCH  22  23
ENDBRANCH  21  22
ENDBRANCH   1  21
TORSDOF 6
ENDMDL
MODEL 9
REMARK VINA RESULT:      -7.9      7.033     10.118
REMARK  6 active torsions:
REMARK  status: ('A' for Active; 'I' for Inactive)
REMARK    1  A    between atoms: C4_6  and  C5_7 
REMARK    2  A    between atoms: C5_7  and  O1_8 
REMARK    3  A    between atoms: O1_8  and  C6_9 
REMARK    4  A    between atoms: C9_12  and  N2_13 
REMARK    5  A    between atoms: N2_13  and  C10_14 
REMARK    6  A    between atoms: C12_16  and  C13_17 
ROOT
HETATM    1  C6  UNL     1      23.391   0.462  52.969  1.00  0.00     0.090 A 
HETATM    2  C7  UNL     1      23.419   1.215  51.819  1.00  0.00     0.041 A 
HETATM    3  C8  UNL     1      22.247   1.387  51.141  1.00  0.00     0.032 A 
HETATM    4  C9  UNL     1      21.020   0.886  51.482  1.00  0.00     0.035 A 
HETATM    5  C18 UNL     1      21.059   0.134  52.652  1.00  0.00     0.056 A 
HETATM    6  C19 UNL     1      22.201  -0.081  53.386  1.00  0.00     0.069 A 
HETATM    7 CL1  UNL     1      22.157  -1.041  54.848  1.00  0.00    -0.081 Cl
ENDROOT
BRANCH   4   8
HETATM    8  N2  UNL     1      19.806   1.061  50.785  1.00  0.00    -0.341 N 
HETATM    9  H7  UNL     1      19.542   0.244  50.158  1.00  0.00     0.167 HD
BRANCH   8  10
HETATM   10  C10 UNL     1      18.939   2.170  50.835  1.00  0.00     0.131 A 
HETATM   11  C11 UNL     1      17.697   2.001  51.434  1.00  0.00     0.083 A 
HETATM   12  C12 UNL     1      16.754   2.987  51.556  1.00  0.00     0.072 A 
HETATM   13  N3  UNL     1      17.102   4.177  51.046  1.00  0.00    -0.241 NA
HETATM   14  C17 UNL     1      18.300   4.367  50.459  1.00  0.00     0.235 A 
HETATM   15  N4  UNL     1      19.205   3.388  50.353  1.00  0.00    -0.224 NA
BRANCH  12  16
HETATM   16  C13 UNL     1      15.464   2.779  52.188  1.00  0.00    -0.000 A 
HETATM   17  C14 UNL     1      14.985   1.539  52.498  1.00  0.00     0.021 A 
HETATM   18  C15 UNL     1      13.788   1.379  53.082  1.00  0.00     0.050 A 
HETATM   19  S1  UNL     1      13.160   3.059  53.274  1.00  0.00    -0.113 SA
HETATM   20  C16 UNL     1      14.606   3.870  52.528  1.00  0.00     0.063 A 
ENDBRANCH  12  16
ENDBRANCH   8  10
ENDBRANCH   4   8
BRANCH   1  21
HETATM   21  O1  UNL     1      24.526   0.235  53.717  1.00  0.00    -0.345 OA
BRANCH  21  22
HETATM   22  C5  UNL     1      25.602  -0.562  53.255  1.00  0.00     0.212 C 
BRANCH  22  23
HETATM   23  C4  UNL     1      26.913   0.063  53.528  1.00  0.00    -0.033 C 
HETATM   24  C3  UNL     1      26.773   1.487  53.944  1.00  0.00     0.186 C 
HETATM   25  N1  UNL     1      28.126   2.038  54.004  1.00  0.00    -0.280 NA
HETATM   26  C2  UNL     1      29.076   1.274  54.319  1.00  0.00     0.121 C 
HETATM   27  C1  UNL     1      29.323   0.154  53.712  1.00  0.00     0.147 C 
HETATM   28  F1  UNL     1      30.476  -0.418  53.332  1.00  0.00    -0.204 F 
HETATM   29  C20 UNL     1      28.091  -0.563  53.417  1.00  0.00     0.051 C 
ENDBRANCH  22  23
ENDBRANCH  21  22
ENDBRANCH   1  21
TORSDOF 6
ENDMDL
