MODEL 1
REMARK VINA RESULT:      -7.5      0.000      0.000
REMARK  6 active torsions:
REMARK  status: ('A' for Active; 'I' for Inactive)
REMARK    1  A    between atoms: C10_13  and  N2_14 
REMARK    2  A    between atoms: C11_15  and  C12_16 
REMARK    3  A    between atoms: C13_18  and  C14_19 
REMARK       I    between atoms: C14_19  and  N3_21 
REMARK    4  A    between atoms: N3_21  and  C15_22 
REMARK    5  A    between atoms: C15_22  and  C16_23 
REMARK    6  A    between atoms: C16_23  and  N4_24 
ROOT
HETATM    1  C1  UNL     1      22.623   2.382  48.141  1.00  0.00     0.061 C 
HETATM    2  P1  UNL     1      23.287   2.566  49.833  1.00  0.00    -0.026 P 
HETATM    3  N1  UNL     1      22.742   4.084  50.382  1.00  0.00    -0.272 NA
HETATM    4  C2  UNL     1      23.586   5.026  49.728  1.00  0.00     0.052 C 
HETATM    5  C3  UNL     1      24.821   4.505  49.310  1.00  0.00    -0.032 C 
HETATM    6  C4  UNL     1      25.502   5.561  48.693  1.00  0.00     0.065 C 
HETATM    7  C5  UNL     1      26.844   5.919  48.360  1.00  0.00    -0.019 C 
HETATM    8  C6  UNL     1      27.247   7.122  48.899  1.00  0.00     0.038 C 
HETATM    9  C7  UNL     1      26.550   8.105  49.752  1.00  0.00     0.116 C 
HETATM   10  F1  UNL     1      27.582   9.033  49.908  1.00  0.00    -0.206 F 
HETATM   11  C8  UNL     1      25.513   8.527  50.405  1.00  0.00     0.044 C 
HETATM   12  C9  UNL     1      24.109   8.290  50.804  1.00  0.00     0.023 C 
HETATM   13  C10 UNL     1      23.101   7.382  50.587  1.00  0.00    -0.000 C 
HETATM   14  C11 UNL     1      23.341   6.452  49.486  1.00  0.00     0.143 C 
HETATM   15  C13 UNL     1      25.049   3.105  49.626  1.00  0.00     0.151 C 
HETATM   16  H4  UNL     1      23.131   1.672  50.646  1.00  0.00     0.077 HD
ENDROOT
BRANCH  15  17
HETATM   17  C14 UNL     1      25.643   2.885  50.972  1.00  0.00     0.231 C 
HETATM   18  O2  UNL     1      26.891   2.941  51.061  1.00  0.00    -0.272 OA
HETATM   19  N3  UNL     1      24.813   2.626  52.095  1.00  0.00    -0.358 N 
HETATM   20  H16 UNL     1      23.778   2.602  51.883  1.00  0.00     0.162 HD
BRANCH  19  21
HETATM   21  C15 UNL     1      25.365   2.410  53.441  1.00  0.00     0.152 C 
BRANCH  21  22
HETATM   22  C16 UNL     1      25.503   0.964  53.766  1.00  0.00     0.292 C 
BRANCH  22  23
HETATM   23  N4  UNL     1      26.837   0.519  53.460  1.00  0.00     0.094 N 
HETATM   24  C17 UNL     1      27.612   0.120  54.577  1.00  0.00     0.298 C 
HETATM   25  C18 UNL     1      28.912  -0.498  54.069  1.00  0.00     0.198 C 
HETATM   26  O3  UNL     1      28.638  -1.722  53.493  1.00  0.00    -0.388 OA
HETATM   27  C19 UNL     1      27.436  -1.772  52.824  1.00  0.00     0.198 C 
HETATM   28  C20 UNL     1      26.936  -0.430  52.401  1.00  0.00     0.298 C 
ENDBRANCH  22  23
ENDBRANCH  21  22
ENDBRANCH  19  21
ENDBRANCH  15  17
BRANCH  14  29
HETATM   29  C12 UNL     1      21.932   6.486  48.766  1.00  0.00     0.247 C 
HETATM   30  O1  UNL     1      20.784   6.468  48.411  1.00  0.00    -0.306 OA
ENDBRANCH  14  29
BRANCH  13  31
HETATM   31  N2  UNL     1      21.787   7.478  51.214  1.00  0.00    -0.305 NA
HETATM   32  H11 UNL     1      22.369   7.006  51.970  1.00  0.00     0.124 HD
HETATM   33  H12 UNL     1      21.519   7.931  50.290  1.00  0.00     0.124 HD
ENDBRANCH  13  31
TORSDOF 6
ENDMDL
MODEL 2
REMARK VINA RESULT:      -7.3      3.368      5.248
REMARK  6 active torsions:
REMARK  status: ('A' for Active; 'I' for Inactive)
REMARK    1  A    between atoms: C10_13  and  N2_14 
REMARK    2  A    between atoms: C11_15  and  C12_16 
REMARK    3  A    between atoms: C13_18  and  C14_19 
REMARK       I    between atoms: C14_19  and  N3_21 
REMARK    4  A    between atoms: N3_21  and  C15_22 
REMARK    5  A    between atoms: C15_22  and  C16_23 
REMARK    6  A    between atoms: C16_23  and  N4_24 
ROOT
HETATM    1  C1  UNL     1      23.541   7.103  50.152  1.00  0.00     0.061 C 
HETATM    2  P1  UNL     1      24.523   5.595  50.469  1.00  0.00    -0.026 P 
HETATM    3  N1  UNL     1      24.032   4.467  49.289  1.00  0.00    -0.272 NA
HETATM    4  C2  UNL     1      22.772   3.991  49.752  1.00  0.00     0.052 C 
HETATM    5  C3  UNL     1      22.570   4.137  51.134  1.00  0.00    -0.032 C 
HETATM    6  C4  UNL     1      21.293   3.625  51.398  1.00  0.00     0.065 C 
HETATM    7  C5  UNL     1      20.554   3.115  52.507  1.00  0.00    -0.019 C 
HETATM    8  C6  UNL     1      20.077   1.836  52.316  1.00  0.00     0.038 C 
HETATM    9  C7  UNL     1      20.189   0.900  51.180  1.00  0.00     0.116 C 
HETATM   10  F1  UNL     1      19.491  -0.183  51.717  1.00  0.00    -0.206 F 
HETATM   11  C8  UNL     1      20.589   0.584  49.989  1.00  0.00     0.044 C 
HETATM   12  C9  UNL     1      21.309   0.996  48.765  1.00  0.00     0.023 C 
HETATM   13  C10 UNL     1      21.945   2.099  48.248  1.00  0.00    -0.000 C 
HETATM   14  C11 UNL     1      21.707   3.341  48.980  1.00  0.00     0.143 C 
HETATM   15  C13 UNL     1      23.675   4.727  51.870  1.00  0.00     0.151 C 
HETATM   16  H4  UNL     1      25.733   5.673  50.590  1.00  0.00     0.077 HD
ENDROOT
BRANCH  15  17
HETATM   17  C14 UNL     1      24.684   3.735  52.330  1.00  0.00     0.231 C 
HETATM   18  O2  UNL     1      24.488   3.197  53.443  1.00  0.00    -0.272 OA
HETATM   19  N3  UNL     1      25.811   3.425  51.525  1.00  0.00    -0.358 N 
HETATM   20  H16 UNL     1      25.860   3.952  50.610  1.00  0.00     0.162 HD
BRANCH  19  21
HETATM   21  C15 UNL     1      26.825   2.446  51.944  1.00  0.00     0.152 C 
BRANCH  21  22
HETATM   22  C16 UNL     1      26.433   1.051  51.605  1.00  0.00     0.292 C 
BRANCH  22  23
HETATM   23  N4  UNL     1      27.025   0.134  52.544  1.00  0.00     0.094 N 
HETATM   24  C17 UNL     1      28.265   0.546  53.091  1.00  0.00     0.298 C 
HETATM   25  C18 UNL     1      28.656  -0.431  54.197  1.00  0.00     0.198 C 
HETATM   26  O3  UNL     1      27.820  -0.250  55.280  1.00  0.00    -0.388 OA
HETATM   27  C19 UNL     1      26.525   0.070  54.943  1.00  0.00     0.198 C 
HETATM   28  C20 UNL     1      26.150  -0.349  53.560  1.00  0.00     0.298 C 
ENDBRANCH  22  23
ENDBRANCH  21  22
ENDBRANCH  19  21
ENDBRANCH  15  17
BRANCH  14  29
HETATM   29  C12 UNL     1      21.435   4.337  47.781  1.00  0.00     0.247 C 
HETATM   30  O1  UNL     1      21.384   5.208  46.955  1.00  0.00    -0.306 OA
ENDBRANCH  14  29
BRANCH  13  31
HETATM   31  N2  UNL     1      22.595   2.113  46.942  1.00  0.00    -0.305 NA
HETATM   32  H11 UNL     1      23.276   1.548  47.533  1.00  0.00     0.124 HD
HETATM   33  H12 UNL     1      21.743   2.686  46.664  1.00  0.00     0.124 HD
ENDBRANCH  13  31
TORSDOF 6
ENDMDL
MODEL 3
REMARK VINA RESULT:      -7.2      3.188      7.469
REMARK  6 active torsions:
REMARK  status: ('A' for Active; 'I' for Inactive)
REMARK    1  A    between atoms: C10_13  and  N2_14 
REMARK    2  A    between atoms: C11_15  and  C12_16 
REMARK    3  A    between atoms: C13_18  and  C14_19 
REMARK       I    between atoms: C14_19  and  N3_21 
REMARK    4  A    between atoms: N3_21  and  C15_22 
REMARK    5  A    between atoms: C15_22  and  C16_23 
REMARK    6  A    between atoms: C16_23  and  N4_24 
ROOT
HETATM    1  C1  UNL     1      21.535  -0.211  55.170  1.00  0.00     0.061 C 
HETATM    2  P1  UNL     1      21.530  -0.520  53.369  1.00  0.00    -0.026 P 
HETATM    3  N1  UNL     1      23.158  -0.784  52.941  1.00  0.00    -0.272 NA
HETATM    4  C2  UNL     1      23.740   0.516  52.924  1.00  0.00     0.052 C 
HETATM    5  C3  UNL     1      22.819   1.560  52.737  1.00  0.00    -0.032 C 
HETATM    6  C4  UNL     1      23.564   2.746  52.753  1.00  0.00     0.065 C 
HETATM    7  C5  UNL     1      23.436   4.094  52.304  1.00  0.00    -0.019 C 
HETATM    8  C6  UNL     1      24.446   4.495  51.455  1.00  0.00     0.038 C 
HETATM    9  C7  UNL     1      25.631   3.788  50.928  1.00  0.00     0.116 C 
HETATM   10  F1  UNL     1      26.158   4.806  50.131  1.00  0.00    -0.206 F 
HETATM   11  C8  UNL     1      26.397   2.748  50.830  1.00  0.00     0.044 C 
HETATM   12  C9  UNL     1      26.661   1.351  51.236  1.00  0.00     0.023 C 
HETATM   13  C10 UNL     1      26.144   0.389  52.070  1.00  0.00    -0.000 C 
HETATM   14  C11 UNL     1      25.157   0.880  53.030  1.00  0.00     0.143 C 
HETATM   15  C13 UNL     1      21.434   1.151  52.573  1.00  0.00     0.151 C 
HETATM   16  H4  UNL     1      20.765  -1.342  52.897  1.00  0.00     0.077 HD
ENDROOT
BRANCH  15  17
HETATM   17  C14 UNL     1      21.064   0.848  51.165  1.00  0.00     0.231 C 
HETATM   18  O2  UNL     1      20.063   0.118  50.983  1.00  0.00    -0.272 OA
HETATM   19  N3  UNL     1      21.824   1.375  50.088  1.00  0.00    -0.358 N 
HETATM   20  H16 UNL     1      22.646   1.973  50.378  1.00  0.00     0.162 HD
BRANCH  19  21
HETATM   21  C15 UNL     1      21.484   1.101  48.684  1.00  0.00     0.152 C 
BRANCH  21  22
HETATM   22  C16 UNL     1      22.310   1.901  47.739  1.00  0.00     0.292 C 
BRANCH  22  23
HETATM   23  N4  UNL     1      21.852   3.266  47.722  1.00  0.00     0.094 N 
HETATM   24  C17 UNL     1      22.803   4.227  48.143  1.00  0.00     0.298 C 
HETATM   25  C18 UNL     1      22.231   5.619  47.885  1.00  0.00     0.198 C 
HETATM   26  O3  UNL     1      22.206   5.855  46.525  1.00  0.00    -0.388 OA
HETATM   27  C19 UNL     1      21.923   4.743  45.768  1.00  0.00     0.198 C 
HETATM   28  C20 UNL     1      21.201   3.676  46.523  1.00  0.00     0.298 C 
ENDBRANCH  22  23
ENDBRANCH  21  22
ENDBRANCH  19  21
ENDBRANCH  15  17
BRANCH  14  29
HETATM   29  C12 UNL     1      25.646   0.150  54.346  1.00  0.00     0.247 C 
HETATM   30  O1  UNL     1      26.195  -0.440  55.238  1.00  0.00    -0.306 OA
ENDBRANCH  14  29
BRANCH  13  31
HETATM   31  N2  UNL     1      26.696  -0.956  52.185  1.00  0.00    -0.305 NA
HETATM   32  H11 UNL     1      25.653  -1.123  52.314  1.00  0.00     0.124 HD
HETATM   33  H12 UNL     1      27.620  -0.454  52.029  1.00  0.00     0.124 HD
ENDBRANCH  13  31
TORSDOF 6
ENDMDL
MODEL 4
REMARK VINA RESULT:      -6.8      6.339      9.278
REMARK  6 active torsions:
REMARK  status: ('A' for Active; 'I' for Inactive)
REMARK    1  A    between atoms: C10_13  and  N2_14 
REMARK    2  A    between atoms: C11_15  and  C12_16 
REMARK    3  A    between atoms: C13_18  and  C14_19 
REMARK       I    between atoms: C14_19  and  N3_21 
REMARK    4  A    between atoms: N3_21  and  C15_22 
REMARK    5  A    between atoms: C15_22  and  C16_23 
REMARK    6  A    between atoms: C16_23  and  N4_24 
ROOT
HETATM    1  C1  UNL     1      20.020   5.873  47.745  1.00  0.00     0.061 C 
HETATM    2  P1  UNL     1      19.390   5.772  49.457  1.00  0.00    -0.026 P 
HETATM    3  N1  UNL     1      20.764   5.869  50.462  1.00  0.00    -0.272 NA
HETATM    4  C2  UNL     1      21.355   4.575  50.386  1.00  0.00     0.052 C 
HETATM    5  C3  UNL     1      20.468   3.554  50.010  1.00  0.00    -0.032 C 
HETATM    6  C4  UNL     1      21.220   2.373  49.985  1.00  0.00     0.065 C 
HETATM    7  C5  UNL     1      21.001   0.964  50.051  1.00  0.00    -0.019 C 
HETATM    8  C6  UNL     1      21.676   0.345  51.081  1.00  0.00     0.038 C 
HETATM    9  C7  UNL     1      22.582   0.868  52.123  1.00  0.00     0.116 C 
HETATM   10  F1  UNL     1      22.846  -0.322  52.803  1.00  0.00    -0.206 F 
HETATM   11  C8  UNL     1      23.227   1.829  52.705  1.00  0.00     0.044 C 
HETATM   12  C9  UNL     1      23.559   3.270  52.735  1.00  0.00     0.023 C 
HETATM   13  C10 UNL     1      23.319   4.413  52.012  1.00  0.00    -0.000 C 
HETATM   14  C11 UNL     1      22.737   4.188  50.690  1.00  0.00     0.143 C 
HETATM   15  C13 UNL     1      19.095   3.970  49.779  1.00  0.00     0.151 C 
HETATM   16  H4  UNL     1      18.479   6.498  49.812  1.00  0.00     0.077 HD
ENDROOT
BRANCH  15  17
HETATM   17  C14 UNL     1      18.256   3.967  51.008  1.00  0.00     0.231 C 
HETATM   18  O2  UNL     1      18.803   3.598  52.072  1.00  0.00    -0.272 OA
HETATM   19  N3  UNL     1      16.896   4.371  50.954  1.00  0.00    -0.358 N 
HETATM   20  H16 UNL     1      16.556   4.656  49.995  1.00  0.00     0.162 HD
BRANCH  19  21
HETATM   21  C15 UNL     1      16.038   4.386  52.149  1.00  0.00     0.152 C 
BRANCH  21  22
HETATM   22  C16 UNL     1      14.634   4.003  51.838  1.00  0.00     0.292 C 
BRANCH  22  23
HETATM   23  N4  UNL     1      13.932   3.684  53.054  1.00  0.00     0.094 N 
HETATM   24  C17 UNL     1      12.863   4.555  53.380  1.00  0.00     0.298 C 
HETATM   25  C18 UNL     1      12.112   3.974  54.576  1.00  0.00     0.198 C 
HETATM   26  O3  UNL     1      11.420   2.849  54.174  1.00  0.00    -0.388 OA
HETATM   27  C19 UNL     1      12.069   2.100  53.221  1.00  0.00     0.198 C 
HETATM   28  C20 UNL     1      13.546   2.320  53.196  1.00  0.00     0.298 C 
ENDBRANCH  22  23
ENDBRANCH  21  22
ENDBRANCH  19  21
ENDBRANCH  15  17
BRANCH  14  29
HETATM   29  C12 UNL     1      23.616   5.173  49.816  1.00  0.00     0.247 C 
HETATM   30  O1  UNL     1      24.193   6.073  49.268  1.00  0.00    -0.306 OA
ENDBRANCH  14  29
BRANCH  13  31
HETATM   31  N2  UNL     1      23.824   5.727  52.395  1.00  0.00    -0.305 NA
HETATM   32  H11 UNL     1      24.230   5.094  53.149  1.00  0.00     0.124 HD
HETATM   33  H12 UNL     1      23.284   6.045  51.536  1.00  0.00     0.124 HD
ENDBRANCH  13  31
TORSDOF 6
ENDMDL
MODEL 5
REMARK VINA RESULT:      -6.8      3.577      7.405
REMARK  6 active torsions:
REMARK  status: ('A' for Active; 'I' for Inactive)
REMARK    1  A    between atoms: C10_13  and  N2_14 
REMARK    2  A    between atoms: C11_15  and  C12_16 
REMARK    3  A    between atoms: C13_18  and  C14_19 
REMARK       I    between atoms: C14_19  and  N3_21 
REMARK    4  A    between atoms: N3_21  and  C15_22 
REMARK    5  A    between atoms: C15_22  and  C16_23 
REMARK    6  A    between atoms: C16_23  and  N4_24 
ROOT
HETATM    1  C1  UNL     1      26.641   5.889  48.518  1.00  0.00     0.061 C 
HETATM    2  P1  UNL     1      25.121   6.418  49.383  1.00  0.00    -0.026 P 
HETATM    3  N1  UNL     1      25.019   5.442  50.777  1.00  0.00    -0.272 NA
HETATM    4  C2  UNL     1      24.555   4.183  50.300  1.00  0.00     0.052 C 
HETATM    5  C3  UNL     1      23.868   4.245  49.077  1.00  0.00    -0.032 C 
HETATM    6  C4  UNL     1      23.498   2.929  48.770  1.00  0.00     0.065 C 
HETATM    7  C5  UNL     1      22.541   2.250  47.958  1.00  0.00    -0.019 C 
HETATM    8  C6  UNL     1      21.723   1.393  48.664  1.00  0.00     0.038 C 
HETATM    9  C7  UNL     1      21.657   1.049  50.098  1.00  0.00     0.116 C 
HETATM   10  F1  UNL     1      20.587   0.152  50.061  1.00  0.00    -0.206 F 
HETATM   11  C8  UNL     1      22.065   1.153  51.324  1.00  0.00     0.044 C 
HETATM   12  C9  UNL     1      23.018   1.769  52.272  1.00  0.00     0.023 C 
HETATM   13  C10 UNL     1      24.100   2.616  52.265  1.00  0.00    -0.000 C 
HETATM   14  C11 UNL     1      24.669   2.870  50.943  1.00  0.00     0.143 C 
HETATM   15  C13 UNL     1      23.723   5.573  48.506  1.00  0.00     0.151 C 
HETATM   16  H4  UNL     1      24.929   7.600  49.605  1.00  0.00     0.077 HD
ENDROOT
BRANCH  15  17
HETATM   17  C14 UNL     1      22.518   6.301  48.985  1.00  0.00     0.231 C 
HETATM   18  O2  UNL     1      22.597   7.548  49.060  1.00  0.00    -0.272 OA
HETATM   19  N3  UNL     1      21.338   5.593  49.336  1.00  0.00    -0.358 N 
HETATM   20  H16 UNL     1      21.405   4.544  49.230  1.00  0.00     0.162 HD
BRANCH  19  21
HETATM   21  C15 UNL     1      20.126   6.280  49.807  1.00  0.00     0.152 C 
BRANCH  21  22
HETATM   22  C16 UNL     1      18.887   5.520  49.483  1.00  0.00     0.292 C 
BRANCH  22  23
HETATM   23  N4  UNL     1      19.007   4.164  49.952  1.00  0.00     0.094 N 
HETATM   24  C17 UNL     1      18.503   3.929  51.254  1.00  0.00     0.298 C 
HETATM   25  C18 UNL     1      18.529   2.426  51.520  1.00  0.00     0.198 C 
HETATM   26  O3  UNL     1      17.561   1.812  50.751  1.00  0.00    -0.388 OA
HETATM   27  C19 UNL     1      17.383   2.382  49.512  1.00  0.00     0.198 C 
HETATM   28  C20 UNL     1      18.566   3.162  49.040  1.00  0.00     0.298 C 
ENDBRANCH  22  23
ENDBRANCH  21  22
ENDBRANCH  19  21
ENDBRANCH  15  17
BRANCH  14  29
HETATM   29  C12 UNL     1      26.213   2.726  51.260  1.00  0.00     0.247 C 
HETATM   30  O1  UNL     1      27.395   2.822  51.449  1.00  0.00    -0.306 OA
ENDBRANCH  14  29
BRANCH  13  31
HETATM   31  N2  UNL     1      24.799   3.035  53.475  1.00  0.00    -0.305 NA
HETATM   32  H11 UNL     1      23.812   2.857  53.829  1.00  0.00     0.124 HD
HETATM   33  H12 UNL     1      25.629   3.115  52.815  1.00  0.00     0.124 HD
ENDBRANCH  13  31
TORSDOF 6
ENDMDL
MODEL 6
REMARK VINA RESULT:      -6.7      3.993      6.506
REMARK  6 active torsions:
REMARK  status: ('A' for Active; 'I' for Inactive)
REMARK    1  A    between atoms: C10_13  and  N2_14 
REMARK    2  A    between atoms: C11_15  and  C12_16 
REMARK    3  A    between atoms: C13_18  and  C14_19 
REMARK       I    between atoms: C14_19  and  N3_21 
REMARK    4  A    between atoms: N3_21  and  C15_22 
REMARK    5  A    between atoms: C15_22  and  C16_23 
REMARK    6  A    between atoms: C16_23  and  N4_24 
ROOT
HETATM    1  C1  UNL     1      23.070   8.018  49.896  1.00  0.00     0.061 C 
HETATM    2  P1  UNL     1      24.125   6.816  49.012  1.00  0.00    -0.026 P 
HETATM    3  N1  UNL     1      23.080   5.570  48.502  1.00  0.00    -0.272 NA
HETATM    4  C2  UNL     1      22.836   4.803  49.677  1.00  0.00     0.052 C 
HETATM    5  C3  UNL     1      23.825   4.929  50.666  1.00  0.00    -0.032 C 
HETATM    6  C4  UNL     1      23.416   4.117  51.732  1.00  0.00     0.065 C 
HETATM    7  C5  UNL     1      23.995   3.467  52.863  1.00  0.00    -0.019 C 
HETATM    8  C6  UNL     1      23.788   2.104  52.885  1.00  0.00     0.038 C 
HETATM    9  C7  UNL     1      23.081   1.198  51.959  1.00  0.00     0.116 C 
HETATM   10  F1  UNL     1      23.312  -0.013  52.615  1.00  0.00    -0.206 F 
HETATM   11  C8  UNL     1      22.386   0.962  50.890  1.00  0.00     0.044 C 
HETATM   12  C9  UNL     1      21.720   1.511  49.690  1.00  0.00     0.023 C 
HETATM   13  C10 UNL     1      21.467   2.725  49.098  1.00  0.00    -0.000 C 
HETATM   14  C11 UNL     1      21.724   3.885  49.949  1.00  0.00     0.143 C 
HETATM   15  C13 UNL     1      24.940   5.798  50.330  1.00  0.00     0.151 C 
HETATM   16  H4  UNL     1      24.883   7.200  48.139  1.00  0.00     0.077 HD
ENDROOT
BRANCH  15  17
HETATM   17  C14 UNL     1      26.041   5.106  49.607  1.00  0.00     0.231 C 
HETATM   18  O2  UNL     1      25.917   3.873  49.426  1.00  0.00    -0.272 OA
HETATM   19  N3  UNL     1      27.173   5.830  49.150  1.00  0.00    -0.358 N 
HETATM   20  H16 UNL     1      27.155   6.863  49.371  1.00  0.00     0.162 HD
BRANCH  19  21
HETATM   21  C15 UNL     1      28.277   5.180  48.427  1.00  0.00     0.152 C 
BRANCH  21  22
HETATM   22  C16 UNL     1      29.386   6.126  48.128  1.00  0.00     0.292 C 
BRANCH  22  23
HETATM   23  N4  UNL     1      30.644   5.546  48.523  1.00  0.00     0.094 N 
HETATM   24  C17 UNL     1      31.389   4.949  47.476  1.00  0.00     0.298 C 
HETATM   25  C18 UNL     1      32.761   4.560  48.020  1.00  0.00     0.198 C 
HETATM   26  O3  UNL     1      33.501   5.703  48.247  1.00  0.00    -0.388 OA
HETATM   27  C19 UNL     1      32.759   6.772  48.693  1.00  0.00     0.198 C 
HETATM   28  C20 UNL     1      31.470   6.375  49.335  1.00  0.00     0.298 C 
ENDBRANCH  22  23
ENDBRANCH  21  22
ENDBRANCH  19  21
ENDBRANCH  15  17
BRANCH  14  29
HETATM   29  C12 UNL     1      20.430   4.749  49.660  1.00  0.00     0.247 C 
HETATM   30  O1  UNL     1      19.444   5.302  49.256  1.00  0.00    -0.306 OA
ENDBRANCH  14  29
BRANCH  13  31
HETATM   31  N2  UNL     1      20.763   2.869  47.829  1.00  0.00    -0.305 NA
HETATM   32  H11 UNL     1      21.227   3.820  47.945  1.00  0.00     0.124 HD
HETATM   33  H12 UNL     1      20.463   1.868  48.027  1.00  0.00     0.124 HD
ENDBRANCH  13  31
TORSDOF 6
ENDMDL
MODEL 7
REMARK VINA RESULT:      -6.6      7.424     10.368
REMARK  6 active torsions:
REMARK  status: ('A' for Active; 'I' for Inactive)
REMARK    1  A    between atoms: C10_13  and  N2_14 
REMARK    2  A    between atoms: C11_15  and  C12_16 
REMARK    3  A    between atoms: C13_18  and  C14_19 
REMARK       I    between atoms: C14_19  and  N3_21 
REMARK    4  A    between atoms: N3_21  and  C15_22 
REMARK    5  A    between atoms: C15_22  and  C16_23 
REMARK    6  A    between atoms: C16_23  and  N4_24 
ROOT
HETATM    1  C1  UNL     1      34.816   3.222  46.680  1.00  0.00     0.061 C 
HETATM    2  P1  UNL     1      33.107   3.794  46.978  1.00  0.00    -0.026 P 
HETATM    3  N1  UNL     1      32.661   4.666  45.582  1.00  0.00    -0.272 NA
HETATM    4  C2  UNL     1      33.322   5.920  45.717  1.00  0.00     0.052 C 
HETATM    5  C3  UNL     1      33.655   6.260  47.038  1.00  0.00    -0.032 C 
HETATM    6  C4  UNL     1      34.293   7.505  46.971  1.00  0.00     0.065 C 
HETATM    7  C5  UNL     1      34.581   8.606  47.832  1.00  0.00    -0.019 C 
HETATM    8  C6  UNL     1      34.086   9.811  47.379  1.00  0.00     0.038 C 
HETATM    9  C7  UNL     1      33.317  10.169  46.171  1.00  0.00     0.116 C 
HETATM   10  F1  UNL     1      33.161  11.537  46.407  1.00  0.00    -0.206 F 
HETATM   11  C8  UNL     1      32.735   9.875  45.051  1.00  0.00     0.044 C 
HETATM   12  C9  UNL     1      32.390   8.831  44.062  1.00  0.00     0.023 C 
HETATM   13  C10 UNL     1      32.606   7.493  43.836  1.00  0.00    -0.000 C 
HETATM   14  C11 UNL     1      33.647   6.893  44.668  1.00  0.00     0.143 C 
HETATM   15  C13 UNL     1      33.259   5.298  48.051  1.00  0.00     0.151 C 
HETATM   16  H4  UNL     1      32.257   3.002  47.346  1.00  0.00     0.077 HD
ENDROOT
BRANCH  15  17
HETATM   17  C14 UNL     1      31.878   5.504  48.564  1.00  0.00     0.231 C 
HETATM   18  O2  UNL     1      31.740   5.624  49.802  1.00  0.00    -0.272 OA
HETATM   19  N3  UNL     1      30.776   5.562  47.669  1.00  0.00    -0.358 N 
HETATM   20  H16 UNL     1      31.028   5.443  46.650  1.00  0.00     0.162 HD
BRANCH  19  21
HETATM   21  C15 UNL     1      29.399   5.770  48.139  1.00  0.00     0.152 C 
BRANCH  21  22
HETATM   22  C16 UNL     1      28.854   7.089  47.716  1.00  0.00     0.292 C 
BRANCH  22  23
HETATM   23  N4  UNL     1      29.361   8.127  48.576  1.00  0.00     0.094 N 
HETATM   24  C17 UNL     1      30.301   9.002  47.977  1.00  0.00     0.298 C 
HETATM   25  C18 UNL     1      30.589  10.143  48.949  1.00  0.00     0.198 C 
HETATM   26  O3  UNL     1      29.481  10.964  49.027  1.00  0.00    -0.388 OA
HETATM   27  C19 UNL     1      28.281  10.297  48.939  1.00  0.00     0.198 C 
HETATM   28  C20 UNL     1      28.375   8.852  49.305  1.00  0.00     0.298 C 
ENDBRANCH  22  23
ENDBRANCH  21  22
ENDBRANCH  19  21
ENDBRANCH  15  17
BRANCH  14  29
HETATM   29  C12 UNL     1      34.432   6.048  43.585  1.00  0.00     0.247 C 
HETATM   30  O1  UNL     1      34.838   5.333  42.708  1.00  0.00    -0.306 OA
ENDBRANCH  14  29
BRANCH  13  31
HETATM   31  N2  UNL     1      32.047   6.770  42.699  1.00  0.00    -0.305 NA
HETATM   32  H11 UNL     1      32.678   6.041  43.149  1.00  0.00     0.124 HD
HETATM   33  H12 UNL     1      31.546   7.691  42.521  1.00  0.00     0.124 HD
ENDBRANCH  13  31
TORSDOF 6
ENDMDL
MODEL 8
REMARK VINA RESULT:      -6.5      2.653      3.266
REMARK  6 active torsions:
REMARK  status: ('A' for Active; 'I' for Inactive)
REMARK    1  A    between atoms: C10_13  and  N2_14 
REMARK    2  A    between atoms: C11_15  and  C12_16 
REMARK    3  A    between atoms: C13_18  and  C14_19 
REMARK       I    between atoms: C14_19  and  N3_21 
REMARK    4  A    between atoms: N3_21  and  C15_22 
REMARK    5  A    between atoms: C15_22  and  C16_23 
REMARK    6  A    between atoms: C16_23  and  N4_24 
ROOT
HETATM    1  C1  UNL     1      22.292   2.417  47.428  1.00  0.00     0.061 C 
HETATM    2  P1  UNL     1      22.593   2.528  49.227  1.00  0.00    -0.026 P 
HETATM    3  N1  UNL     1      22.000   4.054  49.702  1.00  0.00    -0.272 NA
HETATM    4  C2  UNL     1      22.997   4.975  49.271  1.00  0.00     0.052 C 
HETATM    5  C3  UNL     1      24.272   4.412  49.102  1.00  0.00    -0.032 C 
HETATM    6  C4  UNL     1      25.106   5.454  48.677  1.00  0.00     0.065 C 
HETATM    7  C5  UNL     1      26.500   5.762  48.644  1.00  0.00    -0.019 C 
HETATM    8  C6  UNL     1      26.825   6.932  49.296  1.00  0.00     0.038 C 
HETATM    9  C7  UNL     1      26.001   7.922  50.018  1.00  0.00     0.116 C 
HETATM   10  F1  UNL     1      27.011   8.800  50.417  1.00  0.00    -0.206 F 
HETATM   11  C8  UNL     1      24.867   8.371  50.455  1.00  0.00     0.044 C 
HETATM   12  C9  UNL     1      23.403   8.184  50.544  1.00  0.00     0.023 C 
HETATM   13  C10 UNL     1      22.429   7.327  50.091  1.00  0.00    -0.000 C 
HETATM   14  C11 UNL     1      22.861   6.416  49.032  1.00  0.00     0.143 C 
HETATM   15  C13 UNL     1      24.377   2.996  49.410  1.00  0.00     0.151 C 
HETATM   16  H4  UNL     1      22.237   1.621  49.958  1.00  0.00     0.077 HD
ENDROOT
BRANCH  15  17
HETATM   17  C14 UNL     1      24.668   2.715  50.842  1.00  0.00     0.231 C 
HETATM   18  O2  UNL     1      25.779   3.088  51.282  1.00  0.00    -0.272 OA
HETATM   19  N3  UNL     1      23.712   2.054  51.657  1.00  0.00    -0.358 N 
HETATM   20  H16 UNL     1      22.816   1.790  51.162  1.00  0.00     0.162 HD
BRANCH  19  21
HETATM   21  C15 UNL     1      23.962   1.766  53.078  1.00  0.00     0.152 C 
BRANCH  21  22
HETATM   22  C16 UNL     1      23.676   0.347  53.422  1.00  0.00     0.292 C 
BRANCH  22  23
HETATM   23  N4  UNL     1      22.301   0.209  53.826  1.00  0.00     0.094 N 
HETATM   24  C17 UNL     1      21.375   0.034  52.768  1.00  0.00     0.298 C 
HETATM   25  C18 UNL     1      20.008  -0.286  53.368  1.00  0.00     0.198 C 
HETATM   26  O3  UNL     1      20.034  -1.558  53.903  1.00  0.00    -0.388 OA
HETATM   27  C19 UNL     1      21.238  -1.902  54.475  1.00  0.00     0.198 C 
HETATM   28  C20 UNL     1      22.064  -0.725  54.876  1.00  0.00     0.298 C 
ENDBRANCH  22  23
ENDBRANCH  21  22
ENDBRANCH  19  21
ENDBRANCH  15  17
BRANCH  14  29
HETATM   29  C12 UNL     1      21.636   6.529  48.036  1.00  0.00     0.247 C 
HETATM   30  O1  UNL     1      20.626   6.454  47.391  1.00  0.00    -0.306 OA
ENDBRANCH  14  29
BRANCH  13  31
HETATM   31  N2  UNL     1      21.017   7.462  50.433  1.00  0.00    -0.305 NA
HETATM   32  H11 UNL     1      21.120   8.127  49.608  1.00  0.00     0.124 HD
HETATM   33  H12 UNL     1      21.263   6.755  51.188  1.00  0.00     0.124 HD
ENDBRANCH  13  31
TORSDOF 6
ENDMDL
MODEL 9
REMARK VINA RESULT:      -6.4      3.923      8.227
REMARK  6 active torsions:
REMARK  status: ('A' for Active; 'I' for Inactive)
REMARK    1  A    between atoms: C10_13  and  N2_14 
REMARK    2  A    between atoms: C11_15  and  C12_16 
REMARK    3  A    between atoms: C13_18  and  C14_19 
REMARK       I    between atoms: C14_19  and  N3_21 
REMARK    4  A    between atoms: N3_21  and  C15_22 
REMARK    5  A    between atoms: C15_22  and  C16_23 
REMARK    6  A    between atoms: C16_23  and  N4_24 
ROOT
HETATM    1  C1  UNL     1      25.975   0.721  52.081  1.00  0.00     0.061 C 
HETATM    2  P1  UNL     1      25.048   2.229  52.534  1.00  0.00    -0.026 P 
HETATM    3  N1  UNL     1      23.631   1.684  53.310  1.00  0.00    -0.272 NA
HETATM    4  C2  UNL     1      22.791   1.239  52.250  1.00  0.00     0.052 C 
HETATM    5  C3  UNL     1      23.084   1.807  51.000  1.00  0.00    -0.032 C 
HETATM    6  C4  UNL     1      22.171   1.253  50.095  1.00  0.00     0.065 C 
HETATM    7  C5  UNL     1      21.615   1.558  48.816  1.00  0.00    -0.019 C 
HETATM    8  C6  UNL     1      20.239   1.640  48.814  1.00  0.00     0.038 C 
HETATM    9  C7  UNL     1      19.238   1.472  49.886  1.00  0.00     0.116 C 
HETATM   10  F1  UNL     1      18.080   1.723  49.148  1.00  0.00    -0.206 F 
HETATM   11  C8  UNL     1      18.901   1.223  51.112  1.00  0.00     0.044 C 
HETATM   12  C9  UNL     1      19.341   0.881  52.482  1.00  0.00     0.023 C 
HETATM   13  C10 UNL     1      20.496   0.589  53.165  1.00  0.00    -0.000 C 
HETATM   14  C11 UNL     1      21.655   0.313  52.318  1.00  0.00     0.143 C 
HETATM   15  C13 UNL     1      24.176   2.767  50.990  1.00  0.00     0.151 C 
HETATM   16  H4  UNL     1      25.610   3.131  53.130  1.00  0.00     0.077 HD
ENDROOT
BRANCH  15  17
HETATM   17  C14 UNL     1      23.750   4.159  51.294  1.00  0.00     0.231 C 
HETATM   18  O2  UNL     1      22.613   4.312  51.795  1.00  0.00    -0.272 OA
HETATM   19  N3  UNL     1      24.612   5.254  51.022  1.00  0.00    -0.358 N 
HETATM   20  H16 UNL     1      25.542   4.989  50.596  1.00  0.00     0.162 HD
BRANCH  19  21
HETATM   21  C15 UNL     1      24.228   6.643  51.316  1.00  0.00     0.152 C 
BRANCH  21  22
HETATM   22  C16 UNL     1      24.053   7.451  50.078  1.00  0.00     0.292 C 
BRANCH  22  23
HETATM   23  N4  UNL     1      22.821   8.193  50.148  1.00  0.00     0.094 N 
HETATM   24  C17 UNL     1      22.468   8.890  48.966  1.00  0.00     0.298 C 
HETATM   25  C18 UNL     1      21.061   9.457  49.139  1.00  0.00     0.198 C 
HETATM   26  O3  UNL     1      20.148   8.422  49.114  1.00  0.00    -0.388 OA
HETATM   27  C19 UNL     1      20.599   7.261  49.698  1.00  0.00     0.198 C 
HETATM   28  C20 UNL     1      21.707   7.478  50.675  1.00  0.00     0.298 C 
ENDBRANCH  22  23
ENDBRANCH  21  22
ENDBRANCH  19  21
ENDBRANCH  15  17
BRANCH  14  29
HETATM   29  C12 UNL     1      22.242  -0.968  53.039  1.00  0.00     0.247 C 
HETATM   30  O1  UNL     1      22.788  -1.802  53.710  1.00  0.00    -0.306 OA
ENDBRANCH  14  29
BRANCH  13  31
HETATM   31  N2  UNL     1      20.534   0.317  54.598  1.00  0.00    -0.305 NA
HETATM   32  H11 UNL     1      20.685  -0.649  54.176  1.00  0.00     0.124 HD
HETATM   33  H12 UNL     1      20.369   1.364  54.673  1.00  0.00     0.124 HD
ENDBRANCH  13  31
TORSDOF 6
ENDMDL
