MODEL 1
REMARK VINA RESULT:      -9.1      0.000      0.000
REMARK  6 active torsions:
REMARK  status: ('A' for Active; 'I' for Inactive)
REMARK    1  A    between atoms: C2_2  and  O1_3 
REMARK    2  A    between atoms: O1_3  and  C3_4 
REMARK    3  A    between atoms: C6_7  and  N1_8 
REMARK    4  A    between atoms: N1_8  and  C7_9 
REMARK    5  A    between atoms: N2_16  and  S1_17 
REMARK    6  A    between atoms: S1_17  and  C14_20 
ROOT
HETATM    1  C7  UNL     1      21.915   0.981  51.882  1.00  0.00     0.030 A 
HETATM    2  C8  UNL     1      22.705   0.492  52.886  1.00  0.00     0.031 A 
HETATM    3  C9  UNL     1      24.046   0.759  53.051  1.00  0.00     0.034 A 
HETATM    4  C10 UNL     1      24.637   1.589  52.125  1.00  0.00     0.060 A 
HETATM    5  C11 UNL     1      23.894   2.101  51.107  1.00  0.00    -0.005 A 
HETATM    6  C12 UNL     1      24.715   2.898  50.320  1.00  0.00     0.032 A 
HETATM    7  C13 UNL     1      25.938   2.802  50.949  1.00  0.00     0.111 A 
HETATM    8  N2  UNL     1      25.917   2.013  52.047  1.00  0.00    -0.246 N 
HETATM    9  C20 UNL     1      22.558   1.800  50.992  1.00  0.00     0.043 A 
ENDROOT
BRANCH   1  10
HETATM   10  N1  UNL     1      20.541   0.690  51.739  1.00  0.00    -0.359 N 
HETATM   11  H8  UNL     1      20.327  -0.354  51.768  1.00  0.00     0.162 HD
BRANCH  10  12
HETATM   12  C6  UNL     1      19.299   1.283  51.553  1.00  0.00     0.172 A 
HETATM   13  C3  UNL     1      18.054   0.431  51.624  1.00  0.00     0.154 A 
HETATM   14  C4  UNL     1      17.455   1.624  51.333  1.00  0.00     0.034 A 
HETATM   15  C5  UNL     1      18.625   1.252  50.198  1.00  0.00     0.151 A 
HETATM   16  N4  UNL     1      16.923   2.909  51.064  1.00  0.00    -0.355 N 
HETATM   17  C21 UNL     1      18.203   3.439  51.560  1.00  0.00     0.204 C 
HETATM   18  H20 UNL     1      15.965   3.152  50.693  1.00  0.00     0.166 HD
HETATM   19  N3  UNL     1      19.165   2.655  52.004  1.00  0.00    -0.249 NA
BRANCH  13  20
HETATM   20  O1  UNL     1      17.708  -0.874  51.861  1.00  0.00    -0.369 OA
BRANCH  20  21
HETATM   21  C2  UNL     1      17.147  -1.273  53.086  1.00  0.00     0.165 C 
HETATM   22  C1  UNL     1      17.874  -2.518  53.612  1.00  0.00     0.033 C 
ENDBRANCH  20  21
ENDBRANCH  13  20
ENDBRANCH  10  12
ENDBRANCH   1  10
BRANCH   8  23
HETATM   23  S1  UNL     1      27.267   1.669  53.070  1.00  0.00     0.269 S 
HETATM   24  O2  UNL     1      28.422   2.505  52.605  1.00  0.00    -0.200 OA
HETATM   25  O3  UNL     1      26.866   2.112  54.452  1.00  0.00    -0.200 OA
BRANCH  23  26
HETATM   26  C14 UNL     1      27.750   0.010  53.040  1.00  0.00     0.080 A 
HETATM   27  C15 UNL     1      27.015  -1.084  52.632  1.00  0.00     0.025 A 
HETATM   28  C16 UNL     1      27.490  -2.373  52.640  1.00  0.00     0.002 A 
HETATM   29  C17 UNL     1      28.766  -2.602  53.076  1.00  0.00     0.000 A 
HETATM   30  C18 UNL     1      29.549  -1.574  53.494  1.00  0.00     0.002 A 
HETATM   31  C19 UNL     1      29.050  -0.281  53.477  1.00  0.00     0.025 A 
ENDBRANCH  23  26
ENDBRANCH   8  23
TORSDOF 6
ENDMDL
MODEL 2
REMARK VINA RESULT:      -8.9      1.507      2.611
REMARK  6 active torsions:
REMARK  status: ('A' for Active; 'I' for Inactive)
REMARK    1  A    between atoms: C2_2  and  O1_3 
REMARK    2  A    between atoms: O1_3  and  C3_4 
REMARK    3  A    between atoms: C6_7  and  N1_8 
REMARK    4  A    between atoms: N1_8  and  C7_9 
REMARK    5  A    between atoms: N2_16  and  S1_17 
REMARK    6  A    between atoms: S1_17  and  C14_20 
ROOT
HETATM    1  C7  UNL     1      22.302   1.019  51.114  1.00  0.00     0.030 A 
HETATM    2  C8  UNL     1      22.895   0.515  52.238  1.00  0.00     0.031 A 
HETATM    3  C9  UNL     1      24.185   0.773  52.647  1.00  0.00     0.034 A 
HETATM    4  C10 UNL     1      24.936   1.611  51.853  1.00  0.00     0.060 A 
HETATM    5  C11 UNL     1      24.392   2.139  50.724  1.00  0.00    -0.005 A 
HETATM    6  C12 UNL     1      25.343   2.940  50.109  1.00  0.00     0.032 A 
HETATM    7  C13 UNL     1      26.432   2.831  50.948  1.00  0.00     0.111 A 
HETATM    8  N2  UNL     1      26.210   2.029  52.014  1.00  0.00    -0.246 N 
HETATM    9  C20 UNL     1      23.098   1.846  50.365  1.00  0.00     0.043 A 
ENDROOT
BRANCH   1  10
HETATM   10  N1  UNL     1      20.975   0.737  50.721  1.00  0.00    -0.359 N 
HETATM   11  H8  UNL     1      20.908  -0.045  49.999  1.00  0.00     0.162 HD
BRANCH  10  12
HETATM   12  C6  UNL     1      19.657   1.124  50.922  1.00  0.00     0.172 A 
HETATM   13  C3  UNL     1      19.364   2.353  51.750  1.00  0.00     0.154 A 
HETATM   14  C4  UNL     1      18.074   1.987  51.485  1.00  0.00     0.034 A 
HETATM   15  C5  UNL     1      18.921   0.726  52.184  1.00  0.00     0.151 A 
HETATM   16  N4  UNL     1      16.775   1.548  51.131  1.00  0.00    -0.355 N 
HETATM   17  C21 UNL     1      17.427   0.800  50.045  1.00  0.00     0.204 C 
HETATM   18  H20 UNL     1      15.856   1.807  51.580  1.00  0.00     0.166 HD
HETATM   19  N3  UNL     1      18.729   0.839  49.845  1.00  0.00    -0.249 NA
BRANCH  13  20
HETATM   20  O1  UNL     1      20.049   3.333  52.421  1.00  0.00    -0.369 OA
BRANCH  20  21
HETATM   21  C2  UNL     1      20.719   4.360  51.735  1.00  0.00     0.165 C 
HETATM   22  C1  UNL     1      22.102   4.587  52.358  1.00  0.00     0.033 C 
ENDBRANCH  20  21
ENDBRANCH  13  20
ENDBRANCH  10  12
ENDBRANCH   1  10
BRANCH   8  23
HETATM   23  S1  UNL     1      27.352   1.666  53.260  1.00  0.00     0.269 S 
HETATM   24  O2  UNL     1      28.513   2.603  53.108  1.00  0.00    -0.200 OA
HETATM   25  O3  UNL     1      26.654   1.956  54.562  1.00  0.00    -0.200 OA
BRANCH  23  26
HETATM   26  C14 UNL     1      27.950   0.046  53.197  1.00  0.00     0.080 A 
HETATM   27  C15 UNL     1      29.198  -0.417  53.561  1.00  0.00     0.025 A 
HETATM   28  C16 UNL     1      29.581  -1.733  53.479  1.00  0.00     0.002 A 
HETATM   29  C17 UNL     1      28.683  -2.653  53.011  1.00  0.00     0.000 A 
HETATM   30  C18 UNL     1      27.436  -2.272  52.634  1.00  0.00     0.002 A 
HETATM   31  C19 UNL     1      27.070  -0.937  52.725  1.00  0.00     0.025 A 
ENDBRANCH  23  26
ENDBRANCH   8  23
TORSDOF 6
ENDMDL
MODEL 3
REMARK VINA RESULT:      -8.6      2.777      8.452
REMARK  6 active torsions:
REMARK  status: ('A' for Active; 'I' for Inactive)
REMARK    1  A    between atoms: C2_2  and  O1_3 
REMARK    2  A    between atoms: O1_3  and  C3_4 
REMARK    3  A    between atoms: C6_7  and  N1_8 
REMARK    4  A    between atoms: N1_8  and  C7_9 
REMARK    5  A    between atoms: N2_16  and  S1_17 
REMARK    6  A    between atoms: S1_17  and  C14_20 
ROOT
HETATM    1  C7  UNL     1      24.073   0.075  53.599  1.00  0.00     0.030 A 
HETATM    2  C8  UNL     1      23.812   1.133  52.772  1.00  0.00     0.031 A 
HETATM    3  C9  UNL     1      22.570   1.485  52.289  1.00  0.00     0.034 A 
HETATM    4  C10 UNL     1      21.505   0.703  52.675  1.00  0.00     0.060 A 
HETATM    5  C11 UNL     1      21.712  -0.361  53.497  1.00  0.00    -0.005 A 
HETATM    6  C12 UNL     1      20.492  -0.979  53.733  1.00  0.00     0.032 A 
HETATM    7  C13 UNL     1      19.607  -0.210  53.009  1.00  0.00     0.111 A 
HETATM    8  N2  UNL     1      20.198   0.817  52.357  1.00  0.00    -0.246 N 
HETATM    9  C20 UNL     1      22.974  -0.665  53.948  1.00  0.00     0.043 A 
ENDROOT
BRANCH   1  10
HETATM   10  N1  UNL     1      25.357  -0.260  54.079  1.00  0.00    -0.359 N 
HETATM   11  H8  UNL     1      25.333  -0.840  54.974  1.00  0.00     0.162 HD
BRANCH  10  12
HETATM   12  C6  UNL     1      26.712  -0.099  53.818  1.00  0.00     0.172 A 
HETATM   13  C3  UNL     1      27.143   0.619  52.562  1.00  0.00     0.154 A 
HETATM   14  C4  UNL     1      28.384   0.311  53.043  1.00  0.00     0.034 A 
HETATM   15  C5  UNL     1      27.440  -1.062  52.906  1.00  0.00     0.151 A 
HETATM   16  N4  UNL     1      29.625  -0.024  53.639  1.00  0.00    -0.355 N 
HETATM   17  C21 UNL     1      28.875  -0.171  54.895  1.00  0.00     0.204 C 
HETATM   18  H20 UNL     1      30.577  -0.056  53.183  1.00  0.00     0.166 HD
HETATM   19  N3  UNL     1      27.578   0.048  54.972  1.00  0.00    -0.249 NA
BRANCH  13  20
HETATM   20  O1  UNL     1      26.574   1.254  51.488  1.00  0.00    -0.369 OA
BRANCH  20  21
HETATM   21  C2  UNL     1      26.739   2.635  51.281  1.00  0.00     0.165 C 
HETATM   22  C1  UNL     1      26.348   2.997  49.843  1.00  0.00     0.033 C 
ENDBRANCH  20  21
ENDBRANCH  13  20
ENDBRANCH  10  12
ENDBRANCH   1  10
BRANCH   8  23
HETATM   23  S1  UNL     1      19.393   1.974  51.356  1.00  0.00     0.269 S 
HETATM   24  O2  UNL     1      18.114   1.357  50.875  1.00  0.00    -0.200 OA
HETATM   25  O3  UNL     1      19.069   3.143  52.248  1.00  0.00    -0.200 OA
BRANCH  23  26
HETATM   26  C14 UNL     1      20.317   2.455  49.977  1.00  0.00     0.080 A 
HETATM   27  C15 UNL     1      20.631   3.733  49.565  1.00  0.00     0.025 A 
HETATM   28  C16 UNL     1      21.381   4.017  48.450  1.00  0.00     0.002 A 
HETATM   29  C17 UNL     1      21.853   2.981  47.692  1.00  0.00     0.000 A 
HETATM   30  C18 UNL     1      21.584   1.695  48.035  1.00  0.00     0.002 A 
HETATM   31  C19 UNL     1      20.825   1.431  49.166  1.00  0.00     0.025 A 
ENDBRANCH  23  26
ENDBRANCH   8  23
TORSDOF 6
ENDMDL
MODEL 4
REMARK VINA RESULT:      -8.6      2.398      3.000
REMARK  6 active torsions:
REMARK  status: ('A' for Active; 'I' for Inactive)
REMARK    1  A    between atoms: C2_2  and  O1_3 
REMARK    2  A    between atoms: O1_3  and  C3_4 
REMARK    3  A    between atoms: C6_7  and  N1_8 
REMARK    4  A    between atoms: N1_8  and  C7_9 
REMARK    5  A    between atoms: N2_16  and  S1_17 
REMARK    6  A    between atoms: S1_17  and  C14_20 
ROOT
HETATM    1  C7  UNL     1      21.631   3.351  52.133  1.00  0.00     0.030 A 
HETATM    2  C8  UNL     1      22.862   3.943  52.060  1.00  0.00     0.031 A 
HETATM    3  C9  UNL     1      24.066   3.320  52.305  1.00  0.00     0.034 A 
HETATM    4  C10 UNL     1      24.021   1.988  52.653  1.00  0.00     0.060 A 
HETATM    5  C11 UNL     1      22.821   1.353  52.739  1.00  0.00    -0.005 A 
HETATM    6  C12 UNL     1      23.046   0.033  53.102  1.00  0.00     0.032 A 
HETATM    7  C13 UNL     1      24.419  -0.031  53.210  1.00  0.00     0.111 A 
HETATM    8  N2  UNL     1      25.034   1.143  52.943  1.00  0.00    -0.246 N 
HETATM    9  C20 UNL     1      21.651   2.026  52.483  1.00  0.00     0.043 A 
ENDROOT
BRANCH   1  10
HETATM   10  N1  UNL     1      20.413   4.016  51.874  1.00  0.00    -0.359 N 
HETATM   11  H8  UNL     1      20.310   4.930  52.414  1.00  0.00     0.162 HD
BRANCH  10  12
HETATM   12  C6  UNL     1      19.231   3.917  51.151  1.00  0.00     0.172 A 
HETATM   13  C3  UNL     1      19.271   3.388  49.737  1.00  0.00     0.154 A 
HETATM   14  C4  UNL     1      17.931   3.648  49.808  1.00  0.00     0.034 A 
HETATM   15  C5  UNL     1      18.824   5.010  50.187  1.00  0.00     0.151 A 
HETATM   16  N4  UNL     1      16.553   3.917  49.989  1.00  0.00    -0.355 N 
HETATM   17  C21 UNL     1      16.830   3.875  51.432  1.00  0.00     0.204 C 
HETATM   18  H20 UNL     1      15.809   4.029  49.247  1.00  0.00     0.166 HD
HETATM   19  N3  UNL     1      18.032   3.626  51.912  1.00  0.00    -0.249 NA
BRANCH  13  20
HETATM   20  O1  UNL     1      20.188   2.899  48.843  1.00  0.00    -0.369 OA
BRANCH  20  21
HETATM   21  C2  UNL     1      20.700   1.595  48.957  1.00  0.00     0.165 C 
HETATM   22  C1  UNL     1      22.228   1.621  48.832  1.00  0.00     0.033 C 
ENDBRANCH  20  21
ENDBRANCH  13  20
ENDBRANCH  10  12
ENDBRANCH   1  10
BRANCH   8  23
HETATM   23  S1  UNL     1      26.739   1.424  52.986  1.00  0.00     0.269 S 
HETATM   24  O2  UNL     1      27.120   2.145  51.728  1.00  0.00    -0.200 OA
HETATM   25  O3  UNL     1      26.982   2.331  54.164  1.00  0.00    -0.200 OA
BRANCH  23  26
HETATM   26  C14 UNL     1      27.675  -0.025  53.086  1.00  0.00     0.080 A 
HETATM   27  C15 UNL     1      27.305  -1.305  52.726  1.00  0.00     0.025 A 
HETATM   28  C16 UNL     1      28.126  -2.400  52.839  1.00  0.00     0.002 A 
HETATM   29  C17 UNL     1      29.388  -2.229  53.337  1.00  0.00     0.000 A 
HETATM   30  C18 UNL     1      29.822  -0.999  53.713  1.00  0.00     0.002 A 
HETATM   31  C19 UNL     1      28.977   0.094  53.590  1.00  0.00     0.025 A 
ENDBRANCH  23  26
ENDBRANCH   8  23
TORSDOF 6
ENDMDL
MODEL 5
REMARK VINA RESULT:      -8.5      1.308      2.060
REMARK  6 active torsions:
REMARK  status: ('A' for Active; 'I' for Inactive)
REMARK    1  A    between atoms: C2_2  and  O1_3 
REMARK    2  A    between atoms: O1_3  and  C3_4 
REMARK    3  A    between atoms: C6_7  and  N1_8 
REMARK    4  A    between atoms: N1_8  and  C7_9 
REMARK    5  A    between atoms: N2_16  and  S1_17 
REMARK    6  A    between atoms: S1_17  and  C14_20 
ROOT
HETATM    1  C7  UNL     1      20.862   1.881  52.441  1.00  0.00     0.030 A 
HETATM    2  C8  UNL     1      21.954   2.601  52.042  1.00  0.00     0.031 A 
HETATM    3  C9  UNL     1      23.268   2.272  52.297  1.00  0.00     0.034 A 
HETATM    4  C10 UNL     1      23.494   1.118  53.015  1.00  0.00     0.060 A 
HETATM    5  C11 UNL     1      22.441   0.367  53.435  1.00  0.00    -0.005 A 
HETATM    6  C12 UNL     1      22.931  -0.731  54.129  1.00  0.00     0.032 A 
HETATM    7  C13 UNL     1      24.297  -0.551  54.072  1.00  0.00     0.111 A 
HETATM    8  N2  UNL     1      24.664   0.565  53.401  1.00  0.00    -0.246 N 
HETATM    9  C20 UNL     1      21.151   0.745  53.150  1.00  0.00     0.043 A 
ENDROOT
BRANCH   1  10
HETATM   10  N1  UNL     1      19.527   2.244  52.162  1.00  0.00    -0.359 N 
HETATM   11  H8  UNL     1      19.239   3.168  52.611  1.00  0.00     0.162 HD
BRANCH  10  12
HETATM   12  C6  UNL     1      18.381   1.822  51.499  1.00  0.00     0.172 A 
HETATM   13  C3  UNL     1      17.810   0.457  51.805  1.00  0.00     0.154 A 
HETATM   14  C4  UNL     1      16.914   0.831  50.843  1.00  0.00     0.034 A 
HETATM   15  C5  UNL     1      18.482   0.941  50.272  1.00  0.00     0.151 A 
HETATM   16  N4  UNL     1      16.016   1.319  49.862  1.00  0.00    -0.355 N 
HETATM   17  C21 UNL     1      16.518   2.659  50.206  1.00  0.00     0.204 C 
HETATM   18  H20 UNL     1      15.335   0.769  49.272  1.00  0.00     0.166 HD
HETATM   19  N3  UNL     1      17.427   2.852  51.140  1.00  0.00    -0.249 NA
BRANCH  13  20
HETATM   20  O1  UNL     1      18.065  -0.608  52.628  1.00  0.00    -0.369 OA
BRANCH  20  21
HETATM   21  C2  UNL     1      17.112  -1.621  52.834  1.00  0.00     0.165 C 
HETATM   22  C1  UNL     1      17.725  -2.751  53.670  1.00  0.00     0.033 C 
ENDBRANCH  20  21
ENDBRANCH  13  20
ENDBRANCH  10  12
ENDBRANCH   1  10
BRANCH   8  23
HETATM   23  S1  UNL     1      26.287   1.099  53.141  1.00  0.00     0.269 S 
HETATM   24  O2  UNL     1      26.346   1.753  51.792  1.00  0.00    -0.200 OA
HETATM   25  O3  UNL     1      26.559   2.134  54.200  1.00  0.00    -0.200 OA
BRANCH  23  26
HETATM   26  C14 UNL     1      27.449  -0.180  53.176  1.00  0.00     0.080 A 
HETATM   27  C15 UNL     1      27.276  -1.498  52.808  1.00  0.00     0.025 A 
HETATM   28  C16 UNL     1      28.268  -2.447  52.868  1.00  0.00     0.002 A 
HETATM   29  C17 UNL     1      29.506  -2.078  53.317  1.00  0.00     0.000 A 
HETATM   30  C18 UNL     1      29.751  -0.798  53.697  1.00  0.00     0.002 A 
HETATM   31  C19 UNL     1      28.735   0.144  53.629  1.00  0.00     0.025 A 
ENDBRANCH  23  26
ENDBRANCH   8  23
TORSDOF 6
ENDMDL
MODEL 6
REMARK VINA RESULT:      -8.4      2.639      9.140
REMARK  6 active torsions:
REMARK  status: ('A' for Active; 'I' for Inactive)
REMARK    1  A    between atoms: C2_2  and  O1_3 
REMARK    2  A    between atoms: O1_3  and  C3_4 
REMARK    3  A    between atoms: C6_7  and  N1_8 
REMARK    4  A    between atoms: N1_8  and  C7_9 
REMARK    5  A    between atoms: N2_16  and  S1_17 
REMARK    6  A    between atoms: S1_17  and  C14_20 
ROOT
HETATM    1  C7  UNL     1      24.136   0.100  53.498  1.00  0.00     0.030 A 
HETATM    2  C8  UNL     1      23.792   1.125  52.660  1.00  0.00     0.031 A 
HETATM    3  C9  UNL     1      22.513   1.428  52.247  1.00  0.00     0.034 A 
HETATM    4  C10 UNL     1      21.498   0.628  52.723  1.00  0.00     0.060 A 
HETATM    5  C11 UNL     1      21.787  -0.404  53.560  1.00  0.00    -0.005 A 
HETATM    6  C12 UNL     1      20.603  -1.048  53.892  1.00  0.00     0.032 A 
HETATM    7  C13 UNL     1      19.652  -0.326  53.203  1.00  0.00     0.111 A 
HETATM    8  N2  UNL     1      20.170   0.697  52.486  1.00  0.00    -0.246 N 
HETATM    9  C20 UNL     1      23.083  -0.659  53.938  1.00  0.00     0.043 A 
ENDROOT
BRANCH   1  10
HETATM   10  N1  UNL     1      25.457  -0.185  53.905  1.00  0.00    -0.359 N 
HETATM   11  H8  UNL     1      25.518  -0.987  54.606  1.00  0.00     0.162 HD
BRANCH  10  12
HETATM   12  C6  UNL     1      26.776   0.215  53.737  1.00  0.00     0.172 A 
HETATM   13  C3  UNL     1      27.163   0.986  52.497  1.00  0.00     0.154 A 
HETATM   14  C4  UNL     1      28.400   0.913  53.072  1.00  0.00     0.034 A 
HETATM   15  C5  UNL     1      27.731  -0.610  52.901  1.00  0.00     0.151 A 
HETATM   16  N4  UNL     1      29.634   0.815  53.762  1.00  0.00    -0.355 N 
HETATM   17  C21 UNL     1      28.832   0.547  54.965  1.00  0.00     0.204 C 
HETATM   18  H20 UNL     1      30.607   0.950  53.375  1.00  0.00     0.166 HD
HETATM   19  N3  UNL     1      27.515   0.529  54.945  1.00  0.00    -0.249 NA
BRANCH  13  20
HETATM   20  O1  UNL     1      26.570   1.497  51.372  1.00  0.00    -0.369 OA
BRANCH  20  21
HETATM   21  C2  UNL     1      26.608   2.872  51.082  1.00  0.00     0.165 C 
HETATM   22  C1  UNL     1      26.384   3.095  49.581  1.00  0.00     0.033 C 
ENDBRANCH  20  21
ENDBRANCH  13  20
ENDBRANCH  10  12
ENDBRANCH   1  10
BRANCH   8  23
HETATM   23  S1  UNL     1      19.271   1.801  51.505  1.00  0.00     0.269 S 
HETATM   24  O2  UNL     1      19.123   3.082  52.270  1.00  0.00    -0.200 OA
HETATM   25  O3  UNL     1      20.114   2.053  50.283  1.00  0.00    -0.200 OA
BRANCH  23  26
HETATM   26  C14 UNL     1      17.693   1.229  51.092  1.00  0.00     0.080 A 
HETATM   27  C15 UNL     1      16.475   1.676  51.560  1.00  0.00     0.025 A 
HETATM   28  C16 UNL     1      15.265   1.158  51.166  1.00  0.00     0.002 A 
HETATM   29  C17 UNL     1      15.251   0.138  50.256  1.00  0.00     0.000 A 
HETATM   30  C18 UNL     1      16.411  -0.355  49.751  1.00  0.00     0.002 A 
HETATM   31  C19 UNL     1      17.621   0.182  50.162  1.00  0.00     0.025 A 
ENDBRANCH  23  26
ENDBRANCH   8  23
TORSDOF 6
ENDMDL
MODEL 7
REMARK VINA RESULT:      -8.4      5.303      9.987
REMARK  6 active torsions:
REMARK  status: ('A' for Active; 'I' for Inactive)
REMARK    1  A    between atoms: C2_2  and  O1_3 
REMARK    2  A    between atoms: O1_3  and  C3_4 
REMARK    3  A    between atoms: C6_7  and  N1_8 
REMARK    4  A    between atoms: N1_8  and  C7_9 
REMARK    5  A    between atoms: N2_16  and  S1_17 
REMARK    6  A    between atoms: S1_17  and  C14_20 
ROOT
HETATM    1  C7  UNL     1      27.284   5.627  48.766  1.00  0.00     0.030 A 
HETATM    2  C8  UNL     1      27.007   4.302  48.960  1.00  0.00     0.031 A 
HETATM    3  C9  UNL     1      25.943   3.802  49.679  1.00  0.00     0.034 A 
HETATM    4  C10 UNL     1      25.088   4.720  50.248  1.00  0.00     0.060 A 
HETATM    5  C11 UNL     1      25.320   6.050  50.084  1.00  0.00    -0.005 A 
HETATM    6  C12 UNL     1      24.325   6.755  50.748  1.00  0.00     0.032 A 
HETATM    7  C13 UNL     1      23.538   5.757  51.282  1.00  0.00     0.111 A 
HETATM    8  N2  UNL     1      23.981   4.513  50.992  1.00  0.00    -0.246 N 
HETATM    9  C20 UNL     1      26.398   6.491  49.356  1.00  0.00     0.043 A 
ENDROOT
BRANCH   1  10
HETATM   10  N1  UNL     1      28.383   6.109  48.023  1.00  0.00    -0.359 N 
HETATM   11  H8  UNL     1      28.118   6.427  47.040  1.00  0.00     0.162 HD
BRANCH  10  12
HETATM   12  C6  UNL     1      29.753   6.325  48.089  1.00  0.00     0.172 A 
HETATM   13  C3  UNL     1      30.271   7.620  48.669  1.00  0.00     0.154 A 
HETATM   14  C4  UNL     1      31.474   7.061  48.341  1.00  0.00     0.034 A 
HETATM   15  C5  UNL     1      30.460   7.120  47.012  1.00  0.00     0.151 A 
HETATM   16  N4  UNL     1      32.671   6.387  47.996  1.00  0.00    -0.355 N 
HETATM   17  C21 UNL     1      31.867   5.155  47.999  1.00  0.00     0.204 C 
HETATM   18  H20 UNL     1      33.636   6.797  47.873  1.00  0.00     0.166 HD
HETATM   19  N3  UNL     1      30.582   5.153  48.291  1.00  0.00    -0.249 NA
BRANCH  13  20
HETATM   20  O1  UNL     1      29.779   8.767  49.236  1.00  0.00    -0.369 OA
BRANCH  20  21
HETATM   21  C2  UNL     1      30.619   9.851  49.544  1.00  0.00     0.165 C 
HETATM   22  C1  UNL     1      30.161  11.099  48.779  1.00  0.00     0.033 C 
ENDBRANCH  20  21
ENDBRANCH  13  20
ENDBRANCH  10  12
ENDBRANCH   1  10
BRANCH   8  23
HETATM   23  S1  UNL     1      23.242   3.034  51.500  1.00  0.00     0.269 S 
HETATM   24  O2  UNL     1      22.004   3.380  52.273  1.00  0.00    -0.200 OA
HETATM   25  O3  UNL     1      22.848   2.311  50.240  1.00  0.00    -0.200 OA
BRANCH  23  26
HETATM   26  C14 UNL     1      24.259   2.066  52.508  1.00  0.00     0.080 A 
HETATM   27  C15 UNL     1      25.375   2.456  53.218  1.00  0.00     0.025 A 
HETATM   28  C16 UNL     1      26.121   1.609  54.000  1.00  0.00     0.002 A 
HETATM   29  C17 UNL     1      25.747   0.296  54.091  1.00  0.00     0.000 A 
HETATM   30  C18 UNL     1      24.659  -0.161  53.420  1.00  0.00     0.002 A 
HETATM   31  C19 UNL     1      23.921   0.712  52.636  1.00  0.00     0.025 A 
ENDBRANCH  23  26
ENDBRANCH   8  23
TORSDOF 6
ENDMDL
MODEL 8
REMARK VINA RESULT:      -8.2      3.972      6.560
REMARK  6 active torsions:
REMARK  status: ('A' for Active; 'I' for Inactive)
REMARK    1  A    between atoms: C2_2  and  O1_3 
REMARK    2  A    between atoms: O1_3  and  C3_4 
REMARK    3  A    between atoms: C6_7  and  N1_8 
REMARK    4  A    between atoms: N1_8  and  C7_9 
REMARK    5  A    between atoms: N2_16  and  S1_17 
REMARK    6  A    between atoms: S1_17  and  C14_20 
ROOT
HETATM    1  C7  UNL     1      23.274   1.972  50.833  1.00  0.00     0.030 A 
HETATM    2  C8  UNL     1      24.178   2.921  51.225  1.00  0.00     0.031 A 
HETATM    3  C9  UNL     1      24.432   4.105  50.567  1.00  0.00     0.034 A 
HETATM    4  C10 UNL     1      23.711   4.349  49.419  1.00  0.00     0.060 A 
HETATM    5  C11 UNL     1      22.799   3.437  48.988  1.00  0.00    -0.005 A 
HETATM    6  C12 UNL     1      22.214   3.914  47.823  1.00  0.00     0.032 A 
HETATM    7  C13 UNL     1      22.842   5.127  47.634  1.00  0.00     0.111 A 
HETATM    8  N2  UNL     1      23.755   5.414  48.589  1.00  0.00    -0.246 N 
HETATM    9  C20 UNL     1      22.588   2.272  49.686  1.00  0.00     0.043 A 
ENDROOT
BRANCH   1  10
HETATM   10  N1  UNL     1      23.034   0.768  51.530  1.00  0.00    -0.359 N 
HETATM   11  H8  UNL     1      23.271  -0.101  50.960  1.00  0.00     0.162 HD
BRANCH  10  12
HETATM   12  C6  UNL     1      22.571   0.263  52.738  1.00  0.00     0.172 A 
HETATM   13  C3  UNL     1      23.544  -0.393  53.688  1.00  0.00     0.154 A 
HETATM   14  C4  UNL     1      22.405  -0.579  54.420  1.00  0.00     0.034 A 
HETATM   15  C5  UNL     1      22.233  -1.206  52.879  1.00  0.00     0.151 A 
HETATM   16  N4  UNL     1      21.179  -0.694  55.120  1.00  0.00    -0.355 N 
HETATM   17  C21 UNL     1      20.692   0.391  54.254  1.00  0.00     0.204 C 
HETATM   18  H20 UNL     1      20.947  -1.339  55.922  1.00  0.00     0.166 HD
HETATM   19  N3  UNL     1      21.454   0.962  53.343  1.00  0.00    -0.249 NA
BRANCH  13  20
HETATM   20  O1  UNL     1      24.886  -0.662  53.768  1.00  0.00    -0.369 OA
BRANCH  20  21
HETATM   21  C2  UNL     1      25.848   0.345  53.583  1.00  0.00     0.165 C 
HETATM   22  C1  UNL     1      26.557   0.149  52.238  1.00  0.00     0.033 C 
ENDBRANCH  20  21
ENDBRANCH  13  20
ENDBRANCH  10  12
ENDBRANCH   1  10
BRANCH   8  23
HETATM   23  S1  UNL     1      24.726   6.842  48.663  1.00  0.00     0.269 S 
HETATM   24  O2  UNL     1      24.220   7.797  47.623  1.00  0.00    -0.200 OA
HETATM   25  O3  UNL     1      24.494   7.434  50.028  1.00  0.00    -0.200 OA
BRANCH  23  26
HETATM   26  C14 UNL     1      26.403   6.552  48.363  1.00  0.00     0.080 A 
HETATM   27  C15 UNL     1      27.143   5.432  48.678  1.00  0.00     0.025 A 
HETATM   28  C16 UNL     1      28.480   5.291  48.394  1.00  0.00     0.002 A 
HETATM   29  C17 UNL     1      29.130   6.314  47.761  1.00  0.00     0.000 A 
HETATM   30  C18 UNL     1      28.467   7.449  47.420  1.00  0.00     0.002 A 
HETATM   31  C19 UNL     1      27.117   7.570  47.716  1.00  0.00     0.025 A 
ENDBRANCH  23  26
ENDBRANCH   8  23
TORSDOF 6
ENDMDL
MODEL 9
REMARK VINA RESULT:      -8.2      5.865     10.587
REMARK  6 active torsions:
REMARK  status: ('A' for Active; 'I' for Inactive)
REMARK    1  A    between atoms: C2_2  and  O1_3 
REMARK    2  A    between atoms: O1_3  and  C3_4 
REMARK    3  A    between atoms: C6_7  and  N1_8 
REMARK    4  A    between atoms: N1_8  and  C7_9 
REMARK    5  A    between atoms: N2_16  and  S1_17 
REMARK    6  A    between atoms: S1_17  and  C14_20 
ROOT
HETATM    1  C7  UNL     1      28.616   6.327  48.208  1.00  0.00     0.030 A 
HETATM    2  C8  UNL     1      28.344   5.007  48.442  1.00  0.00     0.031 A 
HETATM    3  C9  UNL     1      27.167   4.511  48.959  1.00  0.00     0.034 A 
HETATM    4  C10 UNL     1      26.184   5.426  49.265  1.00  0.00     0.060 A 
HETATM    5  C11 UNL     1      26.406   6.751  49.051  1.00  0.00    -0.005 A 
HETATM    6  C12 UNL     1      25.273   7.455  49.436  1.00  0.00     0.032 A 
HETATM    7  C13 UNL     1      24.421   6.462  49.870  1.00  0.00     0.111 A 
HETATM    8  N2  UNL     1      24.951   5.222  49.776  1.00  0.00    -0.246 N 
HETATM    9  C20 UNL     1      27.600   7.188  48.531  1.00  0.00     0.043 A 
ENDROOT
BRANCH   1  10
HETATM   10  N1  UNL     1      29.832   6.805  47.674  1.00  0.00    -0.359 N 
HETATM   11  H8  UNL     1      29.734   7.189  46.684  1.00  0.00     0.162 HD
BRANCH  10  12
HETATM   12  C6  UNL     1      31.181   6.960  47.963  1.00  0.00     0.172 A 
HETATM   13  C3  UNL     1      32.032   5.735  48.204  1.00  0.00     0.154 A 
HETATM   14  C4  UNL     1      32.994   6.683  48.414  1.00  0.00     0.034 A 
HETATM   15  C5  UNL     1      31.668   6.951  49.397  1.00  0.00     0.151 A 
HETATM   16  N4  UNL     1      33.928   7.734  48.580  1.00  0.00    -0.355 N 
HETATM   17  C21 UNL     1      32.981   8.569  47.825  1.00  0.00     0.204 C 
HETATM   18  H20 UNL     1      34.870   7.699  49.056  1.00  0.00     0.166 HD
HETATM   19  N3  UNL     1      31.846   8.094  47.352  1.00  0.00    -0.249 NA
BRANCH  13  20
HETATM   20  O1  UNL     1      31.900   4.371  48.208  1.00  0.00    -0.369 OA
BRANCH  20  21
HETATM   21  C2  UNL     1      32.045   3.617  47.030  1.00  0.00     0.165 C 
HETATM   22  C1  UNL     1      33.005   2.446  47.275  1.00  0.00     0.033 C 
ENDBRANCH  20  21
ENDBRANCH  13  20
ENDBRANCH  10  12
ENDBRANCH   1  10
BRANCH   8  23
HETATM   23  S1  UNL     1      24.166   3.750  50.233  1.00  0.00     0.269 S 
HETATM   24  O2  UNL     1      22.833   4.103  50.821  1.00  0.00    -0.200 OA
HETATM   25  O3  UNL     1      23.952   2.980  48.957  1.00  0.00    -0.200 OA
BRANCH  23  26
HETATM   26  C14 UNL     1      25.049   2.831  51.400  1.00  0.00     0.080 A 
HETATM   27  C15 UNL     1      26.179   2.065  51.204  1.00  0.00     0.025 A 
HETATM   28  C16 UNL     1      26.816   1.369  52.202  1.00  0.00     0.002 A 
HETATM   29  C17 UNL     1      26.313   1.429  53.472  1.00  0.00     0.000 A 
HETATM   30  C18 UNL     1      25.203   2.163  53.742  1.00  0.00     0.002 A 
HETATM   31  C19 UNL     1      24.575   2.858  52.719  1.00  0.00     0.025 A 
ENDBRANCH  23  26
ENDBRANCH   8  23
TORSDOF 6
ENDMDL
