MODEL 1
REMARK VINA RESULT:      -7.3      0.000      0.000
REMARK  7 active torsions:
REMARK  status: ('A' for Active; 'I' for Inactive)
REMARK    1  A    between atoms: O1_2  and  C2_3 
REMARK    2  A    between atoms: C7_8  and  N1_9 
REMARK    3  A    between atoms: C9_11  and  O2_12 
REMARK    4  A    between atoms: C11_15  and  C12_16 
REMARK    5  A    between atoms: C12_16  and  C13_18 
REMARK    6  A    between atoms: C18_23  and  C19_24 
REMARK    7  A    between atoms: C19_24  and  N3_25 
ROOT
HETATM    1  N1  UNL     1      23.861   3.218  50.691  1.00  0.00    -0.311 N 
HETATM    2  C8  UNL     1      25.250   2.959  50.625  1.00  0.00     0.153 A 
HETATM    3  C9  UNL     1      25.932   2.881  51.751  1.00  0.00     0.156 A 
HETATM    4  N2  UNL     1      25.294   3.054  53.007  1.00  0.00    -0.344 N 
HETATM    5  C10 UNL     1      23.902   3.308  52.957  1.00  0.00     0.124 A 
HETATM    6  C11 UNL     1      23.125   3.407  51.897  1.00  0.00     0.106 A 
HETATM    7  H10 UNL     1      25.858   2.987  53.864  1.00  0.00     0.167 HD
ENDROOT
BRANCH   6   8
HETATM    8  C12 UNL     1      21.704   3.666  51.882  1.00  0.00     0.207 C 
HETATM    9  O3  UNL     1      21.439   4.836  52.285  1.00  0.00    -0.285 OA
BRANCH   8  10
HETATM   10  C13 UNL     1      20.520   2.945  51.528  1.00  0.00     0.004 A 
HETATM   11  C14 UNL     1      19.426   3.327  50.903  1.00  0.00     0.012 A 
HETATM   12  C15 UNL     1      18.425   2.288  50.725  1.00  0.00     0.004 A 
HETATM   13  C16 UNL     1      18.988   1.234  51.289  1.00  0.00    -0.073 A 
HETATM   14  C17 UNL     1      18.450  -0.163  51.430  1.00  0.00     0.044 C 
HETATM   15  C18 UNL     1      20.331   1.498  51.848  1.00  0.00     0.079 A 
BRANCH  15  16
HETATM   16  C19 UNL     1      20.347   1.225  53.310  1.00  0.00     0.286 C 
BRANCH  16  17
HETATM   17  N3  UNL     1      21.573   0.584  53.677  1.00  0.00     0.092 N 
HETATM   18  C20 UNL     1      22.140  -0.163  52.542  1.00  0.00     0.291 C 
HETATM   19  C21 UNL     1      23.618  -0.236  52.861  1.00  0.00     0.146 C 
HETATM   20  N4  UNL     1      23.874  -0.441  54.253  1.00  0.00    -0.413 N 
HETATM   21  C22 UNL     1      25.150  -0.988  54.552  1.00  0.00     0.143 C 
HETATM   22  C23 UNL     1      22.791  -1.006  54.991  1.00  0.00     0.146 C 
HETATM   23  C24 UNL     1      21.450  -0.423  54.710  1.00  0.00     0.291 C 
ENDBRANCH  16  17
ENDBRANCH  15  16
ENDBRANCH   8  10
ENDBRANCH   6   8
BRANCH   1  24
HETATM   24  C7  UNL     1      23.200   3.284  49.408  1.00  0.00     0.072 A 
HETATM   25  C2  UNL     1      23.057   4.506  48.750  1.00  0.00     0.095 A 
HETATM   26  C3  UNL     1      22.429   4.562  47.528  1.00  0.00     0.039 A 
HETATM   27  C4  UNL     1      21.942   3.387  46.957  1.00  0.00     0.003 A 
HETATM   28  C5  UNL     1      22.108   2.201  47.648  1.00  0.00     0.002 A 
HETATM   29  C6  UNL     1      22.735   2.110  48.880  1.00  0.00     0.033 A 
BRANCH  25  30
HETATM   30  O1  UNL     1      23.571   5.595  49.401  1.00  0.00    -0.354 OA
HETATM   31  C1  UNL     1      22.883   6.801  49.672  1.00  0.00     0.210 C 
ENDBRANCH  25  30
ENDBRANCH   1  24
BRANCH   3  32
HETATM   32  O2  UNL     1      27.287   2.628  51.670  1.00  0.00    -0.345 OA
HETATM   33  H9  UNL     1      27.928   2.681  52.463  1.00  0.00     0.219 HD
ENDBRANCH   3  32
TORSDOF 7
ENDMDL
MODEL 2
REMARK VINA RESULT:      -7.3      2.283      3.706
REMARK  7 active torsions:
REMARK  status: ('A' for Active; 'I' for Inactive)
REMARK    1  A    between atoms: O1_2  and  C2_3 
REMARK    2  A    between atoms: C7_8  and  N1_9 
REMARK    3  A    between atoms: C9_11  and  O2_12 
REMARK    4  A    between atoms: C11_15  and  C12_16 
REMARK    5  A    between atoms: C12_16  and  C13_18 
REMARK    6  A    between atoms: C18_23  and  C19_24 
REMARK    7  A    between atoms: C19_24  and  N3_25 
ROOT
HETATM    1  N1  UNL     1      24.514   4.160  50.428  1.00  0.00    -0.311 N 
HETATM    2  C8  UNL     1      25.350   4.663  49.404  1.00  0.00     0.153 A 
HETATM    3  C9  UNL     1      26.621   4.312  49.397  1.00  0.00     0.156 A 
HETATM    4  N2  UNL     1      27.148   3.448  50.393  1.00  0.00    -0.344 N 
HETATM    5  C10 UNL     1      26.224   3.004  51.369  1.00  0.00     0.124 A 
HETATM    6  C11 UNL     1      24.941   3.289  51.473  1.00  0.00     0.106 A 
HETATM    7  H10 UNL     1      28.143   3.197  50.356  1.00  0.00     0.167 HD
ENDROOT
BRANCH   6   8
HETATM    8  C12 UNL     1      24.024   2.815  52.483  1.00  0.00     0.207 C 
HETATM    9  O3  UNL     1      24.075   3.526  53.530  1.00  0.00    -0.285 OA
BRANCH   8  10
HETATM   10  C13 UNL     1      23.073   1.754  52.608  1.00  0.00     0.004 A 
HETATM   11  C14 UNL     1      21.758   1.754  52.528  1.00  0.00     0.012 A 
HETATM   12  C15 UNL     1      21.132   0.454  52.711  1.00  0.00     0.004 A 
HETATM   13  C16 UNL     1      22.164  -0.346  52.910  1.00  0.00    -0.073 A 
HETATM   14  C17 UNL     1      22.174  -1.828  53.164  1.00  0.00     0.044 C 
HETATM   15  C18 UNL     1      23.473   0.340  52.873  1.00  0.00     0.079 A 
BRANCH  15  16
HETATM   16  C19 UNL     1      24.182   0.176  54.171  1.00  0.00     0.286 C 
BRANCH  16  17
HETATM   17  N3  UNL     1      25.552  -0.167  53.942  1.00  0.00     0.092 N 
HETATM   18  C20 UNL     1      26.449   0.924  54.358  1.00  0.00     0.291 C 
HETATM   19  C21 UNL     1      27.761   0.224  54.639  1.00  0.00     0.146 C 
HETATM   20  N4  UNL     1      28.040  -0.825  53.706  1.00  0.00    -0.413 N 
HETATM   21  C22 UNL     1      29.410  -1.184  53.603  1.00  0.00     0.143 C 
HETATM   22  C23 UNL     1      27.349  -0.727  52.461  1.00  0.00     0.146 C 
HETATM   23  C24 UNL     1      25.905  -0.378  52.553  1.00  0.00     0.291 C 
ENDBRANCH  16  17
ENDBRANCH  15  16
ENDBRANCH   8  10
ENDBRANCH   6   8
BRANCH   1  24
HETATM   24  C7  UNL     1      23.139   4.598  50.352  1.00  0.00     0.072 A 
HETATM   25  C2  UNL     1      22.201   3.855  49.636  1.00  0.00     0.095 A 
HETATM   26  C3  UNL     1      20.894   4.275  49.568  1.00  0.00     0.039 A 
HETATM   27  C4  UNL     1      20.520   5.449  50.222  1.00  0.00     0.003 A 
HETATM   28  C5  UNL     1      21.488   6.151  50.918  1.00  0.00     0.002 A 
HETATM   29  C6  UNL     1      22.812   5.755  51.005  1.00  0.00     0.033 A 
BRANCH  25  30
HETATM   30  O1  UNL     1      22.676   2.721  49.033  1.00  0.00    -0.354 OA
HETATM   31  C1  UNL     1      21.930   1.547  48.771  1.00  0.00     0.210 C 
ENDBRANCH  25  30
ENDBRANCH   1  24
BRANCH   3  32
HETATM   32  O2  UNL     1      27.425   4.812  48.391  1.00  0.00    -0.345 OA
HETATM   33  H9  UNL     1      27.488   5.801  48.146  1.00  0.00     0.219 HD
ENDBRANCH   3  32
TORSDOF 7
ENDMDL
MODEL 3
REMARK VINA RESULT:      -7.2      2.167      4.207
REMARK  7 active torsions:
REMARK  status: ('A' for Active; 'I' for Inactive)
REMARK    1  A    between atoms: O1_2  and  C2_3 
REMARK    2  A    between atoms: C7_8  and  N1_9 
REMARK    3  A    between atoms: C9_11  and  O2_12 
REMARK    4  A    between atoms: C11_15  and  C12_16 
REMARK    5  A    between atoms: C12_16  and  C13_18 
REMARK    6  A    between atoms: C18_23  and  C19_24 
REMARK    7  A    between atoms: C19_24  and  N3_25 
ROOT
HETATM    1  N1  UNL     1      21.978   4.209  51.188  1.00  0.00    -0.311 N 
HETATM    2  C8  UNL     1      22.109   5.612  51.066  1.00  0.00     0.153 A 
HETATM    3  C9  UNL     1      23.278   6.162  51.330  1.00  0.00     0.156 A 
HETATM    4  N2  UNL     1      24.387   5.369  51.729  1.00  0.00    -0.344 N 
HETATM    5  C10 UNL     1      24.144   3.977  51.817  1.00  0.00     0.124 A 
HETATM    6  C11 UNL     1      23.025   3.324  51.579  1.00  0.00     0.106 A 
HETATM    7  H10 UNL     1      25.283   5.832  51.926  1.00  0.00     0.167 HD
ENDROOT
BRANCH   6   8
HETATM    8  C12 UNL     1      22.811   1.898  51.678  1.00  0.00     0.207 C 
HETATM    9  O3  UNL     1      23.048   1.315  50.580  1.00  0.00    -0.285 OA
BRANCH   8  10
HETATM   10  C13 UNL     1      22.404   0.977  52.692  1.00  0.00     0.004 A 
HETATM   11  C14 UNL     1      21.213   0.690  53.177  1.00  0.00     0.012 A 
HETATM   12  C15 UNL     1      21.202  -0.322  54.220  1.00  0.00     0.004 A 
HETATM   13  C16 UNL     1      22.479  -0.638  54.341  1.00  0.00    -0.073 A 
HETATM   14  C17 UNL     1      23.122  -1.636  55.264  1.00  0.00     0.044 C 
HETATM   15  C18 UNL     1      23.372   0.110  53.430  1.00  0.00     0.079 A 
BRANCH  15  16
HETATM   16  C19 UNL     1      24.369   0.892  54.207  1.00  0.00     0.286 C 
BRANCH  16  17
HETATM   17  N3  UNL     1      25.685   0.386  53.968  1.00  0.00     0.092 N 
HETATM   18  C20 UNL     1      26.617   1.472  53.623  1.00  0.00     0.291 C 
HETATM   19  C21 UNL     1      27.974   0.919  54.005  1.00  0.00     0.146 C 
HETATM   20  N4  UNL     1      28.109  -0.473  53.702  1.00  0.00    -0.413 N 
HETATM   21  C22 UNL     1      29.447  -0.931  53.576  1.00  0.00     0.143 C 
HETATM   22  C23 UNL     1      27.210  -0.966  52.708  1.00  0.00     0.146 C 
HETATM   23  C24 UNL     1      25.796  -0.518  52.842  1.00  0.00     0.291 C 
ENDBRANCH  16  17
ENDBRANCH  15  16
ENDBRANCH   8  10
ENDBRANCH   6   8
BRANCH   1  24
HETATM   24  C7  UNL     1      20.662   3.699  50.877  1.00  0.00     0.072 A 
HETATM   25  C2  UNL     1      20.342   3.321  49.573  1.00  0.00     0.095 A 
HETATM   26  C3  UNL     1      19.088   2.835  49.284  1.00  0.00     0.039 A 
HETATM   27  C4  UNL     1      18.146   2.725  50.306  1.00  0.00     0.003 A 
HETATM   28  C5  UNL     1      18.512   3.114  51.583  1.00  0.00     0.002 A 
HETATM   29  C6  UNL     1      19.765   3.608  51.906  1.00  0.00     0.033 A 
BRANCH  25  30
HETATM   30  O1  UNL     1      21.340   3.470  48.649  1.00  0.00    -0.354 OA
HETATM   31  C1  UNL     1      21.681   2.540  47.638  1.00  0.00     0.210 C 
ENDBRANCH  25  30
ENDBRANCH   1  24
BRANCH   3  32
HETATM   32  O2  UNL     1      23.391   7.532  51.207  1.00  0.00    -0.345 OA
HETATM   33  H9  UNL     1      24.107   8.001  50.650  1.00  0.00     0.219 HD
ENDBRANCH   3  32
TORSDOF 7
ENDMDL
MODEL 4
REMARK VINA RESULT:      -7.1      2.352      5.259
REMARK  7 active torsions:
REMARK  status: ('A' for Active; 'I' for Inactive)
REMARK    1  A    between atoms: O1_2  and  C2_3 
REMARK    2  A    between atoms: C7_8  and  N1_9 
REMARK    3  A    between atoms: C9_11  and  O2_12 
REMARK    4  A    between atoms: C11_15  and  C12_16 
REMARK    5  A    between atoms: C12_16  and  C13_18 
REMARK    6  A    between atoms: C18_23  and  C19_24 
REMARK    7  A    between atoms: C19_24  and  N3_25 
ROOT
HETATM    1  N1  UNL     1      23.725   4.140  51.419  1.00  0.00    -0.311 N 
HETATM    2  C8  UNL     1      23.988   5.525  51.537  1.00  0.00     0.153 A 
HETATM    3  C9  UNL     1      23.091   6.379  51.085  1.00  0.00     0.156 A 
HETATM    4  N2  UNL     1      21.884   5.926  50.489  1.00  0.00    -0.344 N 
HETATM    5  C10 UNL     1      21.724   4.520  50.422  1.00  0.00     0.124 A 
HETATM    6  C11 UNL     1      22.549   3.581  50.839  1.00  0.00     0.106 A 
HETATM    7  H10 UNL     1      21.208   6.620  50.148  1.00  0.00     0.167 HD
ENDROOT
BRANCH   6   8
HETATM    8  C12 UNL     1      22.353   2.152  50.757  1.00  0.00     0.207 C 
HETATM    9  O3  UNL     1      22.627   1.710  49.602  1.00  0.00    -0.285 OA
BRANCH   8  10
HETATM   10  C13 UNL     1      21.932   1.109  51.639  1.00  0.00     0.004 A 
HETATM   11  C14 UNL     1      22.618   0.185  52.280  1.00  0.00     0.012 A 
HETATM   12  C15 UNL     1      21.822  -0.713  53.100  1.00  0.00     0.004 A 
HETATM   13  C16 UNL     1      20.591  -0.271  52.915  1.00  0.00    -0.073 A 
HETATM   14  C17 UNL     1      19.304  -0.787  53.497  1.00  0.00     0.044 C 
HETATM   15  C18 UNL     1      20.500   0.891  52.005  1.00  0.00     0.079 A 
BRANCH  15  16
HETATM   16  C19 UNL     1      19.649   0.564  50.829  1.00  0.00     0.286 C 
BRANCH  16  17
HETATM   17  N3  UNL     1      18.650   1.572  50.651  1.00  0.00     0.092 N 
HETATM   18  C20 UNL     1      18.841   2.290  49.380  1.00  0.00     0.291 C 
HETATM   19  C21 UNL     1      17.462   2.824  49.056  1.00  0.00     0.146 C 
HETATM   20  N4  UNL     1      16.759   3.279  50.216  1.00  0.00    -0.413 N 
HETATM   21  C22 UNL     1      15.712   4.203  49.957  1.00  0.00     0.143 C 
HETATM   22  C23 UNL     1      17.584   3.605  51.335  1.00  0.00     0.146 C 
HETATM   23  C24 UNL     1      18.668   2.632  51.638  1.00  0.00     0.291 C 
ENDBRANCH  16  17
ENDBRANCH  15  16
ENDBRANCH   8  10
ENDBRANCH   6   8
BRANCH   1  24
HETATM   24  C7  UNL     1      24.765   3.284  51.943  1.00  0.00     0.072 A 
HETATM   25  C2  UNL     1      25.810   2.860  51.122  1.00  0.00     0.095 A 
HETATM   26  C3  UNL     1      26.797   2.047  51.626  1.00  0.00     0.039 A 
HETATM   27  C4  UNL     1      26.742   1.656  52.964  1.00  0.00     0.003 A 
HETATM   28  C5  UNL     1      25.685   2.103  53.737  1.00  0.00     0.002 A 
HETATM   29  C6  UNL     1      24.675   2.921  53.259  1.00  0.00     0.033 A 
BRANCH  25  30
HETATM   30  O1  UNL     1      25.766   3.303  49.827  1.00  0.00    -0.354 OA
HETATM   31  C1  UNL     1      26.693   4.183  49.219  1.00  0.00     0.210 C 
ENDBRANCH  25  30
ENDBRANCH   1  24
BRANCH   3  32
HETATM   32  O2  UNL     1      23.361   7.727  51.208  1.00  0.00    -0.345 OA
HETATM   33  H9  UNL     1      23.739   8.306  50.457  1.00  0.00     0.219 HD
ENDBRANCH   3  32
TORSDOF 7
ENDMDL
MODEL 5
REMARK VINA RESULT:      -7.0      2.071      4.701
REMARK  7 active torsions:
REMARK  status: ('A' for Active; 'I' for Inactive)
REMARK    1  A    between atoms: O1_2  and  C2_3 
REMARK    2  A    between atoms: C7_8  and  N1_9 
REMARK    3  A    between atoms: C9_11  and  O2_12 
REMARK    4  A    between atoms: C11_15  and  C12_16 
REMARK    5  A    between atoms: C12_16  and  C13_18 
REMARK    6  A    between atoms: C18_23  and  C19_24 
REMARK    7  A    between atoms: C19_24  and  N3_25 
ROOT
HETATM    1  N1  UNL     1      22.984   4.483  50.172  1.00  0.00    -0.311 N 
HETATM    2  C8  UNL     1      22.089   4.727  49.104  1.00  0.00     0.153 A 
HETATM    3  C9  UNL     1      20.796   4.768  49.359  1.00  0.00     0.156 A 
HETATM    4  N2  UNL     1      20.304   4.573  50.677  1.00  0.00    -0.344 N 
HETATM    5  C10 UNL     1      21.286   4.337  51.669  1.00  0.00     0.124 A 
HETATM    6  C11 UNL     1      22.595   4.275  51.528  1.00  0.00     0.106 A 
HETATM    7  H10 UNL     1      19.290   4.611  50.839  1.00  0.00     0.167 HD
ENDROOT
BRANCH   6   8
HETATM    8  C12 UNL     1      23.572   4.034  52.565  1.00  0.00     0.207 C 
HETATM    9  O3  UNL     1      23.793   5.077  53.248  1.00  0.00    -0.285 OA
BRANCH   8  10
HETATM   10  C13 UNL     1      24.351   2.926  53.020  1.00  0.00     0.004 A 
HETATM   11  C14 UNL     1      25.594   2.857  53.450  1.00  0.00     0.012 A 
HETATM   12  C15 UNL     1      26.041   1.528  53.832  1.00  0.00     0.004 A 
HETATM   13  C16 UNL     1      24.975   0.781  53.605  1.00  0.00    -0.073 A 
HETATM   14  C17 UNL     1      24.799  -0.699  53.804  1.00  0.00     0.044 C 
HETATM   15  C18 UNL     1      23.814   1.533  53.082  1.00  0.00     0.079 A 
BRANCH  15  16
HETATM   16  C19 UNL     1      23.415   1.010  51.749  1.00  0.00     0.286 C 
BRANCH  16  17
HETATM   17  N3  UNL     1      21.989   1.023  51.623  1.00  0.00     0.092 N 
HETATM   18  C20 UNL     1      21.387  -0.143  52.290  1.00  0.00     0.291 C 
HETATM   19  C21 UNL     1      19.978   0.311  52.608  1.00  0.00     0.146 C 
HETATM   20  N4  UNL     1      19.407   1.110  51.567  1.00  0.00    -0.413 N 
HETATM   21  C22 UNL     1      17.988   1.160  51.562  1.00  0.00     0.143 C 
HETATM   22  C23 UNL     1      20.006   0.948  50.281  1.00  0.00     0.146 C 
HETATM   23  C24 UNL     1      21.495   0.923  50.266  1.00  0.00     0.291 C 
ENDBRANCH  16  17
ENDBRANCH  15  16
ENDBRANCH   8  10
ENDBRANCH   6   8
BRANCH   1  24
HETATM   24  C7  UNL     1      24.378   4.458  49.794  1.00  0.00     0.072 A 
HETATM   25  C2  UNL     1      25.064   5.647  49.548  1.00  0.00     0.095 A 
HETATM   26  C3  UNL     1      26.391   5.617  49.191  1.00  0.00     0.039 A 
HETATM   27  C4  UNL     1      27.040   4.388  49.079  1.00  0.00     0.003 A 
HETATM   28  C5  UNL     1      26.316   3.236  49.332  1.00  0.00     0.002 A 
HETATM   29  C6  UNL     1      24.979   3.233  49.694  1.00  0.00     0.033 A 
BRANCH  25  30
HETATM   30  O1  UNL     1      24.331   6.796  49.687  1.00  0.00    -0.354 OA
HETATM   31  C1  UNL     1      24.299   7.626  50.832  1.00  0.00     0.210 C 
ENDBRANCH  25  30
ENDBRANCH   1  24
BRANCH   3  32
HETATM   32  O2  UNL     1      19.935   5.006  48.307  1.00  0.00    -0.345 OA
HETATM   33  H9  UNL     1      19.190   4.369  48.020  1.00  0.00     0.219 HD
ENDBRANCH   3  32
TORSDOF 7
ENDMDL
MODEL 6
REMARK VINA RESULT:      -6.9      2.475      4.092
REMARK  7 active torsions:
REMARK  status: ('A' for Active; 'I' for Inactive)
REMARK    1  A    between atoms: O1_2  and  C2_3 
REMARK    2  A    between atoms: C7_8  and  N1_9 
REMARK    3  A    between atoms: C9_11  and  O2_12 
REMARK    4  A    between atoms: C11_15  and  C12_16 
REMARK    5  A    between atoms: C12_16  and  C13_18 
REMARK    6  A    between atoms: C18_23  and  C19_24 
REMARK    7  A    between atoms: C19_24  and  N3_25 
ROOT
HETATM    1  N1  UNL     1      24.676   5.158  49.403  1.00  0.00    -0.311 N 
HETATM    2  C8  UNL     1      25.681   6.142  49.250  1.00  0.00     0.153 A 
HETATM    3  C9  UNL     1      26.938   5.753  49.172  1.00  0.00     0.156 A 
HETATM    4  N2  UNL     1      27.285   4.378  49.239  1.00  0.00    -0.344 N 
HETATM    5  C10 UNL     1      26.201   3.480  49.391  1.00  0.00     0.124 A 
HETATM    6  C11 UNL     1      24.915   3.755  49.480  1.00  0.00     0.106 A 
HETATM    7  H10 UNL     1      28.275   4.112  49.174  1.00  0.00     0.167 HD
ENDROOT
BRANCH   6   8
HETATM    8  C12 UNL     1      23.832   2.811  49.634  1.00  0.00     0.207 C 
HETATM    9  O3  UNL     1      23.353   2.466  48.514  1.00  0.00    -0.285 OA
BRANCH   8  10
HETATM   10  C13 UNL     1      23.163   2.166  50.720  1.00  0.00     0.004 A 
HETATM   11  C14 UNL     1      21.887   2.110  51.042  1.00  0.00     0.012 A 
HETATM   12  C15 UNL     1      21.589   1.342  52.240  1.00  0.00     0.004 A 
HETATM   13  C16 UNL     1      22.781   0.929  52.632  1.00  0.00    -0.073 A 
HETATM   14  C17 UNL     1      23.144   0.085  53.822  1.00  0.00     0.044 C 
HETATM   15  C18 UNL     1      23.888   1.377  51.760  1.00  0.00     0.079 A 
BRANCH  15  16
HETATM   16  C19 UNL     1      24.858   2.198  52.533  1.00  0.00     0.286 C 
BRANCH  16  17
HETATM   17  N3  UNL     1      26.011   1.417  52.861  1.00  0.00     0.092 N 
HETATM   18  C20 UNL     1      27.248   2.194  52.677  1.00  0.00     0.291 C 
HETATM   19  C21 UNL     1      28.240   1.518  53.599  1.00  0.00     0.146 C 
HETATM   20  N4  UNL     1      28.100   0.094  53.612  1.00  0.00    -0.413 N 
HETATM   21  C22 UNL     1      29.252  -0.616  54.044  1.00  0.00     0.143 C 
HETATM   22  C23 UNL     1      27.446  -0.461  52.471  1.00  0.00     0.146 C 
HETATM   23  C24 UNL     1      26.220   0.255  52.022  1.00  0.00     0.291 C 
ENDBRANCH  16  17
ENDBRANCH  15  16
ENDBRANCH   8  10
ENDBRANCH   6   8
BRANCH   1  24
HETATM   24  C7  UNL     1      23.330   5.680  49.478  1.00  0.00     0.072 A 
HETATM   25  C2  UNL     1      22.737   5.924  50.717  1.00  0.00     0.095 A 
HETATM   26  C3  UNL     1      21.458   6.423  50.783  1.00  0.00     0.039 A 
HETATM   27  C4  UNL     1      20.764   6.682  49.602  1.00  0.00     0.003 A 
HETATM   28  C5  UNL     1      21.396   6.423  48.398  1.00  0.00     0.002 A 
HETATM   29  C6  UNL     1      22.683   5.920  48.297  1.00  0.00     0.033 A 
BRANCH  25  30
HETATM   30  O1  UNL     1      23.507   5.634  51.812  1.00  0.00    -0.354 OA
HETATM   31  C1  UNL     1      23.046   5.061  53.021  1.00  0.00     0.210 C 
ENDBRANCH  25  30
ENDBRANCH   1  24
BRANCH   3  32
HETATM   32  O2  UNL     1      27.908   6.725  49.024  1.00  0.00    -0.345 OA
HETATM   33  H9  UNL     1      28.907   6.562  49.156  1.00  0.00     0.219 HD
ENDBRANCH   3  32
TORSDOF 7
ENDMDL
MODEL 7
REMARK VINA RESULT:      -6.9      8.830     12.313
REMARK  7 active torsions:
REMARK  status: ('A' for Active; 'I' for Inactive)
REMARK    1  A    between atoms: O1_2  and  C2_3 
REMARK    2  A    between atoms: C7_8  and  N1_9 
REMARK    3  A    between atoms: C9_11  and  O2_12 
REMARK    4  A    between atoms: C11_15  and  C12_16 
REMARK    5  A    between atoms: C12_16  and  C13_18 
REMARK    6  A    between atoms: C18_23  and  C19_24 
REMARK    7  A    between atoms: C19_24  and  N3_25 
ROOT
HETATM    1  N1  UNL     1      33.233   5.902  45.701  1.00  0.00    -0.311 N 
HETATM    2  C8  UNL     1      34.024   5.939  44.529  1.00  0.00     0.153 A 
HETATM    3  C9  UNL     1      34.049   7.050  43.819  1.00  0.00     0.156 A 
HETATM    4  N2  UNL     1      33.301   8.190  44.217  1.00  0.00    -0.344 N 
HETATM    5  C10 UNL     1      32.546   8.043  45.406  1.00  0.00     0.124 A 
HETATM    6  C11 UNL     1      32.447   6.987  46.188  1.00  0.00     0.106 A 
HETATM    7  H10 UNL     1      33.345   9.038  43.639  1.00  0.00     0.167 HD
ENDROOT
BRANCH   6   8
HETATM    8  C12 UNL     1      31.667   6.871  47.398  1.00  0.00     0.207 C 
HETATM    9  O3  UNL     1      32.310   7.282  48.408  1.00  0.00    -0.285 OA
BRANCH   8  10
HETATM   10  C13 UNL     1      30.359   6.414  47.751  1.00  0.00     0.004 A 
HETATM   11  C14 UNL     1      29.900   5.205  47.999  1.00  0.00     0.012 A 
HETATM   12  C15 UNL     1      28.486   5.140  48.331  1.00  0.00     0.004 A 
HETATM   13  C16 UNL     1      28.109   6.404  48.268  1.00  0.00    -0.073 A 
HETATM   14  C17 UNL     1      26.748   6.997  48.509  1.00  0.00     0.044 C 
HETATM   15  C18 UNL     1      29.196   7.339  47.908  1.00  0.00     0.079 A 
BRANCH  15  16
HETATM   16  C19 UNL     1      28.864   8.063  46.652  1.00  0.00     0.286 C 
BRANCH  16  17
HETATM   17  N3  UNL     1      28.933   9.476  46.867  1.00  0.00     0.092 N 
HETATM   18  C20 UNL     1      29.361   9.783  48.242  1.00  0.00     0.291 C 
HETATM   19  C21 UNL     1      29.963  11.168  48.131  1.00  0.00     0.146 C 
HETATM   20  N4  UNL     1      29.238  12.016  47.235  1.00  0.00    -0.413 N 
HETATM   21  C22 UNL     1      29.431  13.407  47.442  1.00  0.00     0.143 C 
HETATM   22  C23 UNL     1      27.886  11.626  46.994  1.00  0.00     0.146 C 
HETATM   23  C24 UNL     1      27.670  10.174  46.748  1.00  0.00     0.291 C 
ENDBRANCH  16  17
ENDBRANCH  15  16
ENDBRANCH   8  10
ENDBRANCH   6   8
BRANCH   1  24
HETATM   24  C7  UNL     1      33.270   4.643  46.411  1.00  0.00     0.072 A 
HETATM   25  C2  UNL     1      34.210   4.430  47.420  1.00  0.00     0.095 A 
HETATM   26  C3  UNL     1      34.239   3.232  48.093  1.00  0.00     0.039 A 
HETATM   27  C4  UNL     1      33.321   2.237  47.757  1.00  0.00     0.003 A 
HETATM   28  C5  UNL     1      32.410   2.497  46.748  1.00  0.00     0.002 A 
HETATM   29  C6  UNL     1      32.354   3.693  46.051  1.00  0.00     0.033 A 
BRANCH  25  30
HETATM   30  O1  UNL     1      35.062   5.472  47.668  1.00  0.00    -0.354 OA
HETATM   31  C1  UNL     1      35.466   5.927  48.946  1.00  0.00     0.210 C 
ENDBRANCH  25  30
ENDBRANCH   1  24
BRANCH   3  32
HETATM   32  O2  UNL     1      34.825   7.071  42.677  1.00  0.00    -0.345 OA
HETATM   33  H9  UNL     1      34.470   6.875  41.740  1.00  0.00     0.219 HD
ENDBRANCH   3  32
TORSDOF 7
ENDMDL
MODEL 8
REMARK VINA RESULT:      -6.8      2.281      3.538
REMARK  7 active torsions:
REMARK  status: ('A' for Active; 'I' for Inactive)
REMARK    1  A    between atoms: O1_2  and  C2_3 
REMARK    2  A    between atoms: C7_8  and  N1_9 
REMARK    3  A    between atoms: C9_11  and  O2_12 
REMARK    4  A    between atoms: C11_15  and  C12_16 
REMARK    5  A    between atoms: C12_16  and  C13_18 
REMARK    6  A    between atoms: C18_23  and  C19_24 
REMARK    7  A    between atoms: C19_24  and  N3_25 
ROOT
HETATM    1  N1  UNL     1      23.478   5.030  49.697  1.00  0.00    -0.311 N 
HETATM    2  C8  UNL     1      24.256   6.194  49.901  1.00  0.00     0.153 A 
HETATM    3  C9  UNL     1      25.557   6.061  50.068  1.00  0.00     0.156 A 
HETATM    4  N2  UNL     1      26.172   4.781  50.045  1.00  0.00    -0.344 N 
HETATM    5  C10 UNL     1      25.300   3.687  49.832  1.00  0.00     0.124 A 
HETATM    6  C11 UNL     1      23.994   3.702  49.656  1.00  0.00     0.106 A 
HETATM    7  H10 UNL     1      27.189   4.717  50.178  1.00  0.00     0.167 HD
ENDROOT
BRANCH   6   8
HETATM    8  C12 UNL     1      23.132   2.563  49.439  1.00  0.00     0.207 C 
HETATM    9  O3  UNL     1      23.078   2.246  48.215  1.00  0.00    -0.285 OA
BRANCH   8  10
HETATM   10  C13 UNL     1      22.326   1.702  50.247  1.00  0.00     0.004 A 
HETATM   11  C14 UNL     1      21.049   1.387  50.173  1.00  0.00     0.012 A 
HETATM   12  C15 UNL     1      20.584   0.460  51.192  1.00  0.00     0.004 A 
HETATM   13  C16 UNL     1      21.675   0.229  51.901  1.00  0.00    -0.073 A 
HETATM   14  C17 UNL     1      21.848  -0.655  53.106  1.00  0.00     0.044 C 
HETATM   15  C18 UNL     1      22.870   0.953  51.419  1.00  0.00     0.079 A 
BRANCH  15  16
HETATM   16  C19 UNL     1      23.397   1.850  52.481  1.00  0.00     0.286 C 
BRANCH  16  17
HETATM   17  N3  UNL     1      24.661   1.369  52.948  1.00  0.00     0.092 N 
HETATM   18  C20 UNL     1      25.553   2.483  53.309  1.00  0.00     0.291 C 
HETATM   19  C21 UNL     1      26.513   1.869  54.306  1.00  0.00     0.146 C 
HETATM   20  N4  UNL     1      26.887   0.531  53.962  1.00  0.00    -0.413 N 
HETATM   21  C22 UNL     1      28.103   0.083  54.541  1.00  0.00     0.143 C 
HETATM   22  C23 UNL     1      26.715   0.189  52.586  1.00  0.00     0.146 C 
HETATM   23  C24 UNL     1      25.432   0.628  51.971  1.00  0.00     0.291 C 
ENDBRANCH  16  17
ENDBRANCH  15  16
ENDBRANCH   8  10
ENDBRANCH   6   8
BRANCH   1  24
HETATM   24  C7  UNL     1      22.064   5.276  49.523  1.00  0.00     0.072 A 
HETATM   25  C2  UNL     1      21.539   5.502  48.251  1.00  0.00     0.095 A 
HETATM   26  C3  UNL     1      20.193   5.733  48.091  1.00  0.00     0.039 A 
HETATM   27  C4  UNL     1      19.364   5.738  49.212  1.00  0.00     0.003 A 
HETATM   28  C5  UNL     1      19.933   5.509  50.453  1.00  0.00     0.002 A 
HETATM   29  C6  UNL     1      21.284   5.274  50.647  1.00  0.00     0.033 A 
BRANCH  25  30
HETATM   30  O1  UNL     1      22.442   5.476  47.221  1.00  0.00    -0.354 OA
HETATM   31  C1  UNL     1      22.159   5.128  45.879  1.00  0.00     0.210 C 
ENDBRANCH  25  30
ENDBRANCH   1  24
BRANCH   3  32
HETATM   32  O2  UNL     1      26.304   7.205  50.267  1.00  0.00    -0.345 OA
HETATM   33  H9  UNL     1      27.323   7.222  50.327  1.00  0.00     0.219 HD
ENDBRANCH   3  32
TORSDOF 7
ENDMDL
MODEL 9
REMARK VINA RESULT:      -6.8      2.669      7.380
REMARK  7 active torsions:
REMARK  status: ('A' for Active; 'I' for Inactive)
REMARK    1  A    between atoms: O1_2  and  C2_3 
REMARK    2  A    between atoms: C7_8  and  N1_9 
REMARK    3  A    between atoms: C9_11  and  O2_12 
REMARK    4  A    between atoms: C11_15  and  C12_16 
REMARK    5  A    between atoms: C12_16  and  C13_18 
REMARK    6  A    between atoms: C18_23  and  C19_24 
REMARK    7  A    between atoms: C19_24  and  N3_25 
ROOT
HETATM    1  N1  UNL     1      21.640   3.242  51.202  1.00  0.00    -0.311 N 
HETATM    2  C8  UNL     1      20.454   3.356  51.964  1.00  0.00     0.153 A 
HETATM    3  C9  UNL     1      19.372   3.830  51.379  1.00  0.00     0.156 A 
HETATM    4  N2  UNL     1      19.388   4.221  50.014  1.00  0.00    -0.344 N 
HETATM    5  C10 UNL     1      20.627   4.065  49.347  1.00  0.00     0.124 A 
HETATM    6  C11 UNL     1      21.764   3.605  49.829  1.00  0.00     0.106 A 
HETATM    7  H10 UNL     1      18.525   4.587  49.592  1.00  0.00     0.167 HD
ENDROOT
BRANCH   6   8
HETATM    8  C12 UNL     1      23.013   3.456  49.118  1.00  0.00     0.207 C 
HETATM    9  O3  UNL     1      22.927   2.586  48.202  1.00  0.00    -0.285 OA
BRANCH   8  10
HETATM   10  C13 UNL     1      24.319   4.036  49.180  1.00  0.00     0.004 A 
HETATM   11  C14 UNL     1      25.507   3.485  49.318  1.00  0.00     0.012 A 
HETATM   12  C15 UNL     1      26.620   4.420  49.336  1.00  0.00     0.004 A 
HETATM   13  C16 UNL     1      26.025   5.591  49.197  1.00  0.00    -0.073 A 
HETATM   14  C17 UNL     1      26.640   6.962  49.140  1.00  0.00     0.044 C 
HETATM   15  C18 UNL     1      24.553   5.508  49.085  1.00  0.00     0.079 A 
BRANCH  15  16
HETATM   16  C19 UNL     1      23.905   6.266  50.188  1.00  0.00     0.286 C 
BRANCH  16  17
HETATM   17  N3  UNL     1      22.842   7.072  49.671  1.00  0.00     0.092 N 
HETATM   18  C20 UNL     1      23.298   8.447  49.409  1.00  0.00     0.291 C 
HETATM   19  C21 UNL     1      22.336   8.952  48.354  1.00  0.00     0.146 C 
HETATM   20  N4  UNL     1      20.994   8.506  48.571  1.00  0.00    -0.413 N 
HETATM   21  C22 UNL     1      19.993   9.296  47.946  1.00  0.00     0.143 C 
HETATM   22  C23 UNL     1      20.696   8.110  49.911  1.00  0.00     0.146 C 
HETATM   23  C24 UNL     1      21.723   7.258  50.571  1.00  0.00     0.291 C 
ENDBRANCH  16  17
ENDBRANCH  15  16
ENDBRANCH   8  10
ENDBRANCH   6   8
BRANCH   1  24
HETATM   24  C7  UNL     1      22.772   2.712  51.928  1.00  0.00     0.072 A 
HETATM   25  C2  UNL     1      23.044   1.343  51.909  1.00  0.00     0.095 A 
HETATM   26  C3  UNL     1      24.123   0.845  52.599  1.00  0.00     0.039 A 
HETATM   27  C4  UNL     1      24.939   1.720  53.315  1.00  0.00     0.003 A 
HETATM   28  C5  UNL     1      24.627   3.068  53.303  1.00  0.00     0.002 A 
HETATM   29  C6  UNL     1      23.548   3.602  52.618  1.00  0.00     0.033 A 
BRANCH  25  30
HETATM   30  O1  UNL     1      22.179   0.576  51.175  1.00  0.00    -0.354 OA
HETATM   31  C1  UNL     1      21.106  -0.189  51.692  1.00  0.00     0.210 C 
ENDBRANCH  25  30
ENDBRANCH   1  24
BRANCH   3  32
HETATM   32  O2  UNL     1      18.221   3.935  52.136  1.00  0.00    -0.345 OA
HETATM   33  H9  UNL     1      17.801   3.161  52.652  1.00  0.00     0.219 HD
ENDBRANCH   3  32
TORSDOF 7
ENDMDL
