MODEL 1
REMARK VINA RESULT:      -7.8      0.000      0.000
REMARK  1 active torsions:
REMARK  status: ('A' for Active; 'I' for Inactive)
REMARK    1  A    between atoms: O1_2  and  C2_3 
ROOT
HETATM    1  C2  UNL     1      25.260   3.653  50.690  1.00  0.00     0.101 C 
HETATM    2  C3  UNL     1      26.385   2.928  50.668  1.00  0.00     0.040 C 
HETATM    3  C4  UNL     1      26.776   1.897  51.659  1.00  0.00     0.013 C 
HETATM    4  C5  UNL     1      25.975   1.291  52.518  1.00  0.00    -0.020 C 
HETATM    5  C6  UNL     1      24.586   1.608  53.014  1.00  0.00     0.071 C 
HETATM    6  C7  UNL     1      24.427   3.082  52.911  1.00  0.00     0.018 C 
HETATM    7  C8  UNL     1      24.174   3.528  51.645  1.00  0.00     0.099 C 
HETATM    8  O2  UNL     1      22.834   3.869  51.269  1.00  0.00    -0.345 OA
HETATM    9  C9  UNL     1      21.893   3.410  52.234  1.00  0.00     0.203 C 
HETATM   10  C10 UNL     1      20.597   2.982  51.714  1.00  0.00     0.003 C 
HETATM   11  C11 UNL     1      19.995   1.809  51.766  1.00  0.00     0.040 C 
HETATM   12  C12 UNL     1      20.269   0.485  52.290  1.00  0.00     0.114 C 
HETATM   13  F1  UNL     1      19.597  -0.669  52.325  1.00  0.00    -0.206 F 
HETATM   14  C13 UNL     1      21.187  -0.217  52.921  1.00  0.00     0.034 C 
HETATM   15  C14 UNL     1      22.143  -1.134  53.636  1.00  0.00     0.146 C 
HETATM   16  N1  UNL     1      22.508  -0.622  54.926  1.00  0.00    -0.402 N 
HETATM   17  C15 UNL     1      23.539  -1.293  55.604  1.00  0.00     0.258 C 
HETATM   18  N2  UNL     1      24.826  -1.258  54.901  1.00  0.00    -0.297 N 
HETATM   19  N3  UNL     1      26.007  -1.225  54.255  1.00  0.00    -0.181 NA
HETATM   20  P1  UNL     1      26.650  -0.234  53.226  1.00  0.00     0.117 P 
HETATM   21  H16 UNL     1      22.457   0.398  54.971  1.00  0.00     0.155 HD
HETATM   22  H19 UNL     1      25.249  -2.183  54.580  1.00  0.00     0.184 HD
ENDROOT
BRANCH   1  23
HETATM   23  O1  UNL     1      24.962   4.649  49.783  1.00  0.00    -0.353 OA
HETATM   24  C1  UNL     1      25.541   5.922  49.739  1.00  0.00     0.210 C 
ENDBRANCH   1  23
TORSDOF 1
ENDMDL
MODEL 2
REMARK VINA RESULT:      -7.7      3.514      4.878
REMARK  1 active torsions:
REMARK  status: ('A' for Active; 'I' for Inactive)
REMARK    1  A    between atoms: O1_2  and  C2_3 
ROOT
HETATM    1  C2  UNL     1      27.196   1.278  53.689  1.00  0.00     0.101 C 
HETATM    2  C3  UNL     1      27.484   2.356  52.949  1.00  0.00     0.040 C 
HETATM    3  C4  UNL     1      26.821   2.744  51.682  1.00  0.00     0.013 C 
HETATM    4  C5  UNL     1      25.654   2.308  51.242  1.00  0.00    -0.020 C 
HETATM    5  C6  UNL     1      24.794   1.130  51.628  1.00  0.00     0.071 C 
HETATM    6  C7  UNL     1      25.717   0.090  52.154  1.00  0.00     0.018 C 
HETATM    7  C8  UNL     1      26.139   0.316  53.434  1.00  0.00     0.099 C 
HETATM    8  O2  UNL     1      25.532  -0.399  54.517  1.00  0.00    -0.345 OA
HETATM    9  C9  UNL     1      24.344  -1.063  54.097  1.00  0.00     0.203 C 
HETATM   10  C10 UNL     1      23.275  -1.152  55.089  1.00  0.00     0.003 C 
HETATM   11  C11 UNL     1      22.044  -0.677  55.070  1.00  0.00     0.040 C 
HETATM   12  C12 UNL     1      21.207   0.098  54.175  1.00  0.00     0.114 C 
HETATM   13  F1  UNL     1      19.945   0.533  54.211  1.00  0.00    -0.206 F 
HETATM   14  C13 UNL     1      21.216   0.714  53.011  1.00  0.00     0.034 C 
HETATM   15  C14 UNL     1      21.085   1.455  51.708  1.00  0.00     0.146 C 
HETATM   16  N1  UNL     1      21.390   0.614  50.585  1.00  0.00    -0.402 N 
HETATM   17  C15 UNL     1      21.487   1.243  49.332  1.00  0.00     0.258 C 
HETATM   18  N2  UNL     1      22.564   2.236  49.255  1.00  0.00    -0.297 N 
HETATM   19  N3  UNL     1      23.553   3.148  49.184  1.00  0.00    -0.181 NA
HETATM   20  P1  UNL     1      24.913   3.328  49.940  1.00  0.00     0.117 P 
HETATM   21  H16 UNL     1      22.042  -0.136  50.823  1.00  0.00     0.155 HD
HETATM   22  H19 UNL     1      22.298   3.253  49.074  1.00  0.00     0.184 HD
ENDROOT
BRANCH   1  23
HETATM   23  O1  UNL     1      27.881   0.915  54.830  1.00  0.00    -0.353 OA
HETATM   24  C1  UNL     1      28.916  -0.023  54.906  1.00  0.00     0.210 C 
ENDBRANCH   1  23
TORSDOF 1
ENDMDL
MODEL 3
REMARK VINA RESULT:      -7.7      2.821      4.233
REMARK  1 active torsions:
REMARK  status: ('A' for Active; 'I' for Inactive)
REMARK    1  A    between atoms: O1_2  and  C2_3 
ROOT
HETATM    1  C2  UNL     1      26.493   1.127  53.071  1.00  0.00     0.101 C 
HETATM    2  C3  UNL     1      26.276   0.005  53.769  1.00  0.00     0.040 C 
HETATM    3  C4  UNL     1      24.958  -0.489  54.233  1.00  0.00     0.013 C 
HETATM    4  C5  UNL     1      23.775  -0.113  53.779  1.00  0.00    -0.020 C 
HETATM    5  C6  UNL     1      23.328   1.070  52.958  1.00  0.00     0.071 C 
HETATM    6  C7  UNL     1      24.291   2.166  53.237  1.00  0.00     0.018 C 
HETATM    7  C8  UNL     1      25.481   2.044  52.577  1.00  0.00     0.099 C 
HETATM    8  O2  UNL     1      25.720   2.821  51.397  1.00  0.00    -0.345 OA
HETATM    9  C9  UNL     1      24.521   3.426  50.924  1.00  0.00     0.203 C 
HETATM   10  C10 UNL     1      24.400   3.562  49.475  1.00  0.00     0.003 C 
HETATM   11  C11 UNL     1      23.515   3.059  48.635  1.00  0.00     0.040 C 
HETATM   12  C12 UNL     1      22.347   2.202  48.694  1.00  0.00     0.114 C 
HETATM   13  F1  UNL     1      21.473   1.742  47.795  1.00  0.00    -0.206 F 
HETATM   14  C13 UNL     1      21.608   1.503  49.530  1.00  0.00     0.034 C 
HETATM   15  C14 UNL     1      20.680   0.667  50.370  1.00  0.00     0.146 C 
HETATM   16  N1  UNL     1      20.089   1.430  51.432  1.00  0.00    -0.402 N 
HETATM   17  C15 UNL     1      19.356   0.715  52.393  1.00  0.00     0.258 C 
HETATM   18  N2  UNL     1      20.159  -0.257  53.143  1.00  0.00    -0.297 N 
HETATM   19  N3  UNL     1      20.898  -1.148  53.831  1.00  0.00    -0.181 NA
HETATM   20  P1  UNL     1      22.419  -1.242  54.193  1.00  0.00     0.117 P 
HETATM   21  H16 UNL     1      20.679   2.211  51.728  1.00  0.00     0.155 HD
HETATM   22  H19 UNL     1      19.909  -1.290  53.056  1.00  0.00     0.184 HD
ENDROOT
BRANCH   1  23
HETATM   23  O1  UNL     1      27.743   1.587  52.712  1.00  0.00    -0.353 OA
HETATM   24  C1  UNL     1      28.614   2.324  53.523  1.00  0.00     0.210 C 
ENDBRANCH   1  23
TORSDOF 1
ENDMDL
MODEL 4
REMARK VINA RESULT:      -7.5      2.741      5.207
REMARK  1 active torsions:
REMARK  status: ('A' for Active; 'I' for Inactive)
REMARK    1  A    between atoms: O1_2  and  C2_3 
ROOT
HETATM    1  C2  UNL     1      20.257   1.260  52.667  1.00  0.00     0.101 C 
HETATM    2  C3  UNL     1      20.302   0.811  53.927  1.00  0.00     0.040 C 
HETATM    3  C4  UNL     1      21.361  -0.047  54.508  1.00  0.00     0.013 C 
HETATM    4  C5  UNL     1      22.572  -0.240  54.016  1.00  0.00    -0.020 C 
HETATM    5  C6  UNL     1      23.173   0.020  52.656  1.00  0.00     0.071 C 
HETATM    6  C7  UNL     1      22.056  -0.061  51.679  1.00  0.00     0.018 C 
HETATM    7  C8  UNL     1      21.266   1.053  51.643  1.00  0.00     0.099 C 
HETATM    8  O2  UNL     1      21.441   2.012  50.592  1.00  0.00    -0.345 OA
HETATM    9  C9  UNL     1      22.648   1.777  49.874  1.00  0.00     0.203 C 
HETATM   10  C10 UNL     1      23.335   2.963  49.370  1.00  0.00     0.003 C 
HETATM   11  C11 UNL     1      24.540   3.434  49.632  1.00  0.00     0.040 C 
HETATM   12  C12 UNL     1      25.675   3.077  50.462  1.00  0.00     0.114 C 
HETATM   13  F1  UNL     1      26.888   3.595  50.667  1.00  0.00    -0.206 F 
HETATM   14  C13 UNL     1      26.082   2.187  51.343  1.00  0.00     0.034 C 
HETATM   15  C14 UNL     1      26.677   1.245  52.355  1.00  0.00     0.146 C 
HETATM   16  N1  UNL     1      26.684  -0.110  51.881  1.00  0.00    -0.402 N 
HETATM   17  C15 UNL     1      27.038  -1.103  52.810  1.00  0.00     0.258 C 
HETATM   18  N2  UNL     1      26.119  -1.196  53.950  1.00  0.00    -0.297 N 
HETATM   19  N3  UNL     1      25.274  -1.281  54.996  1.00  0.00    -0.181 NA
HETATM   20  P1  UNL     1      23.762  -0.927  55.197  1.00  0.00     0.117 P 
HETATM   21  H16 UNL     1      25.936  -0.293  51.209  1.00  0.00     0.155 HD
HETATM   22  H19 UNL     1      26.504  -0.993  54.924  1.00  0.00     0.184 HD
ENDROOT
BRANCH   1  23
HETATM   23  O1  UNL     1      19.220   2.005  52.145  1.00  0.00    -0.353 OA
HETATM   24  C1  UNL     1      18.095   1.499  51.483  1.00  0.00     0.210 C 
ENDBRANCH   1  23
TORSDOF 1
ENDMDL
MODEL 5
REMARK VINA RESULT:      -7.3      3.905      6.473
REMARK  1 active torsions:
REMARK  status: ('A' for Active; 'I' for Inactive)
REMARK    1  A    between atoms: O1_2  and  C2_3 
ROOT
HETATM    1  C2  UNL     1      18.528   0.023  51.559  1.00  0.00     0.101 C 
HETATM    2  C3  UNL     1      18.500   0.387  50.271  1.00  0.00     0.040 C 
HETATM    3  C4  UNL     1      19.383   1.391  49.631  1.00  0.00     0.013 C 
HETATM    4  C5  UNL     1      20.528   1.845  50.107  1.00  0.00    -0.020 C 
HETATM    5  C6  UNL     1      21.152   1.796  51.480  1.00  0.00     0.071 C 
HETATM    6  C7  UNL     1      20.030   1.728  52.452  1.00  0.00     0.018 C 
HETATM    7  C8  UNL     1      19.466   0.488  52.565  1.00  0.00     0.099 C 
HETATM    8  O2  UNL     1      19.810  -0.346  53.678  1.00  0.00    -0.345 OA
HETATM    9  C9  UNL     1      20.941   0.163  54.377  1.00  0.00     0.203 C 
HETATM   10  C10 UNL     1      21.837  -0.833  54.959  1.00  0.00     0.003 C 
HETATM   11  C11 UNL     1      23.112  -1.081  54.728  1.00  0.00     0.040 C 
HETATM   12  C12 UNL     1      24.167  -0.570  53.874  1.00  0.00     0.114 C 
HETATM   13  F1  UNL     1      25.459  -0.860  53.703  1.00  0.00    -0.206 F 
HETATM   14  C13 UNL     1      24.407   0.319  52.934  1.00  0.00     0.034 C 
HETATM   15  C14 UNL     1      24.822   1.288  51.859  1.00  0.00     0.146 C 
HETATM   16  N1  UNL     1      24.565   2.648  52.239  1.00  0.00    -0.402 N 
HETATM   17  C15 UNL     1      24.733   3.625  51.244  1.00  0.00     0.258 C 
HETATM   18  N2  UNL     1      23.827   3.464  50.102  1.00  0.00    -0.297 N 
HETATM   19  N3  UNL     1      22.994   3.316  49.054  1.00  0.00    -0.181 NA
HETATM   20  P1  UNL     1      21.579   2.666  48.880  1.00  0.00     0.117 P 
HETATM   21  H16 UNL     1      23.788   2.729  52.898  1.00  0.00     0.155 HD
HETATM   22  H19 UNL     1      24.254   3.273  49.143  1.00  0.00     0.184 HD
ENDROOT
BRANCH   1  23
HETATM   23  O1  UNL     1      17.646  -0.869  52.133  1.00  0.00    -0.353 OA
HETATM   24  C1  UNL     1      16.360  -0.571  52.599  1.00  0.00     0.210 C 
ENDBRANCH   1  23
TORSDOF 1
ENDMDL
MODEL 6
REMARK VINA RESULT:      -7.3      7.503      9.735
REMARK  1 active torsions:
REMARK  status: ('A' for Active; 'I' for Inactive)
REMARK    1  A    between atoms: O1_2  and  C2_3 
ROOT
HETATM    1  C2  UNL     1      31.289   6.149  48.783  1.00  0.00     0.101 C 
HETATM    2  C3  UNL     1      31.999   7.251  49.055  1.00  0.00     0.040 C 
HETATM    3  C4  UNL     1      31.550   8.648  48.850  1.00  0.00     0.013 C 
HETATM    4  C5  UNL     1      30.304   9.056  48.687  1.00  0.00    -0.020 C 
HETATM    5  C6  UNL     1      29.030   8.326  48.340  1.00  0.00     0.071 C 
HETATM    6  C7  UNL     1      29.429   7.134  47.547  1.00  0.00     0.018 C 
HETATM    7  C8  UNL     1      29.921   6.104  48.299  1.00  0.00     0.099 C 
HETATM    8  O2  UNL     1      29.079   4.986  48.605  1.00  0.00    -0.345 OA
HETATM    9  C9  UNL     1      27.717   5.262  48.292  1.00  0.00     0.203 C 
HETATM   10  C10 UNL     1      26.721   4.656  49.172  1.00  0.00     0.003 C 
HETATM   11  C11 UNL     1      25.808   5.209  49.946  1.00  0.00     0.040 C 
HETATM   12  C12 UNL     1      25.369   6.545  50.302  1.00  0.00     0.114 C 
HETATM   13  F1  UNL     1      24.411   7.040  51.090  1.00  0.00    -0.206 F 
HETATM   14  C13 UNL     1      25.627   7.818  50.088  1.00  0.00     0.034 C 
HETATM   15  C14 UNL     1      25.810   9.304  49.934  1.00  0.00     0.146 C 
HETATM   16  N1  UNL     1      25.718   9.713  48.561  1.00  0.00    -0.402 N 
HETATM   17  C15 UNL     1      26.060  11.045  48.274  1.00  0.00     0.258 C 
HETATM   18  N2  UNL     1      27.455  11.374  48.585  1.00  0.00    -0.297 N 
HETATM   19  N3  UNL     1      28.737  11.675  48.869  1.00  0.00    -0.181 NA
HETATM   20  P1  UNL     1      30.053  10.830  48.956  1.00  0.00     0.117 P 
HETATM   21  H16 UNL     1      25.992   8.972  47.913  1.00  0.00     0.155 HD
HETATM   22  H19 UNL     1      27.644  12.116  49.327  1.00  0.00     0.184 HD
ENDROOT
BRANCH   1  23
HETATM   23  O1  UNL     1      31.766   4.863  48.928  1.00  0.00    -0.353 OA
HETATM   24  C1  UNL     1      32.498   4.144  47.976  1.00  0.00     0.210 C 
ENDBRANCH   1  23
TORSDOF 1
ENDMDL
MODEL 7
REMARK VINA RESULT:      -7.3      3.639      5.746
REMARK  1 active torsions:
REMARK  status: ('A' for Active; 'I' for Inactive)
REMARK    1  A    between atoms: O1_2  and  C2_3 
ROOT
HETATM    1  C2  UNL     1      21.644   0.652  53.104  1.00  0.00     0.101 C 
HETATM    2  C3  UNL     1      22.760   0.237  53.717  1.00  0.00     0.040 C 
HETATM    3  C4  UNL     1      24.146   0.451  53.238  1.00  0.00     0.013 C 
HETATM    4  C5  UNL     1      24.538   1.339  52.341  1.00  0.00    -0.020 C 
HETATM    5  C6  UNL     1      23.787   2.152  51.316  1.00  0.00     0.071 C 
HETATM    6  C7  UNL     1      22.573   1.369  50.965  1.00  0.00     0.018 C 
HETATM    7  C8  UNL     1      21.572   1.447  51.892  1.00  0.00     0.099 C 
HETATM    8  O2  UNL     1      20.458   2.317  51.659  1.00  0.00    -0.345 OA
HETATM    9  C9  UNL     1      20.713   3.207  50.578  1.00  0.00     0.203 C 
HETATM   10  C10 UNL     1      20.127   4.540  50.692  1.00  0.00     0.003 C 
HETATM   11  C11 UNL     1      20.698   5.729  50.737  1.00  0.00     0.040 C 
HETATM   12  C12 UNL     1      22.041   6.276  50.713  1.00  0.00     0.114 C 
HETATM   13  F1  UNL     1      22.554   7.509  50.743  1.00  0.00    -0.206 F 
HETATM   14  C13 UNL     1      23.309   5.924  50.659  1.00  0.00     0.034 C 
HETATM   15  C14 UNL     1      24.791   5.666  50.602  1.00  0.00     0.146 C 
HETATM   16  N1  UNL     1      25.154   4.902  49.442  1.00  0.00    -0.402 N 
HETATM   17  C15 UNL     1      26.478   4.439  49.380  1.00  0.00     0.258 C 
HETATM   18  N2  UNL     1      26.828   3.512  50.462  1.00  0.00    -0.297 N 
HETATM   19  N3  UNL     1      27.149   2.661  51.456  1.00  0.00    -0.181 NA
HETATM   20  P1  UNL     1      26.318   1.678  52.348  1.00  0.00     0.117 P 
HETATM   21  H16 UNL     1      24.394   4.301  49.116  1.00  0.00     0.155 HD
HETATM   22  H19 UNL     1      27.596   3.802  51.144  1.00  0.00     0.184 HD
ENDROOT
BRANCH   1  23
HETATM   23  O1  UNL     1      20.367   0.377  53.549  1.00  0.00    -0.353 OA
HETATM   24  C1  UNL     1      19.697  -0.845  53.421  1.00  0.00     0.210 C 
ENDBRANCH   1  23
TORSDOF 1
ENDMDL
MODEL 8
REMARK VINA RESULT:      -6.8      5.362      7.798
REMARK  1 active torsions:
REMARK  status: ('A' for Active; 'I' for Inactive)
REMARK    1  A    between atoms: O1_2  and  C2_3 
ROOT
HETATM    1  C2  UNL     1      21.015   3.816  51.063  1.00  0.00     0.101 C 
HETATM    2  C3  UNL     1      20.257   4.745  50.466  1.00  0.00     0.040 C 
HETATM    3  C4  UNL     1      20.650   6.149  50.200  1.00  0.00     0.013 C 
HETATM    4  C5  UNL     1      21.880   6.632  50.197  1.00  0.00    -0.020 C 
HETATM    5  C6  UNL     1      23.185   6.100  50.734  1.00  0.00     0.071 C 
HETATM    6  C7  UNL     1      22.841   5.214  51.877  1.00  0.00     0.018 C 
HETATM    7  C8  UNL     1      22.387   3.980  51.508  1.00  0.00     0.099 C 
HETATM    8  O2  UNL     1      23.272   2.855  51.561  1.00  0.00    -0.345 OA
HETATM    9  C9  UNL     1      24.623   3.267  51.740  1.00  0.00     0.203 C 
HETATM   10  C10 UNL     1      25.637   2.446  51.082  1.00  0.00     0.003 C 
HETATM   11  C11 UNL     1      26.521   2.752  50.152  1.00  0.00     0.040 C 
HETATM   12  C12 UNL     1      26.901   3.917  49.376  1.00  0.00     0.114 C 
HETATM   13  F1  UNL     1      27.832   4.166  48.451  1.00  0.00    -0.206 F 
HETATM   14  C13 UNL     1      26.592   5.181  49.174  1.00  0.00     0.034 C 
HETATM   15  C14 UNL     1      26.350   6.629  48.844  1.00  0.00     0.146 C 
HETATM   16  N1  UNL     1      26.435   7.462  50.010  1.00  0.00    -0.402 N 
HETATM   17  C15 UNL     1      26.041   8.802  49.859  1.00  0.00     0.258 C 
HETATM   18  N2  UNL     1      24.631   8.962  49.488  1.00  0.00    -0.297 N 
HETATM   19  N3  UNL     1      23.336   9.108  49.148  1.00  0.00    -0.181 NA
HETATM   20  P1  UNL     1      22.055   8.233  49.365  1.00  0.00     0.117 P 
HETATM   21  H16 UNL     1      26.197   6.961  50.868  1.00  0.00     0.155 HD
HETATM   22  H19 UNL     1      24.406   9.417  48.550  1.00  0.00     0.184 HD
ENDROOT
BRANCH   1  23
HETATM   23  O1  UNL     1      20.589   2.536  51.350  1.00  0.00    -0.353 OA
HETATM   24  C1  UNL     1      20.037   2.104  52.561  1.00  0.00     0.210 C 
ENDBRANCH   1  23
TORSDOF 1
ENDMDL
MODEL 9
REMARK VINA RESULT:      -6.8      2.928      5.594
REMARK  1 active torsions:
REMARK  status: ('A' for Active; 'I' for Inactive)
REMARK    1  A    between atoms: O1_2  and  C2_3 
ROOT
HETATM    1  C2  UNL     1      18.719   0.330  51.913  1.00  0.00     0.101 C 
HETATM    2  C3  UNL     1      18.819  -0.500  52.959  1.00  0.00     0.040 C 
HETATM    3  C4  UNL     1      20.079  -1.044  53.520  1.00  0.00     0.013 C 
HETATM    4  C5  UNL     1      21.296  -0.572  53.317  1.00  0.00    -0.020 C 
HETATM    5  C6  UNL     1      21.864   0.376  52.290  1.00  0.00     0.071 C 
HETATM    6  C7  UNL     1      21.011   0.247  51.080  1.00  0.00     0.018 C 
HETATM    7  C8  UNL     1      19.819   0.910  51.165  1.00  0.00     0.099 C 
HETATM    8  O2  UNL     1      19.667   2.178  50.515  1.00  0.00    -0.345 OA
HETATM    9  C9  UNL     1      20.923   2.696  50.091  1.00  0.00     0.203 C 
HETATM   10  C10 UNL     1      21.067   4.149  50.142  1.00  0.00     0.003 C 
HETATM   11  C11 UNL     1      21.904   4.906  50.826  1.00  0.00     0.040 C 
HETATM   12  C12 UNL     1      22.982   4.724  51.779  1.00  0.00     0.114 C 
HETATM   13  F1  UNL     1      23.812   5.546  52.426  1.00  0.00    -0.206 F 
HETATM   14  C13 UNL     1      23.642   3.797  52.441  1.00  0.00     0.034 C 
HETATM   15  C14 UNL     1      24.477   2.847  53.256  1.00  0.00     0.146 C 
HETATM   16  N1  UNL     1      25.133   1.871  52.431  1.00  0.00    -0.402 N 
HETATM   17  C15 UNL     1      25.786   0.819  53.094  1.00  0.00     0.258 C 
HETATM   18  N2  UNL     1      24.884  -0.026  53.886  1.00  0.00    -0.297 N 
HETATM   19  N3  UNL     1      24.056  -0.801  54.612  1.00  0.00    -0.181 NA
HETATM   20  P1  UNL     1      22.531  -1.143  54.514  1.00  0.00     0.117 P 
HETATM   21  H16 UNL     1      24.620   1.682  51.567  1.00  0.00     0.155 HD
HETATM   22  H19 UNL     1      25.032  -0.067  54.942  1.00  0.00     0.184 HD
ENDROOT
BRANCH   1  23
HETATM   23  O1  UNL     1      17.522   0.764  51.380  1.00  0.00    -0.353 OA
HETATM   24  C1  UNL     1      16.255   0.582  51.945  1.00  0.00     0.210 C 
ENDBRANCH   1  23
TORSDOF 1
ENDMDL
