MODEL 1
REMARK VINA RESULT:      -8.9      0.000      0.000
REMARK  4 active torsions:
REMARK  status: ('A' for Active; 'I' for Inactive)
REMARK    1  A    between atoms: C2_2  and  C4_4 
REMARK    2  A    between atoms: C5_7  and  C6_8 
REMARK       I    between atoms: C6_8  and  N2_10 
REMARK    3  A    between atoms: N2_10  and  C7_11 
REMARK    4  A    between atoms: C11_15  and  C12_16 
ROOT
HETATM    1  C7  UNL     1      23.071   2.359  51.799  1.00  0.00     0.038 A 
HETATM    2  C8  UNL     1      21.935   1.887  52.465  1.00  0.00     0.063 A 
HETATM    3  C9  UNL     1      22.008   0.804  53.312  1.00  0.00     0.080 A 
HETATM    4  C10 UNL     1      23.243   0.199  53.485  1.00  0.00     0.097 A 
HETATM    5  C11 UNL     1      24.370   0.664  52.827  1.00  0.00     0.007 A 
HETATM    6  C18 UNL     1      24.276   1.737  51.992  1.00  0.00     0.044 A 
HETATM    7  N3  UNL     1      23.397  -0.921  54.341  1.00  0.00    -0.240 NA
HETATM    8  C19 UNL     1      22.395  -1.410  54.986  1.00  0.00     0.224 A 
HETATM    9  N4  UNL     1      21.106  -0.845  54.860  1.00  0.00    -0.294 N 
HETATM   10  N5  UNL     1      20.895   0.271  54.020  1.00  0.00    -0.297 N 
HETATM   11  H16 UNL     1      20.239  -1.162  55.332  1.00  0.00     0.187 HD
HETATM   12  H17 UNL     1      19.954   0.727  53.894  1.00  0.00     0.187 HD
ENDROOT
BRANCH   1  13
HETATM   13  N2  UNL     1      22.738   3.489  50.979  1.00  0.00    -0.321 N 
HETATM   14  C6  UNL     1      23.069   4.698  51.641  1.00  0.00     0.283 C 
HETATM   15  O1  UNL     1      23.577   4.539  52.792  1.00  0.00    -0.265 OA
HETATM   16  H8  UNL     1      22.313   3.568  50.018  1.00  0.00     0.169 HD
BRANCH  14  17
HETATM   17  C5  UNL     1      22.838   6.012  51.036  1.00  0.00     0.185 A 
HETATM   18  S1  UNL     1      24.150   7.105  50.554  1.00  0.00     0.039 SA
HETATM   19  N1  UNL     1      22.971   8.427  49.930  1.00  0.00    -0.194 NA
HETATM   20  C4  UNL     1      21.705   7.727  50.232  1.00  0.00     0.139 A 
HETATM   21  N6  UNL     1      21.717   6.504  50.793  1.00  0.00    -0.218 NA
BRANCH  20  22
HETATM   22  C2  UNL     1      20.524   8.540  49.842  1.00  0.00     0.050 C 
HETATM   23  C1  UNL     1      19.477   7.700  49.143  1.00  0.00     0.018 C 
HETATM   24  C3  UNL     1      20.913   9.674  48.936  1.00  0.00     0.018 C 
ENDBRANCH  20  22
ENDBRANCH  14  17
ENDBRANCH   1  13
BRANCH   5  25
HETATM   25  C12 UNL     1      25.706   0.090  52.948  1.00  0.00    -0.022 A 
HETATM   26  C13 UNL     1      26.084  -1.196  52.612  1.00  0.00     0.012 A 
HETATM   27  C14 UNL     1      27.359  -1.652  52.756  1.00  0.00     0.002 A 
HETATM   28  C15 UNL     1      28.332  -0.812  53.261  1.00  0.00     0.019 A 
HETATM   29  C16 UNL     1      28.011   0.486  53.616  1.00  0.00     0.011 A 
HETATM   30 BR1  UNL     1      29.363   1.660  54.319  1.00  0.00    -0.051 Br
HETATM   31  C17 UNL     1      26.707   0.919  53.456  1.00  0.00     0.031 A 
ENDBRANCH   5  25
TORSDOF 4
ENDMDL
MODEL 2
REMARK VINA RESULT:      -8.7      3.721      5.512
REMARK  4 active torsions:
REMARK  status: ('A' for Active; 'I' for Inactive)
REMARK    1  A    between atoms: C2_2  and  C4_4 
REMARK    2  A    between atoms: C5_7  and  C6_8 
REMARK       I    between atoms: C6_8  and  N2_10 
REMARK    3  A    between atoms: N2_10  and  C7_11 
REMARK    4  A    between atoms: C11_15  and  C12_16 
ROOT
HETATM    1  C7  UNL     1      24.185   1.492  51.899  1.00  0.00     0.038 A 
HETATM    2  C8  UNL     1      25.078   0.975  52.843  1.00  0.00     0.063 A 
HETATM    3  C9  UNL     1      24.658   0.082  53.802  1.00  0.00     0.080 A 
HETATM    4  C10 UNL     1      23.323  -0.290  53.801  1.00  0.00     0.097 A 
HETATM    5  C11 UNL     1      22.435   0.220  52.869  1.00  0.00     0.007 A 
HETATM    6  C18 UNL     1      22.871   1.104  51.927  1.00  0.00     0.044 A 
HETATM    7  N3  UNL     1      22.816  -1.206  54.758  1.00  0.00    -0.240 NA
HETATM    8  C19 UNL     1      23.581  -1.722  55.657  1.00  0.00     0.224 A 
HETATM    9  N4  UNL     1      24.953  -1.391  55.719  1.00  0.00    -0.294 N 
HETATM   10  N5  UNL     1      25.511  -0.483  54.792  1.00  0.00    -0.297 N 
HETATM   11  H16 UNL     1      25.649  -1.748  56.400  1.00  0.00     0.187 HD
HETATM   12  H17 UNL     1      26.527  -0.206  54.797  1.00  0.00     0.187 HD
ENDROOT
BRANCH   1  13
HETATM   13  N2  UNL     1      24.859   2.397  51.013  1.00  0.00    -0.321 N 
HETATM   14  C6  UNL     1      24.478   3.735  51.287  1.00  0.00     0.283 C 
HETATM   15  O1  UNL     1      23.642   3.856  52.232  1.00  0.00    -0.265 OA
HETATM   16  H8  UNL     1      25.552   2.244  50.235  1.00  0.00     0.169 HD
BRANCH  14  17
HETATM   17  C5  UNL     1      25.013   4.872  50.533  1.00  0.00     0.185 A 
HETATM   18  S1  UNL     1      24.319   6.503  50.609  1.00  0.00     0.039 SA
HETATM   19  N1  UNL     1      25.576   7.217  49.409  1.00  0.00    -0.194 NA
HETATM   20  C4  UNL     1      26.344   5.978  49.163  1.00  0.00     0.139 A 
HETATM   21  N6  UNL     1      25.999   4.828  49.769  1.00  0.00    -0.218 NA
BRANCH  20  22
HETATM   22  C2  UNL     1      27.462   6.209  48.212  1.00  0.00     0.050 C 
HETATM   23  C1  UNL     1      28.556   5.175  48.379  1.00  0.00     0.018 C 
HETATM   24  C3  UNL     1      28.062   7.575  48.391  1.00  0.00     0.018 C 
ENDBRANCH  20  22
ENDBRANCH  14  17
ENDBRANCH   1  13
BRANCH   5  25
HETATM   25  C12 UNL     1      21.016  -0.114  52.793  1.00  0.00    -0.022 A 
HETATM   26  C13 UNL     1      20.301  -0.879  53.695  1.00  0.00     0.012 A 
HETATM   27  C14 UNL     1      18.973  -1.142  53.549  1.00  0.00     0.002 A 
HETATM   28  C15 UNL     1      18.291  -0.634  52.460  1.00  0.00     0.019 A 
HETATM   29  C16 UNL     1      18.957   0.139  51.525  1.00  0.00     0.011 A 
HETATM   30 BR1  UNL     1      18.012   0.849  50.007  1.00  0.00    -0.051 Br
HETATM   31  C17 UNL     1      20.305   0.387  51.703  1.00  0.00     0.031 A 
ENDBRANCH   5  25
TORSDOF 4
ENDMDL
MODEL 3
REMARK VINA RESULT:      -8.7      4.062      6.821
REMARK  4 active torsions:
REMARK  status: ('A' for Active; 'I' for Inactive)
REMARK    1  A    between atoms: C2_2  and  C4_4 
REMARK    2  A    between atoms: C5_7  and  C6_8 
REMARK       I    between atoms: C6_8  and  N2_10 
REMARK    3  A    between atoms: N2_10  and  C7_11 
REMARK    4  A    between atoms: C11_15  and  C12_16 
ROOT
HETATM    1  C7  UNL     1      23.284   0.909  51.943  1.00  0.00     0.038 A 
HETATM    2  C8  UNL     1      24.010   0.353  53.002  1.00  0.00     0.063 A 
HETATM    3  C9  UNL     1      25.272   0.807  53.312  1.00  0.00     0.080 A 
HETATM    4  C10 UNL     1      25.799   1.832  52.543  1.00  0.00     0.097 A 
HETATM    5  C11 UNL     1      25.084   2.385  51.494  1.00  0.00     0.007 A 
HETATM    6  C18 UNL     1      23.836   1.921  51.203  1.00  0.00     0.044 A 
HETATM    7  N3  UNL     1      27.092   2.352  52.802  1.00  0.00    -0.240 NA
HETATM    8  C19 UNL     1      27.818   1.889  53.761  1.00  0.00     0.224 A 
HETATM    9  N4  UNL     1      27.346   0.844  54.587  1.00  0.00    -0.294 N 
HETATM   10  N5  UNL     1      26.065   0.288  54.374  1.00  0.00    -0.297 N 
HETATM   11  H16 UNL     1      27.849   0.403  55.380  1.00  0.00     0.187 HD
HETATM   12  H17 UNL     1      25.670  -0.490  54.962  1.00  0.00     0.187 HD
ENDROOT
BRANCH   1  13
HETATM   13  N2  UNL     1      22.005   0.269  51.821  1.00  0.00    -0.321 N 
HETATM   14  C6  UNL     1      20.968   1.155  52.209  1.00  0.00     0.283 C 
HETATM   15  O1  UNL     1      21.371   2.300  52.576  1.00  0.00    -0.265 OA
HETATM   16  H8  UNL     1      21.721  -0.696  51.508  1.00  0.00     0.169 HD
BRANCH  14  17
HETATM   17  C5  UNL     1      19.556   0.767  52.184  1.00  0.00     0.185 A 
HETATM   18  S1  UNL     1      18.305   1.700  51.339  1.00  0.00     0.039 SA
HETATM   19  N1  UNL     1      16.931   0.517  51.832  1.00  0.00    -0.194 NA
HETATM   20  C4  UNL     1      17.754  -0.436  52.606  1.00  0.00     0.139 A 
HETATM   21  N6  UNL     1      19.078  -0.244  52.740  1.00  0.00    -0.218 NA
BRANCH  20  22
HETATM   22  C2  UNL     1      16.932  -1.543  53.159  1.00  0.00     0.050 C 
HETATM   23  C1  UNL     1      17.790  -2.718  53.577  1.00  0.00     0.018 C 
HETATM   24  C3  UNL     1      15.915  -2.024  52.161  1.00  0.00     0.018 C 
ENDBRANCH  20  22
ENDBRANCH  14  17
ENDBRANCH   1  13
BRANCH   5  25
HETATM   25  C12 UNL     1      25.558   3.463  50.633  1.00  0.00    -0.022 A 
HETATM   26  C13 UNL     1      26.590   3.392  49.716  1.00  0.00     0.012 A 
HETATM   27  C14 UNL     1      26.970   4.451  48.949  1.00  0.00     0.002 A 
HETATM   28  C15 UNL     1      26.311   5.659  49.077  1.00  0.00     0.019 A 
HETATM   29  C16 UNL     1      25.271   5.788  49.980  1.00  0.00     0.011 A 
HETATM   30 BR1  UNL     1      24.351   7.468  50.162  1.00  0.00    -0.051 Br
HETATM   31  C17 UNL     1      24.910   4.694  50.744  1.00  0.00     0.031 A 
ENDBRANCH   5  25
TORSDOF 4
ENDMDL
MODEL 4
REMARK VINA RESULT:      -8.5      4.531      5.921
REMARK  4 active torsions:
REMARK  status: ('A' for Active; 'I' for Inactive)
REMARK    1  A    between atoms: C2_2  and  C4_4 
REMARK    2  A    between atoms: C5_7  and  C6_8 
REMARK       I    between atoms: C6_8  and  N2_10 
REMARK    3  A    between atoms: N2_10  and  C7_11 
REMARK    4  A    between atoms: C11_15  and  C12_16 
ROOT
HETATM    1  C7  UNL     1      24.834   3.907  49.929  1.00  0.00     0.038 A 
HETATM    2  C8  UNL     1      23.646   3.884  49.190  1.00  0.00     0.063 A 
HETATM    3  C9  UNL     1      22.692   2.918  49.411  1.00  0.00     0.080 A 
HETATM    4  C10 UNL     1      22.944   1.969  50.389  1.00  0.00     0.097 A 
HETATM    5  C11 UNL     1      24.119   1.987  51.122  1.00  0.00     0.007 A 
HETATM    6  C18 UNL     1      25.051   2.952  50.888  1.00  0.00     0.044 A 
HETATM    7  N3  UNL     1      22.008   0.943  50.673  1.00  0.00    -0.240 NA
HETATM    8  C19 UNL     1      20.893   0.860  50.032  1.00  0.00     0.224 A 
HETATM    9  N4  UNL     1      20.567   1.793  49.022  1.00  0.00    -0.294 N 
HETATM   10  N5  UNL     1      21.462   2.836  48.697  1.00  0.00    -0.297 N 
HETATM   11  H16 UNL     1      19.701   1.814  48.451  1.00  0.00     0.187 HD
HETATM   12  H17 UNL     1      21.264   3.554  47.954  1.00  0.00     0.187 HD
ENDROOT
BRANCH   1  13
HETATM   13  N2  UNL     1      25.662   5.003  49.515  1.00  0.00    -0.321 N 
HETATM   14  C6  UNL     1      26.915   4.530  49.049  1.00  0.00     0.283 C 
HETATM   15  O1  UNL     1      27.045   3.270  49.092  1.00  0.00    -0.265 OA
HETATM   16  H8  UNL     1      25.505   6.044  49.499  1.00  0.00     0.169 HD
BRANCH  14  17
HETATM   17  C5  UNL     1      27.961   5.433  48.562  1.00  0.00     0.185 A 
HETATM   18  S1  UNL     1      27.679   7.148  48.208  1.00  0.00     0.039 SA
HETATM   19  N1  UNL     1      29.458   7.450  47.686  1.00  0.00    -0.194 NA
HETATM   20  C4  UNL     1      29.965   6.077  47.899  1.00  0.00     0.139 A 
HETATM   21  N6  UNL     1      29.147   5.108  48.345  1.00  0.00    -0.218 NA
BRANCH  20  22
HETATM   22  C2  UNL     1      31.408   5.970  47.562  1.00  0.00     0.050 C 
HETATM   23  C1  UNL     1      31.816   4.533  47.313  1.00  0.00     0.018 C 
HETATM   24  C3  UNL     1      32.271   6.530  48.658  1.00  0.00     0.018 C 
ENDBRANCH  20  22
ENDBRANCH  14  17
ENDBRANCH   1  13
BRANCH   5  25
HETATM   25  C12 UNL     1      24.468   1.030  52.167  1.00  0.00    -0.022 A 
HETATM   26  C13 UNL     1      23.614   0.494  53.112  1.00  0.00     0.012 A 
HETATM   27  C14 UNL     1      24.024  -0.397  54.056  1.00  0.00     0.002 A 
HETATM   28  C15 UNL     1      25.347  -0.796  54.090  1.00  0.00     0.019 A 
HETATM   29  C16 UNL     1      26.246  -0.291  53.169  1.00  0.00     0.011 A 
HETATM   30 BR1  UNL     1      28.089  -0.843  53.213  1.00  0.00    -0.051 Br
HETATM   31  C17 UNL     1      25.798   0.612  52.223  1.00  0.00     0.031 A 
ENDBRANCH   5  25
TORSDOF 4
ENDMDL
MODEL 5
REMARK VINA RESULT:      -8.4      3.703      5.061
REMARK  4 active torsions:
REMARK  status: ('A' for Active; 'I' for Inactive)
REMARK    1  A    between atoms: C2_2  and  C4_4 
REMARK    2  A    between atoms: C5_7  and  C6_8 
REMARK       I    between atoms: C6_8  and  N2_10 
REMARK    3  A    between atoms: N2_10  and  C7_11 
REMARK    4  A    between atoms: C11_15  and  C12_16 
ROOT
HETATM    1  C7  UNL     1      25.479   2.481  50.967  1.00  0.00     0.038 A 
HETATM    2  C8  UNL     1      26.729   2.472  51.594  1.00  0.00     0.063 A 
HETATM    3  C9  UNL     1      26.943   1.743  52.742  1.00  0.00     0.080 A 
HETATM    4  C10 UNL     1      25.879   1.018  53.256  1.00  0.00     0.097 A 
HETATM    5  C11 UNL     1      24.639   1.025  52.640  1.00  0.00     0.007 A 
HETATM    6  C18 UNL     1      24.449   1.753  51.504  1.00  0.00     0.044 A 
HETATM    7  N3  UNL     1      26.023   0.244  54.435  1.00  0.00    -0.240 NA
HETATM    8  C19 UNL     1      27.145   0.189  55.065  1.00  0.00     0.224 A 
HETATM    9  N4  UNL     1      28.274   0.901  54.599  1.00  0.00    -0.294 N 
HETATM   10  N5  UNL     1      28.187   1.689  53.430  1.00  0.00    -0.297 N 
HETATM   11  H16 UNL     1      29.216   0.924  55.031  1.00  0.00     0.187 HD
HETATM   12  H17 UNL     1      29.000   2.236  53.044  1.00  0.00     0.187 HD
ENDROOT
BRANCH   1  13
HETATM   13  N2  UNL     1      25.509   3.310  49.797  1.00  0.00    -0.321 N 
HETATM   14  C6  UNL     1      24.923   4.572  50.067  1.00  0.00     0.283 C 
HETATM   15  O1  UNL     1      24.501   4.708  51.255  1.00  0.00    -0.265 OA
HETATM   16  H8  UNL     1      25.875   3.149  48.822  1.00  0.00     0.169 HD
BRANCH  14  17
HETATM   17  C5  UNL     1      24.819   5.622  49.050  1.00  0.00     0.185 A 
HETATM   18  S1  UNL     1      23.315   5.994  48.186  1.00  0.00     0.039 SA
HETATM   19  N1  UNL     1      24.103   7.367  47.174  1.00  0.00    -0.194 NA
HETATM   20  C4  UNL     1      25.467   7.270  47.733  1.00  0.00     0.139 A 
HETATM   21  N6  UNL     1      25.755   6.361  48.682  1.00  0.00    -0.218 NA
BRANCH  20  22
HETATM   22  C2  UNL     1      26.382   8.266  47.117  1.00  0.00     0.050 C 
HETATM   23  C1  UNL     1      26.035   8.515  45.664  1.00  0.00     0.018 C 
HETATM   24  C3  UNL     1      27.815   7.820  47.197  1.00  0.00     0.018 C 
ENDBRANCH  20  22
ENDBRANCH  14  17
ENDBRANCH   1  13
BRANCH   5  25
HETATM   25  C12 UNL     1      23.467   0.295  53.109  1.00  0.00    -0.022 A 
HETATM   26  C13 UNL     1      23.428  -0.629  54.138  1.00  0.00     0.012 A 
HETATM   27  C14 UNL     1      22.286  -1.266  54.514  1.00  0.00     0.002 A 
HETATM   28  C15 UNL     1      21.103  -0.997  53.853  1.00  0.00     0.019 A 
HETATM   29  C16 UNL     1      21.082  -0.082  52.815  1.00  0.00     0.011 A 
HETATM   30 BR1  UNL     1      19.438   0.296  51.891  1.00  0.00    -0.051 Br
HETATM   31  C17 UNL     1      22.260   0.549  52.458  1.00  0.00     0.031 A 
ENDBRANCH   5  25
TORSDOF 4
ENDMDL
MODEL 6
REMARK VINA RESULT:      -8.3      4.272      6.451
REMARK  4 active torsions:
REMARK  status: ('A' for Active; 'I' for Inactive)
REMARK    1  A    between atoms: C2_2  and  C4_4 
REMARK    2  A    between atoms: C5_7  and  C6_8 
REMARK       I    between atoms: C6_8  and  N2_10 
REMARK    3  A    between atoms: N2_10  and  C7_11 
REMARK    4  A    between atoms: C11_15  and  C12_16 
ROOT
HETATM    1  C7  UNL     1      22.852   0.777  52.877  1.00  0.00     0.038 A 
HETATM    2  C8  UNL     1      23.656  -0.138  53.566  1.00  0.00     0.063 A 
HETATM    3  C9  UNL     1      25.026  -0.110  53.444  1.00  0.00     0.080 A 
HETATM    4  C10 UNL     1      25.584   0.854  52.618  1.00  0.00     0.097 A 
HETATM    5  C11 UNL     1      24.792   1.760  51.934  1.00  0.00     0.007 A 
HETATM    6  C18 UNL     1      23.437   1.715  52.068  1.00  0.00     0.044 A 
HETATM    7  N3  UNL     1      26.988   0.944  52.443  1.00  0.00    -0.240 NA
HETATM    8  C19 UNL     1      27.790   0.135  53.046  1.00  0.00     0.224 A 
HETATM    9  N4  UNL     1      27.293  -0.872  53.904  1.00  0.00    -0.294 N 
HETATM   10  N5  UNL     1      25.904  -1.008  54.115  1.00  0.00    -0.297 N 
HETATM   11  H16 UNL     1      27.851  -1.569  54.432  1.00  0.00     0.187 HD
HETATM   12  H17 UNL     1      25.486  -1.742  54.744  1.00  0.00     0.187 HD
ENDROOT
BRANCH   1  13
HETATM   13  N2  UNL     1      21.466   0.544  53.166  1.00  0.00    -0.321 N 
HETATM   14  C6  UNL     1      20.773   0.152  51.993  1.00  0.00     0.283 C 
HETATM   15  O1  UNL     1      21.499   0.089  50.955  1.00  0.00    -0.265 OA
HETATM   16  H8  UNL     1      20.906   0.611  54.056  1.00  0.00     0.169 HD
BRANCH  14  17
HETATM   17  C5  UNL     1      19.340  -0.151  51.994  1.00  0.00     0.185 A 
HETATM   18  S1  UNL     1      18.538  -1.056  53.292  1.00  0.00     0.039 SA
HETATM   19  N1  UNL     1      16.849  -0.950  52.476  1.00  0.00    -0.194 NA
HETATM   20  C4  UNL     1      17.252  -0.185  51.278  1.00  0.00     0.139 A 
HETATM   21  N6  UNL     1      18.534   0.185  51.102  1.00  0.00    -0.218 NA
BRANCH  20  22
HETATM   22  C2  UNL     1      16.096   0.078  50.383  1.00  0.00     0.050 C 
HETATM   23  C1  UNL     1      16.189  -0.726  49.103  1.00  0.00     0.018 C 
HETATM   24  C3  UNL     1      15.996   1.535  50.027  1.00  0.00     0.018 C 
ENDBRANCH  20  22
ENDBRANCH  14  17
ENDBRANCH   1  13
BRANCH   5  25
HETATM   25  C12 UNL     1      25.292   2.804  51.046  1.00  0.00    -0.022 A 
HETATM   26  C13 UNL     1      26.354   2.701  50.168  1.00  0.00     0.012 A 
HETATM   27  C14 UNL     1      26.755   3.729  49.370  1.00  0.00     0.002 A 
HETATM   28  C15 UNL     1      26.088   4.937  49.426  1.00  0.00     0.019 A 
HETATM   29  C16 UNL     1      25.017   5.098  50.287  1.00  0.00     0.011 A 
HETATM   30 BR1  UNL     1      24.084   6.779  50.367  1.00  0.00    -0.051 Br
HETATM   31  C17 UNL     1      24.634   4.035  51.083  1.00  0.00     0.031 A 
ENDBRANCH   5  25
TORSDOF 4
ENDMDL
MODEL 7
REMARK VINA RESULT:      -8.3      3.634      6.487
REMARK  4 active torsions:
REMARK  status: ('A' for Active; 'I' for Inactive)
REMARK    1  A    between atoms: C2_2  and  C4_4 
REMARK    2  A    between atoms: C5_7  and  C6_8 
REMARK       I    between atoms: C6_8  and  N2_10 
REMARK    3  A    between atoms: N2_10  and  C7_11 
REMARK    4  A    between atoms: C11_15  and  C12_16 
ROOT
HETATM    1  C7  UNL     1      22.738   1.842  51.822  1.00  0.00     0.038 A 
HETATM    2  C8  UNL     1      22.850   2.892  50.905  1.00  0.00     0.063 A 
HETATM    3  C9  UNL     1      24.079   3.290  50.429  1.00  0.00     0.080 A 
HETATM    4  C10 UNL     1      25.200   2.616  50.886  1.00  0.00     0.097 A 
HETATM    5  C11 UNL     1      25.094   1.576  51.794  1.00  0.00     0.007 A 
HETATM    6  C18 UNL     1      23.868   1.198  52.254  1.00  0.00     0.044 A 
HETATM    7  N3  UNL     1      26.499   2.969  50.441  1.00  0.00    -0.240 NA
HETATM    8  C19 UNL     1      26.679   3.926  49.598  1.00  0.00     0.224 A 
HETATM    9  N4  UNL     1      25.582   4.657  49.087  1.00  0.00    -0.294 N 
HETATM   10  N5  UNL     1      24.266   4.349  49.497  1.00  0.00    -0.297 N 
HETATM   11  H16 UNL     1      25.619   5.441  48.409  1.00  0.00     0.187 HD
HETATM   12  H17 UNL     1      23.419   4.865  49.145  1.00  0.00     0.187 HD
ENDROOT
BRANCH   1  13
HETATM   13  N2  UNL     1      21.362   1.620  52.165  1.00  0.00    -0.321 N 
HETATM   14  C6  UNL     1      20.766   0.710  51.256  1.00  0.00     0.283 C 
HETATM   15  O1  UNL     1      21.547   0.290  50.350  1.00  0.00    -0.265 OA
HETATM   16  H8  UNL     1      20.753   1.997  52.937  1.00  0.00     0.169 HD
BRANCH  14  17
HETATM   17  C5  UNL     1      19.364   0.298  51.366  1.00  0.00     0.185 A 
HETATM   18  S1  UNL     1      18.088   0.891  50.285  1.00  0.00     0.039 SA
HETATM   19  N1  UNL     1      16.746  -0.113  51.133  1.00  0.00    -0.194 NA
HETATM   20  C4  UNL     1      17.595  -0.759  52.157  1.00  0.00     0.139 A 
HETATM   21  N6  UNL     1      18.914  -0.501  52.212  1.00  0.00    -0.218 NA
BRANCH  20  22
HETATM   22  C2  UNL     1      16.803  -1.660  53.033  1.00  0.00     0.050 C 
HETATM   23  C1  UNL     1      17.661  -2.762  53.618  1.00  0.00     0.018 C 
HETATM   24  C3  UNL     1      15.660  -2.288  52.287  1.00  0.00     0.018 C 
ENDBRANCH  20  22
ENDBRANCH  14  17
ENDBRANCH   1  13
BRANCH   5  25
HETATM   25  C12 UNL     1      26.216   0.813  52.329  1.00  0.00    -0.022 A 
HETATM   26  C13 UNL     1      26.424  -0.548  52.200  1.00  0.00     0.012 A 
HETATM   27  C14 UNL     1      27.504  -1.183  52.732  1.00  0.00     0.002 A 
HETATM   28  C15 UNL     1      28.446  -0.457  53.436  1.00  0.00     0.019 A 
HETATM   29  C16 UNL     1      28.289   0.908  53.597  1.00  0.00     0.011 A 
HETATM   30 BR1  UNL     1      29.598   1.924  54.575  1.00  0.00    -0.051 Br
HETATM   31  C17 UNL     1      27.181   1.523  53.044  1.00  0.00     0.031 A 
ENDBRANCH   5  25
TORSDOF 4
ENDMDL
MODEL 8
REMARK VINA RESULT:      -8.2      2.300      2.601
REMARK  4 active torsions:
REMARK  status: ('A' for Active; 'I' for Inactive)
REMARK    1  A    between atoms: C2_2  and  C4_4 
REMARK    2  A    between atoms: C5_7  and  C6_8 
REMARK       I    between atoms: C6_8  and  N2_10 
REMARK    3  A    between atoms: N2_10  and  C7_11 
REMARK    4  A    between atoms: C11_15  and  C12_16 
ROOT
HETATM    1  C7  UNL     1      23.512   1.653  51.272  1.00  0.00     0.038 A 
HETATM    2  C8  UNL     1      22.553   0.917  51.975  1.00  0.00     0.063 A 
HETATM    3  C9  UNL     1      22.900   0.168  53.076  1.00  0.00     0.080 A 
HETATM    4  C10 UNL     1      24.230   0.168  53.467  1.00  0.00     0.097 A 
HETATM    5  C11 UNL     1      25.183   0.896  52.774  1.00  0.00     0.007 A 
HETATM    6  C18 UNL     1      24.818   1.631  51.685  1.00  0.00     0.044 A 
HETATM    7  N3  UNL     1      24.664  -0.579  54.591  1.00  0.00    -0.240 NA
HETATM    8  C19 UNL     1      23.836  -1.281  55.285  1.00  0.00     0.224 A 
HETATM    9  N4  UNL     1      22.465  -1.329  54.947  1.00  0.00    -0.294 N 
HETATM   10  N5  UNL     1      21.978  -0.605  53.837  1.00  0.00    -0.297 N 
HETATM   11  H16 UNL     1      21.721  -1.860  55.437  1.00  0.00     0.187 HD
HETATM   12  H17 UNL     1      20.966  -0.608  53.546  1.00  0.00     0.187 HD
ENDROOT
BRANCH   1  13
HETATM   13  N2  UNL     1      22.906   2.345  50.171  1.00  0.00    -0.321 N 
HETATM   14  C6  UNL     1      22.574   3.673  50.540  1.00  0.00     0.283 C 
HETATM   15  O1  UNL     1      22.871   3.970  51.736  1.00  0.00    -0.265 OA
HETATM   16  H8  UNL     1      22.679   2.049  49.185  1.00  0.00     0.169 HD
BRANCH  14  17
HETATM   17  C5  UNL     1      21.941   4.610  49.609  1.00  0.00     0.185 A 
HETATM   18  S1  UNL     1      20.405   5.430  49.948  1.00  0.00     0.039 SA
HETATM   19  N1  UNL     1      20.405   6.351  48.310  1.00  0.00    -0.194 NA
HETATM   20  C4  UNL     1      21.675   5.814  47.778  1.00  0.00     0.139 A 
HETATM   21  N6  UNL     1      22.400   4.936  48.495  1.00  0.00    -0.218 NA
BRANCH  20  22
HETATM   22  C2  UNL     1      21.981   6.367  46.434  1.00  0.00     0.050 C 
HETATM   23  C1  UNL     1      22.061   5.276  45.388  1.00  0.00     0.018 C 
HETATM   24  C3  UNL     1      23.279   7.127  46.434  1.00  0.00     0.018 C 
ENDBRANCH  20  22
ENDBRANCH  14  17
ENDBRANCH   1  13
BRANCH   5  25
HETATM   25  C12 UNL     1      26.601   0.954  53.112  1.00  0.00    -0.022 A 
HETATM   26  C13 UNL     1      27.318   2.081  53.470  1.00  0.00     0.012 A 
HETATM   27  C14 UNL     1      28.645   2.046  53.772  1.00  0.00     0.002 A 
HETATM   28  C15 UNL     1      29.326   0.845  53.724  1.00  0.00     0.019 A 
HETATM   29  C16 UNL     1      28.659  -0.315  53.371  1.00  0.00     0.011 A 
HETATM   30 BR1  UNL     1      29.603  -1.990  53.302  1.00  0.00    -0.051 Br
HETATM   31  C17 UNL     1      27.312  -0.246  53.070  1.00  0.00     0.031 A 
ENDBRANCH   5  25
TORSDOF 4
ENDMDL
MODEL 9
REMARK VINA RESULT:      -8.0      4.113      8.437
REMARK  4 active torsions:
REMARK  status: ('A' for Active; 'I' for Inactive)
REMARK    1  A    between atoms: C2_2  and  C4_4 
REMARK    2  A    between atoms: C5_7  and  C6_8 
REMARK       I    between atoms: C6_8  and  N2_10 
REMARK    3  A    between atoms: N2_10  and  C7_11 
REMARK    4  A    between atoms: C11_15  and  C12_16 
ROOT
HETATM    1  C7  UNL     1      24.809   4.157  49.435  1.00  0.00     0.038 A 
HETATM    2  C8  UNL     1      23.598   4.445  48.798  1.00  0.00     0.063 A 
HETATM    3  C9  UNL     1      23.388   5.662  48.189  1.00  0.00     0.080 A 
HETATM    4  C10 UNL     1      24.416   6.591  48.227  1.00  0.00     0.097 A 
HETATM    5  C11 UNL     1      25.617   6.310  48.858  1.00  0.00     0.007 A 
HETATM    6  C18 UNL     1      25.804   5.099  49.455  1.00  0.00     0.044 A 
HETATM    7  N3  UNL     1      24.274   7.866  47.623  1.00  0.00    -0.240 NA
HETATM    8  C19 UNL     1      23.187   8.200  47.018  1.00  0.00     0.224 A 
HETATM    9  N4  UNL     1      22.097   7.304  46.938  1.00  0.00    -0.294 N 
HETATM   10  N5  UNL     1      22.183   6.022  47.523  1.00  0.00    -0.297 N 
HETATM   11  H16 UNL     1      21.183   7.476  46.478  1.00  0.00     0.187 HD
HETATM   12  H17 UNL     1      21.399   5.320  47.490  1.00  0.00     0.187 HD
ENDROOT
BRANCH   1  13
HETATM   13  N2  UNL     1      24.782   2.834  49.990  1.00  0.00    -0.321 N 
HETATM   14  C6  UNL     1      24.377   2.873  51.348  1.00  0.00     0.283 C 
HETATM   15  O1  UNL     1      24.128   4.037  51.784  1.00  0.00    -0.265 OA
HETATM   16  H8  UNL     1      25.000   1.888  49.580  1.00  0.00     0.169 HD
BRANCH  14  17
HETATM   17  C5  UNL     1      24.259   1.663  52.166  1.00  0.00     0.185 A 
HETATM   18  S1  UNL     1      25.650   0.668  52.636  1.00  0.00     0.039 SA
HETATM   19  N1  UNL     1      24.595  -0.557  53.593  1.00  0.00    -0.194 NA
HETATM   20  C4  UNL     1      23.282   0.079  53.351  1.00  0.00     0.139 A 
HETATM   21  N6  UNL     1      23.191   1.203  52.618  1.00  0.00    -0.218 NA
BRANCH  20  22
HETATM   22  C2  UNL     1      22.181  -0.678  54.003  1.00  0.00     0.050 C 
HETATM   23  C1  UNL     1      21.020   0.226  54.359  1.00  0.00     0.018 C 
HETATM   24  C3  UNL     1      22.653  -1.367  55.252  1.00  0.00     0.018 C 
ENDBRANCH  20  22
ENDBRANCH  14  17
ENDBRANCH   1  13
BRANCH   5  25
HETATM   25  C12 UNL     1      26.749   7.225  48.948  1.00  0.00    -0.022 A 
HETATM   26  C13 UNL     1      26.841   8.347  49.750  1.00  0.00     0.012 A 
HETATM   27  C14 UNL     1      27.940   9.150  49.773  1.00  0.00     0.002 A 
HETATM   28  C15 UNL     1      29.023   8.850  48.967  1.00  0.00     0.019 A 
HETATM   29  C16 UNL     1      28.986   7.740  48.144  1.00  0.00     0.011 A 
HETATM   30 BR1  UNL     1      30.490   7.318  47.020  1.00  0.00    -0.051 Br
HETATM   31  C17 UNL     1      27.855   6.945  48.144  1.00  0.00     0.031 A 
ENDBRANCH   5  25
TORSDOF 4
ENDMDL
