MODEL 1
REMARK VINA RESULT:      -8.1      0.000      0.000
REMARK  5 active torsions:
REMARK  status: ('A' for Active; 'I' for Inactive)
REMARK    1  A    between atoms: N4_13  and  C10_14 
REMARK    2  A    between atoms: C13_17  and  C14_18 
REMARK    3  A    between atoms: C14_18  and  C15_19 
REMARK    4  A    between atoms: C15_19  and  C16_20 
REMARK    5  A    between atoms: C16_20  and  N5_21 
ROOT
HETATM    1  C1  UNL     1      21.742  -1.466  54.622  1.00  0.00     0.001 A 
HETATM    2  C2  UNL     1      21.770  -0.675  53.572  1.00  0.00    -0.007 A 
HETATM    3  C3  UNL     1      22.885   0.099  53.017  1.00  0.00     0.155 A 
HETATM    4  N1  UNL     1      24.104  -0.079  53.782  1.00  0.00    -0.326 N 
HETATM    5  C4  UNL     1      24.068  -0.943  54.927  1.00  0.00     0.127 A 
HETATM    6  C5  UNL     1      23.000  -1.597  55.344  1.00  0.00     0.050 A 
HETATM    7  N2  UNL     1      25.365  -0.970  55.519  1.00  0.00    -0.243 NA
HETATM    8  C6  UNL     1      26.117  -0.201  54.807  1.00  0.00     0.152 A 
HETATM    9  C7  UNL     1      25.442   0.459  53.629  1.00  0.00     0.192 A 
HETATM   10  C8  UNL     1      26.114  -0.101  52.430  1.00  0.00     0.146 C 
HETATM   11  N3  UNL     1      26.798   0.576  51.589  1.00  0.00    -0.280 NA
HETATM   12  C9  UNL     1      26.896   2.000  51.871  1.00  0.00     0.296 C 
HETATM   13  N4  UNL     1      25.674   2.466  52.463  1.00  0.00    -0.274 N 
HETATM   14  N6  UNL     1      25.525   1.880  53.709  1.00  0.00    -0.293 N 
HETATM   15  H30 UNL     1      24.893   2.336  54.364  1.00  0.00     0.184 HD
ENDROOT
BRANCH  13  16
HETATM   16  C10 UNL     1      24.742   3.376  51.904  1.00  0.00     0.052 A 
HETATM   17  C11 UNL     1      24.910   3.967  50.673  1.00  0.00     0.031 A 
HETATM   18  C12 UNL     1      24.013   4.854  50.121  1.00  0.00     0.009 A 
HETATM   19  C13 UNL     1      22.871   5.202  50.797  1.00  0.00    -0.058 A 
HETATM   20  C22 UNL     1      22.675   4.620  52.046  1.00  0.00     0.009 A 
HETATM   21  C23 UNL     1      23.601   3.739  52.553  1.00  0.00     0.031 A 
BRANCH  19  22
HETATM   22  C14 UNL     1      21.865   6.146  50.257  1.00  0.00     0.040 C 
BRANCH  22  23
HETATM   23  C15 UNL     1      20.557   5.497  49.914  1.00  0.00     0.024 C 
BRANCH  23  24
HETATM   24  C16 UNL     1      20.606   4.617  48.726  1.00  0.00     0.117 C 
BRANCH  24  25
HETATM   25  N5  UNL     1      20.087   3.310  48.870  1.00  0.00    -0.412 N 
HETATM   26  C17 UNL     1      20.012   2.801  50.190  1.00  0.00     0.117 C 
HETATM   27  C18 UNL     1      20.701   1.479  50.295  1.00  0.00     0.019 C 
HETATM   28  C19 UNL     1      22.107   1.671  49.716  1.00  0.00     0.003 C 
HETATM   29  C20 UNL     1      21.946   1.864  48.224  1.00  0.00     0.019 C 
HETATM   30  C21 UNL     1      20.576   2.402  47.875  1.00  0.00     0.117 C 
ENDBRANCH  24  25
ENDBRANCH  23  24
ENDBRANCH  22  23
ENDBRANCH  19  22
ENDBRANCH  13  16
TORSDOF 5
ENDMDL
MODEL 2
REMARK VINA RESULT:      -8.1      4.787      7.428
REMARK  5 active torsions:
REMARK  status: ('A' for Active; 'I' for Inactive)
REMARK    1  A    between atoms: N4_13  and  C10_14 
REMARK    2  A    between atoms: C13_17  and  C14_18 
REMARK    3  A    between atoms: C14_18  and  C15_19 
REMARK    4  A    between atoms: C15_19  and  C16_20 
REMARK    5  A    between atoms: C16_20  and  N5_21 
ROOT
HETATM    1  C1  UNL     1      27.632  -0.188  53.212  1.00  0.00     0.001 A 
HETATM    2  C2  UNL     1      27.904   1.046  52.848  1.00  0.00    -0.007 A 
HETATM    3  C3  UNL     1      26.998   2.109  52.403  1.00  0.00     0.155 A 
HETATM    4  N1  UNL     1      25.615   1.672  52.389  1.00  0.00    -0.326 N 
HETATM    5  C4  UNL     1      25.322   0.325  52.788  1.00  0.00     0.127 A 
HETATM    6  C5  UNL     1      26.224  -0.559  53.172  1.00  0.00     0.050 A 
HETATM    7  N2  UNL     1      23.914   0.119  52.698  1.00  0.00    -0.243 NA
HETATM    8  C6  UNL     1      23.399   1.227  52.288  1.00  0.00     0.152 A 
HETATM    9  C7  UNL     1      24.380   2.348  52.039  1.00  0.00     0.192 A 
HETATM   10  C8  UNL     1      24.038   3.395  53.034  1.00  0.00     0.146 C 
HETATM   11  N3  UNL     1      23.620   4.569  52.749  1.00  0.00    -0.280 NA
HETATM   12  C9  UNL     1      23.486   4.853  51.329  1.00  0.00     0.296 C 
HETATM   13  N4  UNL     1      24.517   4.175  50.595  1.00  0.00    -0.274 N 
HETATM   14  N6  UNL     1      24.315   2.808  50.691  1.00  0.00    -0.293 N 
HETATM   15  H30 UNL     1      24.761   2.223  49.988  1.00  0.00     0.184 HD
ENDROOT
BRANCH  13  16
HETATM   16  C10 UNL     1      25.588   4.765  49.876  1.00  0.00     0.052 A 
HETATM   17  C11 UNL     1      26.636   4.042  49.357  1.00  0.00     0.031 A 
HETATM   18  C12 UNL     1      27.682   4.605  48.658  1.00  0.00     0.009 A 
HETATM   19  C13 UNL     1      27.728   5.958  48.442  1.00  0.00    -0.058 A 
HETATM   20  C22 UNL     1      26.679   6.715  48.957  1.00  0.00     0.009 A 
HETATM   21  C23 UNL     1      25.657   6.106  49.647  1.00  0.00     0.031 A 
BRANCH  19  22
HETATM   22  C14 UNL     1      28.821   6.624  47.696  1.00  0.00     0.040 C 
BRANCH  22  23
HETATM   23  C15 UNL     1      30.187   6.313  48.229  1.00  0.00     0.024 C 
BRANCH  23  24
HETATM   24  C16 UNL     1      31.270   6.411  47.226  1.00  0.00     0.117 C 
BRANCH  24  25
HETATM   25  N5  UNL     1      32.495   5.779  47.535  1.00  0.00    -0.412 N 
HETATM   26  C17 UNL     1      33.588   6.064  46.680  1.00  0.00     0.117 C 
HETATM   27  C18 UNL     1      34.202   4.806  46.156  1.00  0.00     0.019 C 
HETATM   28  C19 UNL     1      33.060   3.982  45.552  1.00  0.00     0.003 C 
HETATM   29  C20 UNL     1      32.207   3.500  46.706  1.00  0.00     0.019 C 
HETATM   30  C21 UNL     1      32.336   4.405  47.911  1.00  0.00     0.117 C 
ENDBRANCH  24  25
ENDBRANCH  23  24
ENDBRANCH  22  23
ENDBRANCH  19  22
ENDBRANCH  13  16
TORSDOF 5
ENDMDL
MODEL 3
REMARK VINA RESULT:      -7.7      3.143      5.369
REMARK  5 active torsions:
REMARK  status: ('A' for Active; 'I' for Inactive)
REMARK    1  A    between atoms: N4_13  and  C10_14 
REMARK    2  A    between atoms: C13_17  and  C14_18 
REMARK    3  A    between atoms: C14_18  and  C15_19 
REMARK    4  A    between atoms: C15_19  and  C16_20 
REMARK    5  A    between atoms: C16_20  and  N5_21 
ROOT
HETATM    1  C1  UNL     1      28.809  -2.500  53.083  1.00  0.00     0.001 A 
HETATM    2  C2  UNL     1      27.567  -2.417  52.659  1.00  0.00    -0.007 A 
HETATM    3  C3  UNL     1      26.708  -1.238  52.512  1.00  0.00     0.155 A 
HETATM    4  N1  UNL     1      27.389  -0.018  52.905  1.00  0.00    -0.326 N 
HETATM    5  C4  UNL     1      28.744  -0.114  53.366  1.00  0.00     0.127 A 
HETATM    6  C5  UNL     1      29.429  -1.238  53.462  1.00  0.00     0.050 A 
HETATM    7  N2  UNL     1      29.207   1.194  53.693  1.00  0.00    -0.243 NA
HETATM    8  C6  UNL     1      28.235   2.007  53.454  1.00  0.00     0.152 A 
HETATM    9  C7  UNL     1      26.970   1.370  52.930  1.00  0.00     0.192 A 
HETATM   10  C8  UNL     1      26.802   1.908  51.557  1.00  0.00     0.146 C 
HETATM   11  N3  UNL     1      25.825   2.635  51.168  1.00  0.00    -0.280 NA
HETATM   12  C9  UNL     1      24.827   2.931  52.185  1.00  0.00     0.296 C 
HETATM   13  N4  UNL     1      24.683   1.808  53.069  1.00  0.00    -0.274 N 
HETATM   14  N6  UNL     1      25.858   1.641  53.782  1.00  0.00    -0.293 N 
HETATM   15  H30 UNL     1      25.806   1.104  54.645  1.00  0.00     0.184 HD
ENDROOT
BRANCH  13  16
HETATM   16  C10 UNL     1      23.543   0.978  53.222  1.00  0.00     0.052 A 
HETATM   17  C11 UNL     1      23.570  -0.223  53.891  1.00  0.00     0.031 A 
HETATM   18  C12 UNL     1      22.470  -1.039  54.043  1.00  0.00     0.009 A 
HETATM   19  C13 UNL     1      21.257  -0.678  53.516  1.00  0.00    -0.058 A 
HETATM   20  C22 UNL     1      21.200   0.533  52.832  1.00  0.00     0.009 A 
HETATM   21  C23 UNL     1      22.327   1.312  52.708  1.00  0.00     0.031 A 
BRANCH  19  22
HETATM   22  C14 UNL     1      20.036  -1.507  53.649  1.00  0.00     0.040 C 
BRANCH  22  23
HETATM   23  C15 UNL     1      18.777  -0.786  53.271  1.00  0.00     0.024 C 
BRANCH  23  24
HETATM   24  C16 UNL     1      17.624  -1.673  53.001  1.00  0.00     0.117 C 
BRANCH  24  25
HETATM   25  N5  UNL     1      16.420  -1.059  52.590  1.00  0.00    -0.412 N 
HETATM   26  C17 UNL     1      15.557  -1.836  51.778  1.00  0.00     0.117 C 
HETATM   27  C18 UNL     1      15.207  -1.111  50.519  1.00  0.00     0.019 C 
HETATM   28  C19 UNL     1      16.531  -0.673  49.885  1.00  0.00     0.003 C 
HETATM   29  C20 UNL     1      17.104   0.415  50.767  1.00  0.00     0.019 C 
HETATM   30  C21 UNL     1      16.598   0.306  52.188  1.00  0.00     0.117 C 
ENDBRANCH  24  25
ENDBRANCH  23  24
ENDBRANCH  22  23
ENDBRANCH  19  22
ENDBRANCH  13  16
TORSDOF 5
ENDMDL
MODEL 4
REMARK VINA RESULT:      -7.7      4.061      8.386
REMARK  5 active torsions:
REMARK  status: ('A' for Active; 'I' for Inactive)
REMARK    1  A    between atoms: N4_13  and  C10_14 
REMARK    2  A    between atoms: C13_17  and  C14_18 
REMARK    3  A    between atoms: C14_18  and  C15_19 
REMARK    4  A    between atoms: C15_19  and  C16_20 
REMARK    5  A    between atoms: C16_20  and  N5_21 
ROOT
HETATM    1  C1  UNL     1      29.986   6.643  47.887  1.00  0.00     0.001 A 
HETATM    2  C2  UNL     1      28.928   5.865  47.963  1.00  0.00    -0.007 A 
HETATM    3  C3  UNL     1      27.603   6.145  48.525  1.00  0.00     0.155 A 
HETATM    4  N1  UNL     1      27.512   7.491  49.056  1.00  0.00    -0.326 N 
HETATM    5  C4  UNL     1      28.669   8.336  48.972  1.00  0.00     0.127 A 
HETATM    6  C5  UNL     1      29.824   7.980  48.441  1.00  0.00     0.050 A 
HETATM    7  N2  UNL     1      28.353   9.601  49.549  1.00  0.00    -0.243 NA
HETATM    8  C6  UNL     1      27.127   9.537  49.944  1.00  0.00     0.152 A 
HETATM    9  C7  UNL     1      26.432   8.220  49.694  1.00  0.00     0.192 A 
HETATM   10  C8  UNL     1      25.347   8.528  48.729  1.00  0.00     0.146 C 
HETATM   11  N3  UNL     1      24.097   8.402  48.966  1.00  0.00    -0.280 NA
HETATM   12  C9  UNL     1      23.762   7.915  50.296  1.00  0.00     0.296 C 
HETATM   13  N4  UNL     1      24.756   6.977  50.737  1.00  0.00    -0.274 N 
HETATM   14  N6  UNL     1      25.959   7.641  50.908  1.00  0.00    -0.293 N 
HETATM   15  H30 UNL     1      26.656   7.194  51.501  1.00  0.00     0.184 HD
ENDROOT
BRANCH  13  16
HETATM   16  C10 UNL     1      24.581   5.590  50.972  1.00  0.00     0.052 A 
HETATM   17  C11 UNL     1      23.778   5.089  51.971  1.00  0.00     0.031 A 
HETATM   18  C12 UNL     1      23.603   3.744  52.210  1.00  0.00     0.009 A 
HETATM   19  C13 UNL     1      24.244   2.810  51.437  1.00  0.00    -0.058 A 
HETATM   20  C22 UNL     1      25.064   3.288  50.419  1.00  0.00     0.009 A 
HETATM   21  C23 UNL     1      25.205   4.641  50.220  1.00  0.00     0.031 A 
BRANCH  19  22
HETATM   22  C14 UNL     1      24.094   1.349  51.639  1.00  0.00     0.040 C 
BRANCH  22  23
HETATM   23  C15 UNL     1      24.158   0.933  53.078  1.00  0.00     0.024 C 
BRANCH  23  24
HETATM   24  C16 UNL     1      25.519   0.957  53.659  1.00  0.00     0.117 C 
BRANCH  24  25
HETATM   25  N5  UNL     1      26.578   0.509  52.838  1.00  0.00    -0.412 N 
HETATM   26  C17 UNL     1      27.043  -0.810  53.069  1.00  0.00     0.117 C 
HETATM   27  C18 UNL     1      28.520  -0.824  53.297  1.00  0.00     0.019 C 
HETATM   28  C19 UNL     1      28.804   0.202  54.398  1.00  0.00     0.003 C 
HETATM   29  C20 UNL     1      28.557   1.570  53.799  1.00  0.00     0.019 C 
HETATM   30  C21 UNL     1      27.590   1.504  52.637  1.00  0.00     0.117 C 
ENDBRANCH  24  25
ENDBRANCH  23  24
ENDBRANCH  22  23
ENDBRANCH  19  22
ENDBRANCH  13  16
TORSDOF 5
ENDMDL
MODEL 5
REMARK VINA RESULT:      -7.6      4.609      7.054
REMARK  5 active torsions:
REMARK  status: ('A' for Active; 'I' for Inactive)
REMARK    1  A    between atoms: N4_13  and  C10_14 
REMARK    2  A    between atoms: C13_17  and  C14_18 
REMARK    3  A    between atoms: C14_18  and  C15_19 
REMARK    4  A    between atoms: C15_19  and  C16_20 
REMARK    5  A    between atoms: C16_20  and  N5_21 
ROOT
HETATM    1  C1  UNL     1      29.440   0.910  54.426  1.00  0.00     0.001 A 
HETATM    2  C2  UNL     1      29.006   2.043  53.917  1.00  0.00    -0.007 A 
HETATM    3  C3  UNL     1      27.728   2.343  53.264  1.00  0.00     0.155 A 
HETATM    4  N1  UNL     1      26.863   1.181  53.205  1.00  0.00    -0.326 N 
HETATM    5  C4  UNL     1      27.340  -0.052  53.761  1.00  0.00     0.127 A 
HETATM    6  C5  UNL     1      28.520  -0.215  54.330  1.00  0.00     0.050 A 
HETATM    7  N2  UNL     1      26.333  -1.048  53.594  1.00  0.00    -0.243 NA
HETATM    8  C6  UNL     1      25.340  -0.480  52.999  1.00  0.00     0.152 A 
HETATM    9  C7  UNL     1      25.527   0.982  52.674  1.00  0.00     0.192 A 
HETATM   10  C8  UNL     1      24.512   1.696  53.487  1.00  0.00     0.146 C 
HETATM   11  N3  UNL     1      23.543   2.383  53.014  1.00  0.00    -0.280 NA
HETATM   12  C9  UNL     1      23.473   2.439  51.562  1.00  0.00     0.296 C 
HETATM   13  N4  UNL     1      24.798   2.444  51.008  1.00  0.00    -0.274 N 
HETATM   14  N6  UNL     1      25.402   1.226  51.274  1.00  0.00    -0.293 N 
HETATM   15  H30 UNL     1      26.197   0.966  50.694  1.00  0.00     0.184 HD
ENDROOT
BRANCH  13  16
HETATM   16  C10 UNL     1      25.427   3.497  50.298  1.00  0.00     0.052 A 
HETATM   17  C11 UNL     1      24.917   4.773  50.233  1.00  0.00     0.031 A 
HETATM   18  C12 UNL     1      25.519   5.803  49.543  1.00  0.00     0.009 A 
HETATM   19  C13 UNL     1      26.694   5.597  48.867  1.00  0.00    -0.058 A 
HETATM   20  C22 UNL     1      27.233   4.314  48.915  1.00  0.00     0.009 A 
HETATM   21  C23 UNL     1      26.594   3.319  49.618  1.00  0.00     0.031 A 
BRANCH  19  22
HETATM   22  C14 UNL     1      27.393   6.662  48.112  1.00  0.00     0.040 C 
BRANCH  22  23
HETATM   23  C15 UNL     1      28.878   6.470  48.038  1.00  0.00     0.024 C 
BRANCH  23  24
HETATM   24  C16 UNL     1      29.667   7.635  48.497  1.00  0.00     0.117 C 
BRANCH  24  25
HETATM   25  N5  UNL     1      29.228   8.913  48.085  1.00  0.00    -0.412 N 
HETATM   26  C17 UNL     1      29.645   9.342  46.801  1.00  0.00     0.117 C 
HETATM   27  C18 UNL     1      30.313  10.678  46.873  1.00  0.00     0.019 C 
HETATM   28  C19 UNL     1      31.404  10.564  47.943  1.00  0.00     0.003 C 
HETATM   29  C20 UNL     1      30.700  10.454  49.278  1.00  0.00     0.019 C 
HETATM   30  C21 UNL     1      29.304   9.893  49.129  1.00  0.00     0.117 C 
ENDBRANCH  24  25
ENDBRANCH  23  24
ENDBRANCH  22  23
ENDBRANCH  19  22
ENDBRANCH  13  16
TORSDOF 5
ENDMDL
MODEL 6
REMARK VINA RESULT:      -7.5      4.454      6.623
REMARK  5 active torsions:
REMARK  status: ('A' for Active; 'I' for Inactive)
REMARK    1  A    between atoms: N4_13  and  C10_14 
REMARK    2  A    between atoms: C13_17  and  C14_18 
REMARK    3  A    between atoms: C14_18  and  C15_19 
REMARK    4  A    between atoms: C15_19  and  C16_20 
REMARK    5  A    between atoms: C16_20  and  N5_21 
ROOT
HETATM    1  C1  UNL     1      27.139  -0.367  53.147  1.00  0.00     0.001 A 
HETATM    2  C2  UNL     1      27.520   0.843  52.801  1.00  0.00    -0.007 A 
HETATM    3  C3  UNL     1      26.711   1.990  52.378  1.00  0.00     0.155 A 
HETATM    4  N1  UNL     1      25.294   1.681  52.366  1.00  0.00    -0.326 N 
HETATM    5  C4  UNL     1      24.883   0.360  52.745  1.00  0.00     0.127 A 
HETATM    6  C5  UNL     1      25.703  -0.608  53.110  1.00  0.00     0.050 A 
HETATM    7  N2  UNL     1      23.462   0.282  52.661  1.00  0.00    -0.243 NA
HETATM    8  C6  UNL     1      23.046   1.440  52.272  1.00  0.00     0.152 A 
HETATM    9  C7  UNL     1      24.124   2.471  52.034  1.00  0.00     0.192 A 
HETATM   10  C8  UNL     1      23.883   3.528  53.048  1.00  0.00     0.146 C 
HETATM   11  N3  UNL     1      23.571   4.739  52.784  1.00  0.00    -0.280 NA
HETATM   12  C9  UNL     1      23.457   5.058  51.369  1.00  0.00     0.296 C 
HETATM   13  N4  UNL     1      24.419   4.301  50.619  1.00  0.00    -0.274 N 
HETATM   14  N6  UNL     1      24.094   2.957  50.694  1.00  0.00    -0.293 N 
HETATM   15  H30 UNL     1      24.482   2.345  49.979  1.00  0.00     0.184 HD
ENDROOT
BRANCH  13  16
HETATM   16  C10 UNL     1      25.535   4.803  49.902  1.00  0.00     0.052 A 
HETATM   17  C11 UNL     1      26.558   4.006  49.445  1.00  0.00     0.031 A 
HETATM   18  C12 UNL     1      27.648   4.484  48.749  1.00  0.00     0.009 A 
HETATM   19  C13 UNL     1      27.766   5.822  48.473  1.00  0.00    -0.058 A 
HETATM   20  C22 UNL     1      26.745   6.652  48.924  1.00  0.00     0.009 A 
HETATM   21  C23 UNL     1      25.677   6.127  49.613  1.00  0.00     0.031 A 
BRANCH  19  22
HETATM   22  C14 UNL     1      28.909   6.397  47.726  1.00  0.00     0.040 C 
BRANCH  22  23
HETATM   23  C15 UNL     1      29.351   7.734  48.243  1.00  0.00     0.024 C 
BRANCH  23  24
HETATM   24  C16 UNL     1      29.914   8.631  47.209  1.00  0.00     0.117 C 
BRANCH  24  25
HETATM   25  N5  UNL     1      29.087   9.678  46.746  1.00  0.00    -0.412 N 
HETATM   26  C17 UNL     1      27.894   9.912  47.473  1.00  0.00     0.117 C 
HETATM   27  C18 UNL     1      26.703   9.894  46.570  1.00  0.00     0.019 C 
HETATM   28  C19 UNL     1      26.775   8.584  45.779  1.00  0.00     0.003 C 
HETATM   29  C20 UNL     1      27.938   8.712  44.819  1.00  0.00     0.019 C 
HETATM   30  C21 UNL     1      28.966   9.704  45.317  1.00  0.00     0.117 C 
ENDBRANCH  24  25
ENDBRANCH  23  24
ENDBRANCH  22  23
ENDBRANCH  19  22
ENDBRANCH  13  16
TORSDOF 5
ENDMDL
MODEL 7
REMARK VINA RESULT:      -7.2      5.526      8.499
REMARK  5 active torsions:
REMARK  status: ('A' for Active; 'I' for Inactive)
REMARK    1  A    between atoms: N4_13  and  C10_14 
REMARK    2  A    between atoms: C13_17  and  C14_18 
REMARK    3  A    between atoms: C14_18  and  C15_19 
REMARK    4  A    between atoms: C15_19  and  C16_20 
REMARK    5  A    between atoms: C16_20  and  N5_21 
ROOT
HETATM    1  C1  UNL     1      25.235   0.911  52.236  1.00  0.00     0.001 A 
HETATM    2  C2  UNL     1      26.029   1.936  52.016  1.00  0.00    -0.007 A 
HETATM    3  C3  UNL     1      25.729   3.233  51.403  1.00  0.00     0.155 A 
HETATM    4  N1  UNL     1      24.338   3.338  51.007  1.00  0.00    -0.326 N 
HETATM    5  C4  UNL     1      23.475   2.217  51.249  1.00  0.00     0.127 A 
HETATM    6  C5  UNL     1      23.852   1.084  51.812  1.00  0.00     0.050 A 
HETATM    7  N2  UNL     1      22.166   2.540  50.785  1.00  0.00    -0.243 NA
HETATM    8  C6  UNL     1      22.222   3.738  50.310  1.00  0.00     0.152 A 
HETATM    9  C7  UNL     1      23.577   4.402  50.380  1.00  0.00     0.192 A 
HETATM   10  C8  UNL     1      23.400   5.552  51.302  1.00  0.00     0.146 C 
HETATM   11  N3  UNL     1      23.535   6.781  50.976  1.00  0.00    -0.280 NA
HETATM   12  C9  UNL     1      23.891   7.019  49.585  1.00  0.00     0.296 C 
HETATM   13  N4  UNL     1      24.751   5.970  49.114  1.00  0.00    -0.274 N 
HETATM   14  N6  UNL     1      24.040   4.782  49.086  1.00  0.00    -0.293 N 
HETATM   15  H30 UNL     1      24.404   4.037  48.497  1.00  0.00     0.184 HD
ENDROOT
BRANCH  13  16
HETATM   16  C10 UNL     1      26.111   6.084  48.728  1.00  0.00     0.052 A 
HETATM   17  C11 UNL     1      26.668   7.253  48.265  1.00  0.00     0.031 A 
HETATM   18  C12 UNL     1      27.987   7.374  47.885  1.00  0.00     0.009 A 
HETATM   19  C13 UNL     1      28.833   6.297  47.954  1.00  0.00    -0.058 A 
HETATM   20  C22 UNL     1      28.296   5.100  48.419  1.00  0.00     0.009 A 
HETATM   21  C23 UNL     1      26.973   5.031  48.787  1.00  0.00     0.031 A 
BRANCH  19  22
HETATM   22  C14 UNL     1      30.262   6.363  47.565  1.00  0.00     0.040 C 
BRANCH  22  23
HETATM   23  C15 UNL     1      31.124   5.367  48.282  1.00  0.00     0.024 C 
BRANCH  23  24
HETATM   24  C16 UNL     1      31.881   4.462  47.389  1.00  0.00     0.117 C 
BRANCH  24  25
HETATM   25  N5  UNL     1      32.945   5.027  46.650  1.00  0.00    -0.412 N 
HETATM   26  C17 UNL     1      33.226   4.437  45.393  1.00  0.00     0.117 C 
HETATM   27  C18 UNL     1      34.665   4.047  45.293  1.00  0.00     0.019 C 
HETATM   28  C19 UNL     1      34.974   3.197  46.531  1.00  0.00     0.003 C 
HETATM   29  C20 UNL     1      34.947   4.130  47.722  1.00  0.00     0.019 C 
HETATM   30  C21 UNL     1      34.083   5.343  47.462  1.00  0.00     0.117 C 
ENDBRANCH  24  25
ENDBRANCH  23  24
ENDBRANCH  22  23
ENDBRANCH  19  22
ENDBRANCH  13  16
TORSDOF 5
ENDMDL
MODEL 8
REMARK VINA RESULT:      -7.1      4.825      7.412
REMARK  5 active torsions:
REMARK  status: ('A' for Active; 'I' for Inactive)
REMARK    1  A    between atoms: N4_13  and  C10_14 
REMARK    2  A    between atoms: C13_17  and  C14_18 
REMARK    3  A    between atoms: C14_18  and  C15_19 
REMARK    4  A    between atoms: C15_19  and  C16_20 
REMARK    5  A    between atoms: C16_20  and  N5_21 
ROOT
HETATM    1  C1  UNL     1      25.668   0.145  53.994  1.00  0.00     0.001 A 
HETATM    2  C2  UNL     1      25.993   1.343  53.559  1.00  0.00    -0.007 A 
HETATM    3  C3  UNL     1      25.241   2.258  52.696  1.00  0.00     0.155 A 
HETATM    4  N1  UNL     1      23.960   1.703  52.302  1.00  0.00    -0.326 N 
HETATM    5  C4  UNL     1      23.609   0.396  52.779  1.00  0.00     0.127 A 
HETATM    6  C5  UNL     1      24.370  -0.350  53.559  1.00  0.00     0.050 A 
HETATM    7  N2  UNL     1      22.320   0.056  52.274  1.00  0.00    -0.243 NA
HETATM    8  C6  UNL     1      21.922   1.055  51.561  1.00  0.00     0.152 A 
HETATM    9  C7  UNL     1      22.882   2.218  51.479  1.00  0.00     0.192 A 
HETATM   10  C8  UNL     1      22.187   3.347  52.146  1.00  0.00     0.146 C 
HETATM   11  N3  UNL     1      21.837   4.435  51.573  1.00  0.00    -0.280 NA
HETATM   12  C9  UNL     1      22.168   4.526  50.159  1.00  0.00     0.296 C 
HETATM   13  N4  UNL     1      23.412   3.855  49.904  1.00  0.00    -0.274 N 
HETATM   14  N6  UNL     1      23.247   2.498  50.129  1.00  0.00    -0.293 N 
HETATM   15  H30 UNL     1      23.924   1.871  49.701  1.00  0.00     0.184 HD
ENDROOT
BRANCH  13  16
HETATM   16  C10 UNL     1      24.634   4.442  49.488  1.00  0.00     0.052 A 
HETATM   17  C11 UNL     1      24.730   5.731  49.018  1.00  0.00     0.031 A 
HETATM   18  C12 UNL     1      25.911   6.310  48.609  1.00  0.00     0.009 A 
HETATM   19  C13 UNL     1      27.086   5.603  48.652  1.00  0.00    -0.058 A 
HETATM   20  C22 UNL     1      27.018   4.295  49.123  1.00  0.00     0.009 A 
HETATM   21  C23 UNL     1      25.814   3.762  49.521  1.00  0.00     0.031 A 
BRANCH  19  22
HETATM   22  C14 UNL     1      28.389   6.169  48.232  1.00  0.00     0.040 C 
BRANCH  22  23
HETATM   23  C15 UNL     1      29.491   5.154  48.167  1.00  0.00     0.024 C 
BRANCH  23  24
HETATM   24  C16 UNL     1      30.843   5.707  48.400  1.00  0.00     0.117 C 
BRANCH  24  25
HETATM   25  N5  UNL     1      31.321   6.655  47.467  1.00  0.00    -0.412 N 
HETATM   26  C17 UNL     1      32.149   6.159  46.429  1.00  0.00     0.117 C 
HETATM   27  C18 UNL     1      33.440   6.908  46.368  1.00  0.00     0.019 C 
HETATM   28  C19 UNL     1      34.029   6.880  47.783  1.00  0.00     0.003 C 
HETATM   29  C20 UNL     1      33.152   7.765  48.642  1.00  0.00     0.019 C 
HETATM   30  C21 UNL     1      31.752   7.876  48.082  1.00  0.00     0.117 C 
ENDBRANCH  24  25
ENDBRANCH  23  24
ENDBRANCH  22  23
ENDBRANCH  19  22
ENDBRANCH  13  16
TORSDOF 5
ENDMDL
MODEL 9
REMARK VINA RESULT:      -7.0      3.801      5.516
REMARK  5 active torsions:
REMARK  status: ('A' for Active; 'I' for Inactive)
REMARK    1  A    between atoms: N4_13  and  C10_14 
REMARK    2  A    between atoms: C13_17  and  C14_18 
REMARK    3  A    between atoms: C14_18  and  C15_19 
REMARK    4  A    between atoms: C15_19  and  C16_20 
REMARK    5  A    between atoms: C16_20  and  N5_21 
ROOT
HETATM    1  C1  UNL     1      29.464   0.922  54.418  1.00  0.00     0.001 A 
HETATM    2  C2  UNL     1      29.059   2.061  53.900  1.00  0.00    -0.007 A 
HETATM    3  C3  UNL     1      27.784   2.391  53.255  1.00  0.00     0.155 A 
HETATM    4  N1  UNL     1      26.884   1.254  53.218  1.00  0.00    -0.326 N 
HETATM    5  C4  UNL     1      27.331   0.014  53.785  1.00  0.00     0.127 A 
HETATM    6  C5  UNL     1      28.511  -0.176  54.345  1.00  0.00     0.050 A 
HETATM    7  N2  UNL     1      26.294  -0.954  53.639  1.00  0.00    -0.243 NA
HETATM    8  C6  UNL     1      25.312  -0.364  53.046  1.00  0.00     0.152 A 
HETATM    9  C7  UNL     1      25.539   1.088  52.701  1.00  0.00     0.192 A 
HETATM   10  C8  UNL     1      24.553   1.841  53.516  1.00  0.00     0.146 C 
HETATM   11  N3  UNL     1      23.600   2.550  53.043  1.00  0.00    -0.280 NA
HETATM   12  C9  UNL     1      23.517   2.592  51.591  1.00  0.00     0.296 C 
HETATM   13  N4  UNL     1      24.836   2.551  51.025  1.00  0.00    -0.274 N 
HETATM   14  N6  UNL     1      25.408   1.319  51.300  1.00  0.00    -0.293 N 
HETATM   15  H30 UNL     1      26.189   1.029  50.716  1.00  0.00     0.184 HD
ENDROOT
BRANCH  13  16
HETATM   16  C10 UNL     1      25.489   3.577  50.296  1.00  0.00     0.052 A 
HETATM   17  C11 UNL     1      26.655   3.379  49.594  1.00  0.00     0.031 A 
HETATM   18  C12 UNL     1      27.299   4.369  48.885  1.00  0.00     0.009 A 
HETATM   19  C13 UNL     1      26.790   5.642  48.846  1.00  0.00    -0.058 A 
HETATM   20  C22 UNL     1      25.611   5.872  49.549  1.00  0.00     0.009 A 
HETATM   21  C23 UNL     1      25.005   4.850  50.242  1.00  0.00     0.031 A 
BRANCH  19  22
HETATM   22  C14 UNL     1      27.431   6.749  48.099  1.00  0.00     0.040 C 
BRANCH  22  23
HETATM   23  C15 UNL     1      26.544   7.945  47.921  1.00  0.00     0.024 C 
BRANCH  23  24
HETATM   24  C16 UNL     1      26.243   8.276  46.510  1.00  0.00     0.117 C 
BRANCH  24  25
HETATM   25  N5  UNL     1      24.950   8.768  46.225  1.00  0.00    -0.412 N 
HETATM   26  C17 UNL     1      23.887   7.833  46.298  1.00  0.00     0.117 C 
HETATM   27  C18 UNL     1      23.092   7.826  45.032  1.00  0.00     0.019 C 
HETATM   28  C19 UNL     1      24.094   7.632  43.889  1.00  0.00     0.003 C 
HETATM   29  C20 UNL     1      24.898   8.911  43.788  1.00  0.00     0.019 C 
HETATM   30  C21 UNL     1      24.926   9.658  45.102  1.00  0.00     0.117 C 
ENDBRANCH  24  25
ENDBRANCH  23  24
ENDBRANCH  22  23
ENDBRANCH  19  22
ENDBRANCH  13  16
TORSDOF 5
ENDMDL
