MODEL 1
REMARK VINA RESULT:      -6.4      0.000      0.000
REMARK  8 active torsions:
REMARK  status: ('A' for Active; 'I' for Inactive)
REMARK    1  A    between atoms: O1_2  and  C2_3 
REMARK    2  A    between atoms: C6_9  and  C7_10 
REMARK    3  A    between atoms: C7_10  and  C8_11 
REMARK    4  A    between atoms: C10_14  and  C11_15 
REMARK    5  A    between atoms: C11_15  and  C12_16 
REMARK    6  A    between atoms: C12_16  and  O2_17 
REMARK    7  A    between atoms: C12_16  and  C13_18 
REMARK    8  A    between atoms: C13_18  and  N3_19 
ROOT
HETATM    1  C2  UNL     1      23.885   0.191  53.022  1.00  0.00     0.085 A 
HETATM    2  C3  UNL     1      25.205   0.203  53.281  1.00  0.00     0.027 A 
HETATM    3  C4  UNL     1      25.914  -0.988  53.728  1.00  0.00     0.131 C 
HETATM    4  N1  UNL     1      26.943  -0.571  54.461  1.00  0.00    -0.254 NA
HETATM    5  C5  UNL     1      27.152   0.858  54.561  1.00  0.00     0.228 C 
HETATM    6  N2  UNL     1      26.566   1.955  54.001  1.00  0.00    -0.263 NA
HETATM    7  C6  UNL     1      25.537   1.591  53.049  1.00  0.00     0.106 A 
HETATM    8  C9  UNL     1      24.409   2.326  52.696  1.00  0.00     0.021 A 
HETATM    9  C10 UNL     1      23.340   1.502  52.651  1.00  0.00    -0.023 A 
ENDROOT
BRANCH   9  10
HETATM   10  C11 UNL     1      21.969   1.901  52.303  1.00  0.00     0.074 C 
BRANCH  10  11
HETATM   11  C12 UNL     1      21.764   3.367  52.072  1.00  0.00     0.140 C 
BRANCH  11  12
HETATM   12  O2  UNL     1      20.499   3.656  52.643  1.00  0.00    -0.394 OA
HETATM   13  H14 UNL     1      19.793   3.687  51.967  1.00  0.00     0.210 HD
ENDBRANCH  11  12
BRANCH  11  14
HETATM   14  C13 UNL     1      21.686   3.752  50.615  1.00  0.00     0.161 C 
BRANCH  14  15
HETATM   15  N3  UNL     1      22.859   4.420  50.131  1.00  0.00    -0.348 N 
HETATM   16  C14 UNL     1      23.431   5.369  50.927  1.00  0.00     0.111 A 
HETATM   17  C15 UNL     1      24.546   5.905  50.313  1.00  0.00     0.135 A 
HETATM   18  N4  UNL     1      24.641   5.270  49.135  1.00  0.00    -0.255 NA
HETATM   19  C16 UNL     1      23.639   4.395  49.040  1.00  0.00     0.209 A 
ENDBRANCH  14  15
ENDBRANCH  11  14
ENDBRANCH  10  11
ENDBRANCH   9  10
BRANCH   1  20
HETATM   20  O1  UNL     1      22.949  -0.845  53.077  1.00  0.00    -0.355 OA
HETATM   21  C1  UNL     1      22.240  -1.223  54.221  1.00  0.00     0.210 C 
ENDBRANCH   1  20
BRANCH   7  22
HETATM   22  C7  UNL     1      26.421   1.446  51.689  1.00  0.00     0.074 C 
BRANCH  22  23
HETATM   23  C8  UNL     1      26.508   2.768  51.035  1.00  0.00     0.225 C 
HETATM   24  F1  UNL     1      26.598   2.714  49.662  1.00  0.00    -0.255 F 
ENDBRANCH  22  23
ENDBRANCH   7  22
TORSDOF 8
ENDMDL
MODEL 2
REMARK VINA RESULT:      -6.4      1.948      2.443
REMARK  8 active torsions:
REMARK  status: ('A' for Active; 'I' for Inactive)
REMARK    1  A    between atoms: O1_2  and  C2_3 
REMARK    2  A    between atoms: C6_9  and  C7_10 
REMARK    3  A    between atoms: C7_10  and  C8_11 
REMARK    4  A    between atoms: C10_14  and  C11_15 
REMARK    5  A    between atoms: C11_15  and  C12_16 
REMARK    6  A    between atoms: C12_16  and  O2_17 
REMARK    7  A    between atoms: C12_16  and  C13_18 
REMARK    8  A    between atoms: C13_18  and  N3_19 
ROOT
HETATM    1  C2  UNL     1      23.824   1.489  52.821  1.00  0.00     0.085 A 
HETATM    2  C3  UNL     1      24.855   0.767  53.296  1.00  0.00     0.027 A 
HETATM    3  C4  UNL     1      24.803  -0.685  53.389  1.00  0.00     0.131 C 
HETATM    4  N1  UNL     1      25.599  -1.036  54.395  1.00  0.00    -0.254 NA
HETATM    5  C5  UNL     1      26.342   0.018  55.052  1.00  0.00     0.228 C 
HETATM    6  N2  UNL     1      26.497   1.357  54.845  1.00  0.00    -0.263 NA
HETATM    7  C6  UNL     1      25.796   1.803  53.658  1.00  0.00     0.106 A 
HETATM    8  C9  UNL     1      25.273   3.069  53.408  1.00  0.00     0.021 A 
HETATM    9  C10 UNL     1      24.040   2.939  52.871  1.00  0.00    -0.023 A 
ENDROOT
BRANCH   9  10
HETATM   10  C11 UNL     1      23.168   4.048  52.457  1.00  0.00     0.074 C 
BRANCH  10  11
HETATM   11  C12 UNL     1      23.829   5.113  51.636  1.00  0.00     0.140 C 
BRANCH  11  12
HETATM   12  O2  UNL     1      22.977   6.242  51.745  1.00  0.00    -0.394 OA
HETATM   13  H14 UNL     1      23.364   6.936  52.315  1.00  0.00     0.210 HD
ENDBRANCH  11  12
BRANCH  11  14
HETATM   14  C13 UNL     1      23.929   4.779  50.167  1.00  0.00     0.161 C 
BRANCH  14  15
HETATM   15  N3  UNL     1      25.276   4.647  49.696  1.00  0.00    -0.348 N 
HETATM   16  C14 UNL     1      25.841   5.715  49.061  1.00  0.00     0.111 A 
HETATM   17  C15 UNL     1      27.135   5.420  48.679  1.00  0.00     0.135 A 
HETATM   18  N4  UNL     1      27.347   4.161  49.089  1.00  0.00    -0.255 NA
HETATM   19  C16 UNL     1      26.242   3.716  49.689  1.00  0.00     0.209 A 
ENDBRANCH  14  15
ENDBRANCH  11  14
ENDBRANCH  10  11
ENDBRANCH   9  10
BRANCH   1  20
HETATM   20  O1  UNL     1      22.580   1.092  52.320  1.00  0.00    -0.355 OA
HETATM   21  C1  UNL     1      22.250   1.021  50.964  1.00  0.00     0.210 C 
ENDBRANCH   1  20
BRANCH   7  22
HETATM   22  C7  UNL     1      26.937   1.558  52.522  1.00  0.00     0.074 C 
BRANCH  22  23
HETATM   23  C8  UNL     1      28.198   2.180  52.972  1.00  0.00     0.225 C 
HETATM   24  F1  UNL     1      29.234   1.291  53.154  1.00  0.00    -0.255 F 
ENDBRANCH  22  23
ENDBRANCH   7  22
TORSDOF 8
ENDMDL
MODEL 3
REMARK VINA RESULT:      -6.2      2.210      5.603
REMARK  8 active torsions:
REMARK  status: ('A' for Active; 'I' for Inactive)
REMARK    1  A    between atoms: O1_2  and  C2_3 
REMARK    2  A    between atoms: C6_9  and  C7_10 
REMARK    3  A    between atoms: C7_10  and  C8_11 
REMARK    4  A    between atoms: C10_14  and  C11_15 
REMARK    5  A    between atoms: C11_15  and  C12_16 
REMARK    6  A    between atoms: C12_16  and  O2_17 
REMARK    7  A    between atoms: C12_16  and  C13_18 
REMARK    8  A    between atoms: C13_18  and  N3_19 
ROOT
HETATM    1  C2  UNL     1      22.331   0.579  53.034  1.00  0.00     0.085 A 
HETATM    2  C3  UNL     1      21.527   0.972  52.031  1.00  0.00     0.027 A 
HETATM    3  C4  UNL     1      20.096   0.700  52.037  1.00  0.00     0.131 C 
HETATM    4  N1  UNL     1      19.713   0.618  50.766  1.00  0.00    -0.254 NA
HETATM    5  C5  UNL     1      20.712   0.886  49.754  1.00  0.00     0.228 C 
HETATM    6  N2  UNL     1      22.013   1.295  49.772  1.00  0.00    -0.263 NA
HETATM    7  C6  UNL     1      22.471   1.577  51.118  1.00  0.00     0.106 A 
HETATM    8  C9  UNL     1      23.771   1.490  51.607  1.00  0.00     0.021 A 
HETATM    9  C10 UNL     1      23.750   0.883  52.814  1.00  0.00    -0.023 A 
ENDROOT
BRANCH   9  10
HETATM   10  C11 UNL     1      24.924   0.619  53.657  1.00  0.00     0.074 C 
BRANCH  10  11
HETATM   11  C12 UNL     1      25.599  -0.699  53.425  1.00  0.00     0.140 C 
BRANCH  11  12
HETATM   12  O2  UNL     1      25.731  -1.276  54.714  1.00  0.00    -0.394 OA
HETATM   13  H14 UNL     1      26.086  -0.637  55.363  1.00  0.00     0.210 HD
ENDBRANCH  11  12
BRANCH  11  14
HETATM   14  C13 UNL     1      26.990  -0.582  52.852  1.00  0.00     0.161 C 
BRANCH  14  15
HETATM   15  N3  UNL     1      27.808   0.389  53.517  1.00  0.00    -0.348 N 
HETATM   16  C14 UNL     1      27.924   1.625  52.952  1.00  0.00     0.111 A 
HETATM   17  C15 UNL     1      28.740   2.432  53.721  1.00  0.00     0.135 A 
HETATM   18  N4  UNL     1      29.117   1.669  54.758  1.00  0.00    -0.255 NA
HETATM   19  C16 UNL     1      28.559   0.465  54.627  1.00  0.00     0.209 A 
ENDBRANCH  14  15
ENDBRANCH  11  14
ENDBRANCH  10  11
ENDBRANCH   9  10
BRANCH   1  20
HETATM   20  O1  UNL     1      22.048  -0.090  54.229  1.00  0.00    -0.355 OA
HETATM   21  C1  UNL     1      21.887  -1.473  54.351  1.00  0.00     0.210 C 
ENDBRANCH   1  20
BRANCH   7  22
HETATM   22  C7  UNL     1      22.041   3.141  51.263  1.00  0.00     0.074 C 
BRANCH  22  23
HETATM   23  C8  UNL     1      22.808   3.938  50.285  1.00  0.00     0.225 C 
HETATM   24  F1  UNL     1      23.500   4.994  50.835  1.00  0.00    -0.255 F 
ENDBRANCH  22  23
ENDBRANCH   7  22
TORSDOF 8
ENDMDL
MODEL 4
REMARK VINA RESULT:      -6.2      1.890      2.213
REMARK  8 active torsions:
REMARK  status: ('A' for Active; 'I' for Inactive)
REMARK    1  A    between atoms: O1_2  and  C2_3 
REMARK    2  A    between atoms: C6_9  and  C7_10 
REMARK    3  A    between atoms: C7_10  and  C8_11 
REMARK    4  A    between atoms: C10_14  and  C11_15 
REMARK    5  A    between atoms: C11_15  and  C12_16 
REMARK    6  A    between atoms: C12_16  and  O2_17 
REMARK    7  A    between atoms: C12_16  and  C13_18 
REMARK    8  A    between atoms: C13_18  and  N3_19 
ROOT
HETATM    1  C2  UNL     1      24.027   0.174  53.200  1.00  0.00     0.085 A 
HETATM    2  C3  UNL     1      25.365   0.205  53.327  1.00  0.00     0.027 A 
HETATM    3  C4  UNL     1      26.133  -0.973  53.706  1.00  0.00     0.131 C 
HETATM    4  N1  UNL     1      27.222  -0.538  54.334  1.00  0.00    -0.254 NA
HETATM    5  C5  UNL     1      27.418   0.894  54.408  1.00  0.00     0.228 C 
HETATM    6  N2  UNL     1      26.764   1.981  53.907  1.00  0.00    -0.263 NA
HETATM    7  C6  UNL     1      25.652   1.597  53.060  1.00  0.00     0.106 A 
HETATM    8  C9  UNL     1      24.484   2.315  52.818  1.00  0.00     0.021 A 
HETATM    9  C10 UNL     1      23.429   1.474  52.880  1.00  0.00    -0.023 A 
ENDROOT
BRANCH   9  10
HETATM   10  C11 UNL     1      22.024   1.851  52.667  1.00  0.00     0.074 C 
BRANCH  10  11
HETATM   11  C12 UNL     1      21.441   1.440  51.349  1.00  0.00     0.140 C 
BRANCH  11  12
HETATM   12  O2  UNL     1      21.124   0.066  51.501  1.00  0.00    -0.394 OA
HETATM   13  H14 UNL     1      21.539  -0.482  50.806  1.00  0.00     0.210 HD
ENDBRANCH  11  12
BRANCH  11  14
HETATM   14  C13 UNL     1      22.406   1.543  50.195  1.00  0.00     0.161 C 
BRANCH  14  15
HETATM   15  N3  UNL     1      21.836   2.122  49.014  1.00  0.00    -0.348 N 
HETATM   16  C14 UNL     1      22.685   2.620  48.069  1.00  0.00     0.111 A 
HETATM   17  C15 UNL     1      21.972   3.133  47.003  1.00  0.00     0.135 A 
HETATM   18  N4  UNL     1      20.682   2.940  47.314  1.00  0.00    -0.255 NA
HETATM   19  C16 UNL     1      20.614   2.342  48.504  1.00  0.00     0.209 A 
ENDBRANCH  14  15
ENDBRANCH  11  14
ENDBRANCH  10  11
ENDBRANCH   9  10
BRANCH   1  20
HETATM   20  O1  UNL     1      23.116  -0.877  53.350  1.00  0.00    -0.355 OA
HETATM   21  C1  UNL     1      22.455  -1.199  54.538  1.00  0.00     0.210 C 
ENDBRANCH   1  20
BRANCH   7  22
HETATM   22  C7  UNL     1      26.401   1.460  51.621  1.00  0.00     0.074 C 
BRANCH  22  23
HETATM   23  C8  UNL     1      26.513   2.801  51.013  1.00  0.00     0.225 C 
HETATM   24  F1  UNL     1      26.351   2.817  49.645  1.00  0.00    -0.255 F 
ENDBRANCH  22  23
ENDBRANCH   7  22
TORSDOF 8
ENDMDL
MODEL 5
REMARK VINA RESULT:      -6.2      3.147      6.117
REMARK  8 active torsions:
REMARK  status: ('A' for Active; 'I' for Inactive)
REMARK    1  A    between atoms: O1_2  and  C2_3 
REMARK    2  A    between atoms: C6_9  and  C7_10 
REMARK    3  A    between atoms: C7_10  and  C8_11 
REMARK    4  A    between atoms: C10_14  and  C11_15 
REMARK    5  A    between atoms: C11_15  and  C12_16 
REMARK    6  A    between atoms: C12_16  and  O2_17 
REMARK    7  A    between atoms: C12_16  and  C13_18 
REMARK    8  A    between atoms: C13_18  and  N3_19 
ROOT
HETATM    1  C2  UNL     1      22.582   1.692  50.255  1.00  0.00     0.085 A 
HETATM    2  C3  UNL     1      21.532   1.174  50.917  1.00  0.00     0.027 A 
HETATM    3  C4  UNL     1      20.297   0.803  50.239  1.00  0.00     0.131 C 
HETATM    4  N1  UNL     1      19.316   0.932  51.127  1.00  0.00    -0.254 NA
HETATM    5  C5  UNL     1      19.687   1.296  52.478  1.00  0.00     0.228 C 
HETATM    6  N2  UNL     1      20.869   1.485  53.132  1.00  0.00    -0.263 NA
HETATM    7  C6  UNL     1      22.007   1.197  52.283  1.00  0.00     0.106 A 
HETATM    8  C9  UNL     1      23.284   1.745  52.363  1.00  0.00     0.021 A 
HETATM    9  C10 UNL     1      23.706   2.066  51.120  1.00  0.00    -0.023 A 
ENDROOT
BRANCH   9  10
HETATM   10  C11 UNL     1      25.010   2.656  50.787  1.00  0.00     0.074 C 
BRANCH  10  11
HETATM   11  C12 UNL     1      26.099   2.417  51.790  1.00  0.00     0.140 C 
BRANCH  11  12
HETATM   12  O2  UNL     1      27.206   3.165  51.314  1.00  0.00    -0.394 OA
HETATM   13  H14 UNL     1      27.466   3.869  51.941  1.00  0.00     0.210 HD
ENDBRANCH  11  12
BRANCH  11  14
HETATM   14  C13 UNL     1      26.545   0.978  51.876  1.00  0.00     0.161 C 
BRANCH  14  15
HETATM   15  N3  UNL     1      27.030   0.601  53.171  1.00  0.00    -0.348 N 
HETATM   16  C14 UNL     1      28.342   0.244  53.285  1.00  0.00     0.111 A 
HETATM   17  C15 UNL     1      28.640  -0.084  54.593  1.00  0.00     0.135 A 
HETATM   18  N4  UNL     1      27.493   0.078  55.269  1.00  0.00    -0.255 NA
HETATM   19  C16 UNL     1      26.550   0.483  54.418  1.00  0.00     0.209 A 
ENDBRANCH  14  15
ENDBRANCH  11  14
ENDBRANCH  10  11
ENDBRANCH   9  10
BRANCH   1  20
HETATM   20  O1  UNL     1      22.767   1.959  48.895  1.00  0.00    -0.355 OA
HETATM   21  C1  UNL     1      22.407   3.150  48.258  1.00  0.00     0.210 C 
ENDBRANCH   1  20
BRANCH   7  22
HETATM   22  C7  UNL     1      22.187  -0.399  52.547  1.00  0.00     0.074 C 
BRANCH  22  23
HETATM   23  C8  UNL     1      22.975  -0.591  53.782  1.00  0.00     0.225 C 
HETATM   24  F1  UNL     1      22.380  -1.418  54.709  1.00  0.00    -0.255 F 
ENDBRANCH  22  23
ENDBRANCH   7  22
TORSDOF 8
ENDMDL
MODEL 6
REMARK VINA RESULT:      -6.1      1.559      2.170
REMARK  8 active torsions:
REMARK  status: ('A' for Active; 'I' for Inactive)
REMARK    1  A    between atoms: O1_2  and  C2_3 
REMARK    2  A    between atoms: C6_9  and  C7_10 
REMARK    3  A    between atoms: C7_10  and  C8_11 
REMARK    4  A    between atoms: C10_14  and  C11_15 
REMARK    5  A    between atoms: C11_15  and  C12_16 
REMARK    6  A    between atoms: C12_16  and  O2_17 
REMARK    7  A    between atoms: C12_16  and  C13_18 
REMARK    8  A    between atoms: C13_18  and  N3_19 
ROOT
HETATM    1  C2  UNL     1      23.366   1.184  52.879  1.00  0.00     0.085 A 
HETATM    2  C3  UNL     1      24.552   0.659  53.233  1.00  0.00     0.027 A 
HETATM    3  C4  UNL     1      24.695  -0.740  53.612  1.00  0.00     0.131 C 
HETATM    4  N1  UNL     1      25.721  -0.808  54.456  1.00  0.00    -0.254 NA
HETATM    5  C5  UNL     1      26.454   0.414  54.710  1.00  0.00     0.228 C 
HETATM    6  N2  UNL     1      26.400   1.686  54.220  1.00  0.00    -0.263 NA
HETATM    7  C6  UNL     1      25.417   1.815  53.163  1.00  0.00     0.106 A 
HETATM    8  C9  UNL     1      24.705   2.956  52.803  1.00  0.00     0.021 A 
HETATM    9  C10 UNL     1      23.412   2.623  52.599  1.00  0.00    -0.023 A 
ENDROOT
BRANCH   9  10
HETATM   10  C11 UNL     1      22.347   3.550  52.192  1.00  0.00     0.074 C 
BRANCH  10  11
HETATM   11  C12 UNL     1      22.789   4.708  51.348  1.00  0.00     0.140 C 
BRANCH  11  12
HETATM   12  O2  UNL     1      22.422   5.861  52.088  1.00  0.00    -0.394 OA
HETATM   13  H14 UNL     1      21.566   6.228  51.789  1.00  0.00     0.210 HD
ENDBRANCH  11  12
BRANCH  11  14
HETATM   14  C13 UNL     1      22.085   4.798  50.017  1.00  0.00     0.161 C 
BRANCH  14  15
HETATM   15  N3  UNL     1      21.975   3.542  49.336  1.00  0.00    -0.348 N 
HETATM   16  C14 UNL     1      20.727   3.028  49.135  1.00  0.00     0.111 A 
HETATM   17  C15 UNL     1      20.803   1.822  48.465  1.00  0.00     0.135 A 
HETATM   18  N4  UNL     1      22.112   1.612  48.263  1.00  0.00    -0.255 NA
HETATM   19  C16 UNL     1      22.794   2.635  48.781  1.00  0.00     0.209 A 
ENDBRANCH  14  15
ENDBRANCH  11  14
ENDBRANCH  10  11
ENDBRANCH   9  10
BRANCH   1  20
HETATM   20  O1  UNL     1      22.102   0.598  52.763  1.00  0.00    -0.355 OA
HETATM   21  C1  UNL     1      21.190   0.451  53.812  1.00  0.00     0.210 C 
ENDBRANCH   1  20
BRANCH   7  22
HETATM   22  C7  UNL     1      26.315   1.418  51.864  1.00  0.00     0.074 C 
BRANCH  22  23
HETATM   23  C8  UNL     1      26.746   2.658  51.186  1.00  0.00     0.225 C 
HETATM   24  F1  UNL     1      26.634   2.620  49.814  1.00  0.00    -0.255 F 
ENDBRANCH  22  23
ENDBRANCH   7  22
TORSDOF 8
ENDMDL
MODEL 7
REMARK VINA RESULT:      -6.1      2.464      3.508
REMARK  8 active torsions:
REMARK  status: ('A' for Active; 'I' for Inactive)
REMARK    1  A    between atoms: O1_2  and  C2_3 
REMARK    2  A    between atoms: C6_9  and  C7_10 
REMARK    3  A    between atoms: C7_10  and  C8_11 
REMARK    4  A    between atoms: C10_14  and  C11_15 
REMARK    5  A    between atoms: C11_15  and  C12_16 
REMARK    6  A    between atoms: C12_16  and  O2_17 
REMARK    7  A    between atoms: C12_16  and  C13_18 
REMARK    8  A    between atoms: C13_18  and  N3_19 
ROOT
HETATM    1  C2  UNL     1      26.114   1.627  52.505  1.00  0.00     0.085 A 
HETATM    2  C3  UNL     1      27.096   0.997  53.174  1.00  0.00     0.027 A 
HETATM    3  C4  UNL     1      28.417   1.586  53.343  1.00  0.00     0.131 C 
HETATM    4  N1  UNL     1      29.278   0.578  53.449  1.00  0.00    -0.254 NA
HETATM    5  C5  UNL     1      28.732  -0.763  53.461  1.00  0.00     0.228 C 
HETATM    6  N2  UNL     1      27.473  -1.287  53.462  1.00  0.00    -0.263 NA
HETATM    7  C6  UNL     1      26.459  -0.254  53.519  1.00  0.00     0.106 A 
HETATM    8  C9  UNL     1      25.161  -0.312  53.021  1.00  0.00     0.021 A 
HETATM    9  C10 UNL     1      24.880   0.845  52.383  1.00  0.00    -0.023 A 
ENDROOT
BRANCH   9  10
HETATM   10  C11 UNL     1      23.603   1.173  51.734  1.00  0.00     0.074 C 
BRANCH  10  11
HETATM   11  C12 UNL     1      22.706   2.092  52.507  1.00  0.00     0.140 C 
BRANCH  11  12
HETATM   12  O2  UNL     1      21.781   1.239  53.160  1.00  0.00    -0.394 OA
HETATM   13  H14 UNL     1      20.940   1.697  53.359  1.00  0.00     0.210 HD
ENDBRANCH  11  12
BRANCH  11  14
HETATM   14  C13 UNL     1      21.901   3.031  51.642  1.00  0.00     0.161 C 
BRANCH  14  15
HETATM   15  N3  UNL     1      22.656   4.139  51.135  1.00  0.00    -0.348 N 
HETATM   16  C14 UNL     1      23.230   4.990  52.035  1.00  0.00     0.111 A 
HETATM   17  C15 UNL     1      23.919   5.992  51.380  1.00  0.00     0.135 A 
HETATM   18  N4  UNL     1      23.756   5.738  50.073  1.00  0.00    -0.255 NA
HETATM   19  C16 UNL     1      23.009   4.640  49.941  1.00  0.00     0.209 A 
ENDBRANCH  14  15
ENDBRANCH  11  14
ENDBRANCH  10  11
ENDBRANCH   9  10
BRANCH   1  20
HETATM   20  O1  UNL     1      26.085   2.881  51.886  1.00  0.00    -0.355 OA
HETATM   21  C1  UNL     1      26.466   3.129  50.565  1.00  0.00     0.210 C 
ENDBRANCH   1  20
BRANCH   7  22
HETATM   22  C7  UNL     1      26.313  -0.063  55.130  1.00  0.00     0.074 C 
BRANCH  22  23
HETATM   23  C8  UNL     1      25.194  -0.900  55.609  1.00  0.00     0.225 C 
HETATM   24  F1  UNL     1      25.075  -0.952  56.980  1.00  0.00    -0.255 F 
ENDBRANCH  22  23
ENDBRANCH   7  22
TORSDOF 8
ENDMDL
MODEL 8
REMARK VINA RESULT:      -5.8      2.339      6.216
REMARK  8 active torsions:
REMARK  status: ('A' for Active; 'I' for Inactive)
REMARK    1  A    between atoms: O1_2  and  C2_3 
REMARK    2  A    between atoms: C6_9  and  C7_10 
REMARK    3  A    between atoms: C7_10  and  C8_11 
REMARK    4  A    between atoms: C10_14  and  C11_15 
REMARK    5  A    between atoms: C11_15  and  C12_16 
REMARK    6  A    between atoms: C12_16  and  O2_17 
REMARK    7  A    between atoms: C12_16  and  C13_18 
REMARK    8  A    between atoms: C13_18  and  N3_19 
ROOT
HETATM    1  C2  UNL     1      24.596   2.652  51.864  1.00  0.00     0.085 A 
HETATM    2  C3  UNL     1      23.805   3.422  51.097  1.00  0.00     0.027 A 
HETATM    3  C4  UNL     1      22.428   3.722  51.463  1.00  0.00     0.131 C 
HETATM    4  N1  UNL     1      21.761   3.922  50.329  1.00  0.00    -0.254 NA
HETATM    5  C5  UNL     1      22.521   3.886  49.098  1.00  0.00     0.228 C 
HETATM    6  N2  UNL     1      23.843   3.760  48.788  1.00  0.00    -0.263 NA
HETATM    7  C6  UNL     1      24.673   3.707  49.975  1.00  0.00     0.106 A 
HETATM    8  C9  UNL     1      25.906   3.079  50.120  1.00  0.00     0.021 A 
HETATM    9  C10 UNL     1      25.925   2.409  51.293  1.00  0.00    -0.023 A 
ENDROOT
BRANCH   9  10
HETATM   10  C11 UNL     1      27.058   1.630  51.813  1.00  0.00     0.074 C 
BRANCH  10  11
HETATM   11  C12 UNL     1      27.594   2.081  53.138  1.00  0.00     0.140 C 
BRANCH  11  12
HETATM   12  O2  UNL     1      28.958   2.388  52.897  1.00  0.00    -0.394 OA
HETATM   13  H14 UNL     1      29.082   3.329  52.661  1.00  0.00     0.210 HD
ENDBRANCH  11  12
BRANCH  11  14
HETATM   14  C13 UNL     1      27.567   1.012  54.204  1.00  0.00     0.161 C 
BRANCH  14  15
HETATM   15  N3  UNL     1      27.754  -0.315  53.695  1.00  0.00    -0.348 N 
HETATM   16  C14 UNL     1      29.011  -0.844  53.729  1.00  0.00     0.111 A 
HETATM   17  C15 UNL     1      29.011  -2.122  53.207  1.00  0.00     0.135 A 
HETATM   18  N4  UNL     1      27.738  -2.362  52.857  1.00  0.00    -0.255 NA
HETATM   19  C16 UNL     1      27.006  -1.287  53.151  1.00  0.00     0.209 A 
ENDBRANCH  14  15
ENDBRANCH  11  14
ENDBRANCH  10  11
ENDBRANCH   9  10
BRANCH   1  20
HETATM   20  O1  UNL     1      24.355   2.026  53.091  1.00  0.00    -0.355 OA
HETATM   21  C1  UNL     1      23.833   0.739  53.243  1.00  0.00     0.210 C 
ENDBRANCH   1  20
BRANCH   7  22
HETATM   22  C7  UNL     1      24.945   5.293  50.225  1.00  0.00     0.074 C 
BRANCH  22  23
HETATM   23  C8  UNL     1      26.040   5.733  49.336  1.00  0.00     0.225 C 
HETATM   24  F1  UNL     1      25.621   6.440  48.231  1.00  0.00    -0.255 F 
ENDBRANCH  22  23
ENDBRANCH   7  22
TORSDOF 8
ENDMDL
MODEL 9
REMARK VINA RESULT:      -5.7      2.416      3.308
REMARK  8 active torsions:
REMARK  status: ('A' for Active; 'I' for Inactive)
REMARK    1  A    between atoms: O1_2  and  C2_3 
REMARK    2  A    between atoms: C6_9  and  C7_10 
REMARK    3  A    between atoms: C7_10  and  C8_11 
REMARK    4  A    between atoms: C10_14  and  C11_15 
REMARK    5  A    between atoms: C11_15  and  C12_16 
REMARK    6  A    between atoms: C12_16  and  O2_17 
REMARK    7  A    between atoms: C12_16  and  C13_18 
REMARK    8  A    between atoms: C13_18  and  N3_19 
ROOT
HETATM    1  C2  UNL     1      23.698   1.114  53.041  1.00  0.00     0.085 A 
HETATM    2  C3  UNL     1      23.926  -0.022  53.724  1.00  0.00     0.027 A 
HETATM    3  C4  UNL     1      22.845  -0.904  54.140  1.00  0.00     0.131 C 
HETATM    4  N1  UNL     1      23.255  -1.525  55.242  1.00  0.00    -0.254 NA
HETATM    5  C5  UNL     1      24.609  -1.266  55.685  1.00  0.00     0.228 C 
HETATM    6  N2  UNL     1      25.662  -0.555  55.189  1.00  0.00    -0.263 NA
HETATM    7  C6  UNL     1      25.362   0.023  53.895  1.00  0.00     0.106 A 
HETATM    8  C9  UNL     1      25.900   1.179  53.337  1.00  0.00     0.021 A 
HETATM    9  C10 UNL     1      24.907   1.902  52.775  1.00  0.00    -0.023 A 
ENDROOT
BRANCH   9  10
HETATM   10  C11 UNL     1      25.075   3.182  52.073  1.00  0.00     0.074 C 
BRANCH  10  11
HETATM   11  C12 UNL     1      25.539   3.080  50.651  1.00  0.00     0.140 C 
BRANCH  11  12
HETATM   12  O2  UNL     1      26.791   3.747  50.625  1.00  0.00    -0.394 OA
HETATM   13  H14 UNL     1      26.685   4.718  50.580  1.00  0.00     0.210 HD
ENDBRANCH  11  12
BRANCH  11  14
HETATM   14  C13 UNL     1      24.644   3.787  49.663  1.00  0.00     0.161 C 
BRANCH  14  15
HETATM   15  N3  UNL     1      24.071   5.000  50.169  1.00  0.00    -0.348 N 
HETATM   16  C14 UNL     1      22.729   5.021  50.413  1.00  0.00     0.111 A 
HETATM   17  C15 UNL     1      22.347   6.257  50.897  1.00  0.00     0.135 A 
HETATM   18  N4  UNL     1      23.473   6.983  50.943  1.00  0.00    -0.255 NA
HETATM   19  C16 UNL     1      24.485   6.229  50.511  1.00  0.00     0.209 A 
ENDBRANCH  14  15
ENDBRANCH  11  14
ENDBRANCH  10  11
ENDBRANCH   9  10
BRANCH   1  20
HETATM   20  O1  UNL     1      22.508   1.680  52.574  1.00  0.00    -0.355 OA
HETATM   21  C1  UNL     1      21.935   1.420  51.326  1.00  0.00     0.210 C 
ENDBRANCH   1  20
BRANCH   7  22
HETATM   22  C7  UNL     1      25.801  -1.197  52.910  1.00  0.00     0.074 C 
BRANCH  22  23
HETATM   23  C8  UNL     1      27.274  -1.310  52.920  1.00  0.00     0.225 C 
HETATM   24  F1  UNL     1      27.744  -2.590  52.734  1.00  0.00    -0.255 F 
ENDBRANCH  22  23
ENDBRANCH   7  22
TORSDOF 8
ENDMDL
