MODEL 1
REMARK VINA RESULT:      -7.9      0.000      0.000
REMARK  5 active torsions:
REMARK  status: ('A' for Active; 'I' for Inactive)
REMARK    1  A    between atoms: C2_2  and  C3_3 
REMARK    2  A    between atoms: C3_3  and  C4_4 
REMARK    3  A    between atoms: C5_6  and  C6_7 
REMARK    4  A    between atoms: N1_10  and  C8_11 
REMARK    5  A    between atoms: C9_12  and  C10_13 
ROOT
HETATM    1  C8  UNL     1      25.033  -0.566  53.330  1.00  0.00     0.153 C 
HETATM    2  C9  UNL     1      23.965  -0.594  54.251  1.00  0.00     0.011 C 
ENDROOT
BRANCH   2   3
HETATM    3  C10 UNL     1      22.732  -0.312  53.919  1.00  0.00     0.042 A 
HETATM    4  C11 UNL     1      21.530  -0.974  54.373  1.00  0.00     0.256 A 
HETATM    5  O3  UNL     1      21.188  -2.032  55.000  1.00  0.00    -0.267 OA
HETATM    6  N2  UNL     1      20.326  -0.291  54.031  1.00  0.00    -0.322 N 
HETATM    7  C12 UNL     1      20.743   0.917  53.288  1.00  0.00     0.046 A 
HETATM    8  H14 UNL     1      19.273  -0.323  54.148  1.00  0.00     0.169 HD
HETATM    9  C13 UNL     1      20.155   2.037  52.739  1.00  0.00     0.030 A 
HETATM   10  C17 UNL     1      22.105   0.833  53.254  1.00  0.00     0.006 A 
HETATM   11  C14 UNL     1      20.788   3.040  52.177  1.00  0.00     0.002 A 
HETATM   12  C15 UNL     1      22.193   2.976  52.126  1.00  0.00     0.001 A 
HETATM   13  C16 UNL     1      22.866   1.858  52.668  1.00  0.00     0.014 A 
ENDBRANCH   2   3
BRANCH   1  14
HETATM   14  N1  UNL     1      26.284   0.069  53.487  1.00  0.00    -0.357 N 
HETATM   15  C4  UNL     1      26.807   1.021  52.613  1.00  0.00     0.229 C 
HETATM   16  O1  UNL     1      28.172   1.169  52.939  1.00  0.00    -0.321 OA
HETATM   17  C5  UNL     1      28.228   0.711  54.290  1.00  0.00     0.124 C 
HETATM   18  C7  UNL     1      27.153   0.095  54.588  1.00  0.00     0.128 C 
BRANCH  15  19
HETATM   19  C3  UNL     1      26.341   1.362  51.272  1.00  0.00     0.054 C 
BRANCH  19  20
HETATM   20  C2  UNL     1      26.136   2.872  51.101  1.00  0.00    -0.000 C 
HETATM   21  C1  UNL     1      26.458   3.175  49.669  1.00  0.00     0.005 C 
ENDBRANCH  19  20
ENDBRANCH  15  19
BRANCH  17  22
HETATM   22  C6  UNL     1      29.529   1.238  54.525  1.00  0.00     0.296 C 
HETATM   23  O2  UNL     1      29.235   2.452  54.592  1.00  0.00    -0.299 OA
ENDBRANCH  17  22
ENDBRANCH   1  14
TORSDOF 5
ENDMDL
MODEL 2
REMARK VINA RESULT:      -7.9      1.568      2.017
REMARK  5 active torsions:
REMARK  status: ('A' for Active; 'I' for Inactive)
REMARK    1  A    between atoms: C2_2  and  C3_3 
REMARK    2  A    between atoms: C3_3  and  C4_4 
REMARK    3  A    between atoms: C5_6  and  C6_7 
REMARK    4  A    between atoms: N1_10  and  C8_11 
REMARK    5  A    between atoms: C9_12  and  C10_13 
ROOT
HETATM    1  C8  UNL     1      24.269   0.879  53.446  1.00  0.00     0.153 C 
HETATM    2  C9  UNL     1      23.383   0.150  52.627  1.00  0.00     0.011 C 
ENDROOT
BRANCH   2   3
HETATM    3  C10 UNL     1      22.265  -0.363  53.069  1.00  0.00     0.042 A 
HETATM    4  C11 UNL     1      22.028  -0.962  54.363  1.00  0.00     0.256 A 
HETATM    5  O3  UNL     1      22.692  -1.371  55.374  1.00  0.00    -0.267 OA
HETATM    6  N2  UNL     1      20.653  -1.211  54.645  1.00  0.00    -0.322 N 
HETATM    7  C12 UNL     1      19.905  -0.752  53.455  1.00  0.00     0.046 A 
HETATM    8  H14 UNL     1      19.994  -1.564  55.397  1.00  0.00     0.169 HD
HETATM    9  C13 UNL     1      18.592  -0.614  53.059  1.00  0.00     0.030 A 
HETATM   10  C17 UNL     1      20.876  -0.300  52.608  1.00  0.00     0.006 A 
HETATM   11  C14 UNL     1      18.181  -0.085  51.930  1.00  0.00     0.002 A 
HETATM   12  C15 UNL     1      19.162   0.385  51.038  1.00  0.00     0.001 A 
HETATM   13  C16 UNL     1      20.530   0.277  51.375  1.00  0.00     0.014 A 
ENDBRANCH   2   3
BRANCH   1  14
HETATM   14  N1  UNL     1      25.665   0.703  53.570  1.00  0.00    -0.357 N 
HETATM   15  C4  UNL     1      26.601   1.071  52.604  1.00  0.00     0.229 C 
HETATM   16  O1  UNL     1      27.819   0.454  52.960  1.00  0.00    -0.321 OA
HETATM   17  C5  UNL     1      27.659   0.215  54.359  1.00  0.00     0.124 C 
HETATM   18  C7  UNL     1      26.437   0.364  54.690  1.00  0.00     0.128 C 
BRANCH  15  19
HETATM   19  C3  UNL     1      26.358   1.450  51.216  1.00  0.00     0.054 C 
BRANCH  19  20
HETATM   20  C2  UNL     1      26.177   2.964  51.055  1.00  0.00    -0.000 C 
HETATM   21  C1  UNL     1      26.543   3.278  49.637  1.00  0.00     0.005 C 
ENDBRANCH  19  20
ENDBRANCH  15  19
BRANCH  17  22
HETATM   22  C6  UNL     1      29.036  -0.068  54.575  1.00  0.00     0.296 C 
HETATM   23  O2  UNL     1      29.084  -1.202  54.049  1.00  0.00    -0.299 OA
ENDBRANCH  17  22
ENDBRANCH   1  14
TORSDOF 5
ENDMDL
MODEL 3
REMARK VINA RESULT:      -7.8      2.014      6.757
REMARK  5 active torsions:
REMARK  status: ('A' for Active; 'I' for Inactive)
REMARK    1  A    between atoms: C2_2  and  C3_3 
REMARK    2  A    between atoms: C3_3  and  C4_4 
REMARK    3  A    between atoms: C5_6  and  C6_7 
REMARK    4  A    between atoms: N1_10  and  C8_11 
REMARK    5  A    between atoms: C9_12  and  C10_13 
ROOT
HETATM    1  C8  UNL     1      23.683  -0.359  54.044  1.00  0.00     0.153 C 
HETATM    2  C9  UNL     1      24.792  -0.439  53.176  1.00  0.00     0.011 C 
ENDROOT
BRANCH   2   3
HETATM    3  C10 UNL     1      25.821   0.363  53.261  1.00  0.00     0.042 A 
HETATM    4  C11 UNL     1      25.810   1.769  53.595  1.00  0.00     0.256 A 
HETATM    5  O3  UNL     1      24.973   2.724  53.729  1.00  0.00    -0.267 OA
HETATM    6  N2  UNL     1      27.102   2.316  53.847  1.00  0.00    -0.322 N 
HETATM    7  C12 UNL     1      28.057   1.202  53.665  1.00  0.00     0.046 A 
HETATM    8  H14 UNL     1      27.602   3.202  54.145  1.00  0.00     0.169 HD
HETATM    9  C13 UNL     1      29.409   0.976  53.811  1.00  0.00     0.030 A 
HETATM   10  C17 UNL     1      27.267   0.141  53.326  1.00  0.00     0.006 A 
HETATM   11  C14 UNL     1      30.017  -0.176  53.651  1.00  0.00     0.002 A 
HETATM   12  C15 UNL     1      29.226  -1.285  53.297  1.00  0.00     0.001 A 
HETATM   13  C16 UNL     1      27.832  -1.130  53.129  1.00  0.00     0.014 A 
ENDBRANCH   2   3
BRANCH   1  14
HETATM   14  N1  UNL     1      22.317  -0.332  53.689  1.00  0.00    -0.357 N 
HETATM   15  C4  UNL     1      21.751   0.549  52.768  1.00  0.00     0.229 C 
HETATM   16  O1  UNL     1      20.352   0.467  52.931  1.00  0.00    -0.321 OA
HETATM   17  C5  UNL     1      20.176  -0.813  53.538  1.00  0.00     0.124 C 
HETATM   18  C7  UNL     1      21.295  -1.255  53.958  1.00  0.00     0.128 C 
BRANCH  15  19
HETATM   19  C3  UNL     1      22.346   1.752  52.195  1.00  0.00     0.054 C 
BRANCH  19  20
HETATM   20  C2  UNL     1      22.776   1.544  50.738  1.00  0.00    -0.000 C 
HETATM   21  C1  UNL     1      23.737   2.650  50.426  1.00  0.00     0.005 C 
ENDBRANCH  19  20
ENDBRANCH  15  19
BRANCH  17  22
HETATM   22  C6  UNL     1      18.772  -0.846  53.307  1.00  0.00     0.296 C 
HETATM   23  O2  UNL     1      18.538  -2.007  53.711  1.00  0.00    -0.299 OA
ENDBRANCH  17  22
ENDBRANCH   1  14
TORSDOF 5
ENDMDL
MODEL 4
REMARK VINA RESULT:      -7.7      2.751      7.072
REMARK  5 active torsions:
REMARK  status: ('A' for Active; 'I' for Inactive)
REMARK    1  A    between atoms: C2_2  and  C3_3 
REMARK    2  A    between atoms: C3_3  and  C4_4 
REMARK    3  A    between atoms: C5_6  and  C6_7 
REMARK    4  A    between atoms: N1_10  and  C8_11 
REMARK    5  A    between atoms: C9_12  and  C10_13 
ROOT
HETATM    1  C8  UNL     1      25.604   2.317  51.851  1.00  0.00     0.153 C 
HETATM    2  C9  UNL     1      26.126   1.819  53.063  1.00  0.00     0.011 C 
ENDROOT
BRANCH   2   3
HETATM    3  C10 UNL     1      27.287   1.223  53.146  1.00  0.00     0.042 A 
HETATM    4  C11 UNL     1      28.516   1.771  53.673  1.00  0.00     0.256 A 
HETATM    5  O3  UNL     1      28.997   2.899  54.030  1.00  0.00    -0.267 OA
HETATM    6  N2  UNL     1      29.551   0.807  53.856  1.00  0.00    -0.322 N 
HETATM    7  C12 UNL     1      28.982  -0.486  53.417  1.00  0.00     0.046 A 
HETATM    8  H14 UNL     1      30.540   0.685  54.218  1.00  0.00     0.169 HD
HETATM    9  C13 UNL     1      29.358  -1.812  53.382  1.00  0.00     0.030 A 
HETATM   10  C17 UNL     1      27.714  -0.173  53.021  1.00  0.00     0.006 A 
HETATM   11  C14 UNL     1      28.603  -2.814  52.996  1.00  0.00     0.002 A 
HETATM   12  C15 UNL     1      27.292  -2.518  52.580  1.00  0.00     0.001 A 
HETATM   13  C16 UNL     1      26.836  -1.181  52.588  1.00  0.00     0.014 A 
ENDBRANCH   2   3
BRANCH   1  14
HETATM   14  N1  UNL     1      24.313   2.103  51.321  1.00  0.00    -0.357 N 
HETATM   15  C4  UNL     1      23.292   1.412  51.972  1.00  0.00     0.229 C 
HETATM   16  O1  UNL     1      22.297   1.150  51.006  1.00  0.00    -0.321 OA
HETATM   17  C5  UNL     1      22.545   2.146  50.013  1.00  0.00     0.124 C 
HETATM   18  C7  UNL     1      23.687   2.680  50.207  1.00  0.00     0.128 C 
BRANCH  15  19
HETATM   19  C3  UNL     1      23.392   0.567  53.157  1.00  0.00     0.054 C 
BRANCH  19  20
HETATM   20  C2  UNL     1      22.585  -0.728  53.011  1.00  0.00    -0.000 C 
HETATM   21  C1  UNL     1      22.341  -1.227  54.402  1.00  0.00     0.005 C 
ENDBRANCH  19  20
ENDBRANCH  15  19
BRANCH  17  22
HETATM   22  C6  UNL     1      21.303   1.945  49.350  1.00  0.00     0.296 C 
HETATM   23  O2  UNL     1      21.485   0.773  48.953  1.00  0.00    -0.299 OA
ENDBRANCH  17  22
ENDBRANCH   1  14
TORSDOF 5
ENDMDL
MODEL 5
REMARK VINA RESULT:      -7.5      2.636      6.337
REMARK  5 active torsions:
REMARK  status: ('A' for Active; 'I' for Inactive)
REMARK    1  A    between atoms: C2_2  and  C3_3 
REMARK    2  A    between atoms: C3_3  and  C4_4 
REMARK    3  A    between atoms: C5_6  and  C6_7 
REMARK    4  A    between atoms: N1_10  and  C8_11 
REMARK    5  A    between atoms: C9_12  and  C10_13 
ROOT
HETATM    1  C8  UNL     1      21.289   0.617  53.376  1.00  0.00     0.153 C 
HETATM    2  C9  UNL     1      22.404  -0.120  52.928  1.00  0.00     0.011 C 
ENDROOT
BRANCH   2   3
HETATM    3  C10 UNL     1      23.497  -0.256  53.633  1.00  0.00     0.042 A 
HETATM    4  C11 UNL     1      23.663  -1.014  54.853  1.00  0.00     0.256 A 
HETATM    5  O3  UNL     1      22.946  -1.600  55.732  1.00  0.00    -0.267 OA
HETATM    6  N2  UNL     1      25.021  -1.174  55.257  1.00  0.00    -0.322 N 
HETATM    7  C12 UNL     1      25.832  -0.471  54.240  1.00  0.00     0.046 A 
HETATM    8  H14 UNL     1      25.638  -1.635  55.985  1.00  0.00     0.169 HD
HETATM    9  C13 UNL     1      27.165  -0.277  53.946  1.00  0.00     0.030 A 
HETATM   10  C17 UNL     1      24.909   0.030  53.367  1.00  0.00     0.006 A 
HETATM   11  C14 UNL     1      27.637   0.352  52.895  1.00  0.00     0.002 A 
HETATM   12  C15 UNL     1      26.706   0.881  51.982  1.00  0.00     0.001 A 
HETATM   13  C16 UNL     1      25.322   0.722  52.217  1.00  0.00     0.014 A 
ENDBRANCH   2   3
BRANCH   1  14
HETATM   14  N1  UNL     1      20.574   1.607  52.667  1.00  0.00    -0.357 N 
HETATM   15  C4  UNL     1      21.148   2.734  52.080  1.00  0.00     0.229 C 
HETATM   16  O1  UNL     1      20.090   3.610  51.757  1.00  0.00    -0.321 OA
HETATM   17  C5  UNL     1      18.964   2.735  51.681  1.00  0.00     0.124 C 
HETATM   18  C7  UNL     1      19.253   1.605  52.195  1.00  0.00     0.128 C 
BRANCH  15  19
HETATM   19  C3  UNL     1      22.493   3.265  52.280  1.00  0.00     0.054 C 
BRANCH  19  20
HETATM   20  C2  UNL     1      23.210   3.531  50.952  1.00  0.00    -0.000 C 
HETATM   21  C1  UNL     1      22.916   2.351  50.077  1.00  0.00     0.005 C 
ENDBRANCH  19  20
ENDBRANCH  15  19
BRANCH  17  22
HETATM   22  C6  UNL     1      18.129   3.693  51.042  1.00  0.00     0.296 C 
HETATM   23  O2  UNL     1      17.393   3.983  52.010  1.00  0.00    -0.299 OA
ENDBRANCH  17  22
ENDBRANCH   1  14
TORSDOF 5
ENDMDL
MODEL 6
REMARK VINA RESULT:      -7.5      3.213      6.766
REMARK  5 active torsions:
REMARK  status: ('A' for Active; 'I' for Inactive)
REMARK    1  A    between atoms: C2_2  and  C3_3 
REMARK    2  A    between atoms: C3_3  and  C4_4 
REMARK    3  A    between atoms: C5_6  and  C6_7 
REMARK    4  A    between atoms: N1_10  and  C8_11 
REMARK    5  A    between atoms: C9_12  and  C10_13 
ROOT
HETATM    1  C8  UNL     1      26.729   2.772  51.255  1.00  0.00     0.153 C 
HETATM    2  C9  UNL     1      26.453   2.958  49.885  1.00  0.00     0.011 C 
ENDROOT
BRANCH   2   3
HETATM    3  C10 UNL     1      26.143   4.119  49.373  1.00  0.00     0.042 A 
HETATM    4  C11 UNL     1      24.891   4.829  49.505  1.00  0.00     0.256 A 
HETATM    5  O3  UNL     1      23.699   4.618  49.911  1.00  0.00    -0.267 OA
HETATM    6  N2  UNL     1      24.935   6.177  49.041  1.00  0.00    -0.322 N 
HETATM    7  C12 UNL     1      26.315   6.393  48.556  1.00  0.00     0.046 A 
HETATM    8  H14 UNL     1      24.358   7.062  48.958  1.00  0.00     0.169 HD
HETATM    9  C13 UNL     1      27.077   7.431  48.062  1.00  0.00     0.030 A 
HETATM   10  C17 UNL     1      26.931   5.193  48.762  1.00  0.00     0.006 A 
HETATM   11  C14 UNL     1      28.354   7.372  47.765  1.00  0.00     0.002 A 
HETATM   12  C15 UNL     1      29.013   6.145  47.965  1.00  0.00     0.001 A 
HETATM   13  C16 UNL     1      28.296   5.036  48.469  1.00  0.00     0.014 A 
ENDBRANCH   2   3
BRANCH   1  14
HETATM   14  N1  UNL     1      26.190   1.789  52.114  1.00  0.00    -0.357 N 
HETATM   15  C4  UNL     1      26.898   1.143  53.126  1.00  0.00     0.229 C 
HETATM   16  O1  UNL     1      26.117   0.039  53.530  1.00  0.00    -0.321 OA
HETATM   17  C5  UNL     1      24.801   0.412  53.120  1.00  0.00     0.124 C 
HETATM   18  C7  UNL     1      24.857   1.406  52.324  1.00  0.00     0.128 C 
BRANCH  15  19
HETATM   19  C3  UNL     1      28.340   1.130  53.346  1.00  0.00     0.054 C 
BRANCH  19  20
HETATM   20  C2  UNL     1      28.759   0.057  54.358  1.00  0.00    -0.000 C 
HETATM   21  C1  UNL     1      29.656  -0.886  53.618  1.00  0.00     0.005 C 
ENDBRANCH  19  20
ENDBRANCH  15  19
BRANCH  17  22
HETATM   22  C6  UNL     1      24.161  -0.604  53.882  1.00  0.00     0.296 C 
HETATM   23  O2  UNL     1      23.171  -0.804  53.145  1.00  0.00    -0.299 OA
ENDBRANCH  17  22
ENDBRANCH   1  14
TORSDOF 5
ENDMDL
MODEL 7
REMARK VINA RESULT:      -7.5      2.228      6.715
REMARK  5 active torsions:
REMARK  status: ('A' for Active; 'I' for Inactive)
REMARK    1  A    between atoms: C2_2  and  C3_3 
REMARK    2  A    between atoms: C3_3  and  C4_4 
REMARK    3  A    between atoms: C5_6  and  C6_7 
REMARK    4  A    between atoms: N1_10  and  C8_11 
REMARK    5  A    between atoms: C9_12  and  C10_13 
ROOT
HETATM    1  C8  UNL     1      25.110   1.266  52.367  1.00  0.00     0.153 C 
HETATM    2  C9  UNL     1      26.110   1.637  53.290  1.00  0.00     0.011 C 
ENDROOT
BRANCH   2   3
HETATM    3  C10 UNL     1      27.309   1.118  53.287  1.00  0.00     0.042 A 
HETATM    4  C11 UNL     1      28.537   1.745  53.721  1.00  0.00     0.256 A 
HETATM    5  O3  UNL     1      28.969   2.904  54.040  1.00  0.00    -0.267 OA
HETATM    6  N2  UNL     1      29.642   0.851  53.827  1.00  0.00    -0.322 N 
HETATM    7  C12 UNL     1      29.127  -0.478  53.432  1.00  0.00     0.046 A 
HETATM    8  H14 UNL     1      30.661   0.795  54.114  1.00  0.00     0.169 HD
HETATM    9  C13 UNL     1      29.583  -1.777  53.370  1.00  0.00     0.030 A 
HETATM   10  C17 UNL     1      27.814  -0.249  53.132  1.00  0.00     0.006 A 
HETATM   11  C14 UNL     1      28.867  -2.828  53.042  1.00  0.00     0.002 A 
HETATM   12  C15 UNL     1      27.512  -2.619  52.724  1.00  0.00     0.001 A 
HETATM   13  C16 UNL     1      26.973  -1.313  52.766  1.00  0.00     0.014 A 
ENDBRANCH   2   3
BRANCH   1  14
HETATM   14  N1  UNL     1      23.775   0.905  52.649  1.00  0.00    -0.357 N 
HETATM   15  C4  UNL     1      22.654   1.466  52.039  1.00  0.00     0.229 C 
HETATM   16  O1  UNL     1      21.534   1.074  52.803  1.00  0.00    -0.321 OA
HETATM   17  C5  UNL     1      21.999  -0.098  53.473  1.00  0.00     0.124 C 
HETATM   18  C7  UNL     1      23.267  -0.184  53.374  1.00  0.00     0.128 C 
BRANCH  15  19
HETATM   19  C3  UNL     1      22.586   2.671  51.219  1.00  0.00     0.054 C 
BRANCH  19  20
HETATM   20  C2  UNL     1      22.763   2.363  49.728  1.00  0.00    -0.000 C 
HETATM   21  C1  UNL     1      23.893   3.227  49.256  1.00  0.00     0.005 C 
ENDBRANCH  19  20
ENDBRANCH  15  19
BRANCH  17  22
HETATM   22  C6  UNL     1      20.700  -0.506  53.885  1.00  0.00     0.296 C 
HETATM   23  O2  UNL     1      20.391   0.496  54.567  1.00  0.00    -0.299 OA
ENDBRANCH  17  22
ENDBRANCH   1  14
TORSDOF 5
ENDMDL
MODEL 8
REMARK VINA RESULT:      -7.4      3.018      5.034
REMARK  5 active torsions:
REMARK  status: ('A' for Active; 'I' for Inactive)
REMARK    1  A    between atoms: C2_2  and  C3_3 
REMARK    2  A    between atoms: C3_3  and  C4_4 
REMARK    3  A    between atoms: C5_6  and  C6_7 
REMARK    4  A    between atoms: N1_10  and  C8_11 
REMARK    5  A    between atoms: C9_12  and  C10_13 
ROOT
HETATM    1  C8  UNL     1      25.184   2.242  51.390  1.00  0.00     0.153 C 
HETATM    2  C9  UNL     1      25.828   1.732  52.536  1.00  0.00     0.011 C 
ENDROOT
BRANCH   2   3
HETATM    3  C10 UNL     1      25.386   0.696  53.198  1.00  0.00     0.042 A 
HETATM    4  C11 UNL     1      26.155  -0.213  54.017  1.00  0.00     0.256 A 
HETATM    5  O3  UNL     1      27.376  -0.498  54.259  1.00  0.00    -0.267 OA
HETATM    6  N2  UNL     1      25.363  -1.098  54.805  1.00  0.00    -0.322 N 
HETATM    7  C12 UNL     1      23.955  -0.768  54.494  1.00  0.00     0.046 A 
HETATM    8  H14 UNL     1      25.422  -1.861  55.540  1.00  0.00     0.169 HD
HETATM    9  C13 UNL     1      22.697  -1.141  54.917  1.00  0.00     0.030 A 
HETATM   10  C17 UNL     1      24.046   0.239  53.577  1.00  0.00     0.006 A 
HETATM   11  C14 UNL     1      21.564  -0.615  54.513  1.00  0.00     0.002 A 
HETATM   12  C15 UNL     1      21.630   0.422  53.565  1.00  0.00     0.001 A 
HETATM   13  C16 UNL     1      22.885   0.858  53.085  1.00  0.00     0.014 A 
ENDBRANCH   2   3
BRANCH   1  14
HETATM   14  N1  UNL     1      24.839   3.586  51.126  1.00  0.00    -0.357 N 
HETATM   15  C4  UNL     1      25.447   4.388  50.161  1.00  0.00     0.229 C 
HETATM   16  O1  UNL     1      25.048   5.716  50.424  1.00  0.00    -0.321 OA
HETATM   17  C5  UNL     1      23.841   5.545  51.167  1.00  0.00     0.124 C 
HETATM   18  C7  UNL     1      23.733   4.335  51.553  1.00  0.00     0.128 C 
BRANCH  15  19
HETATM   19  C3  UNL     1      26.685   4.134  49.432  1.00  0.00     0.054 C 
BRANCH  19  20
HETATM   20  C2  UNL     1      27.150   5.362  48.640  1.00  0.00    -0.000 C 
HETATM   21  C1  UNL     1      28.608   5.154  48.368  1.00  0.00     0.005 C 
ENDBRANCH  19  20
ENDBRANCH  15  19
BRANCH  17  22
HETATM   22  C6  UNL     1      23.443   6.905  51.035  1.00  0.00     0.296 C 
HETATM   23  O2  UNL     1      22.311   6.727  50.534  1.00  0.00    -0.299 OA
ENDBRANCH  17  22
ENDBRANCH   1  14
TORSDOF 5
ENDMDL
MODEL 9
REMARK VINA RESULT:      -7.3      3.056      5.893
REMARK  5 active torsions:
REMARK  status: ('A' for Active; 'I' for Inactive)
REMARK    1  A    between atoms: C2_2  and  C3_3 
REMARK    2  A    between atoms: C3_3  and  C4_4 
REMARK    3  A    between atoms: C5_6  and  C6_7 
REMARK    4  A    between atoms: N1_10  and  C8_11 
REMARK    5  A    between atoms: C9_12  and  C10_13 
ROOT
HETATM    1  C8  UNL     1      23.125   2.260  52.339  1.00  0.00     0.153 C 
HETATM    2  C9  UNL     1      24.258   1.453  52.110  1.00  0.00     0.011 C 
ENDROOT
BRANCH   2   3
HETATM    3  C10 UNL     1      24.968   0.932  53.076  1.00  0.00     0.042 A 
HETATM    4  C11 UNL     1      24.652  -0.238  53.863  1.00  0.00     0.256 A 
HETATM    5  O3  UNL     1      23.663  -1.016  54.083  1.00  0.00    -0.267 OA
HETATM    6  N2  UNL     1      25.728  -0.702  54.674  1.00  0.00    -0.322 N 
HETATM    7  C12 UNL     1      26.853   0.223  54.422  1.00  0.00     0.046 A 
HETATM    8  H14 UNL     1      26.011  -1.473  55.345  1.00  0.00     0.169 HD
HETATM    9  C13 UNL     1      28.179   0.347  54.780  1.00  0.00     0.030 A 
HETATM   10  C17 UNL     1      26.350   1.121  53.525  1.00  0.00     0.006 A 
HETATM   11  C14 UNL     1      29.013   1.259  54.337  1.00  0.00     0.002 A 
HETATM   12  C15 UNL     1      28.518   2.199  53.413  1.00  0.00     0.001 A 
HETATM   13  C16 UNL     1      27.168   2.135  53.000  1.00  0.00     0.014 A 
ENDBRANCH   2   3
BRANCH   1  14
HETATM   14  N1  UNL     1      22.837   3.517  51.764  1.00  0.00    -0.357 N 
HETATM   15  C4  UNL     1      23.243   3.921  50.492  1.00  0.00     0.229 C 
HETATM   16  O1  UNL     1      23.036   5.314  50.422  1.00  0.00    -0.321 OA
HETATM   17  C5  UNL     1      22.048   5.542  51.427  1.00  0.00     0.124 C 
HETATM   18  C7  UNL     1      21.943   4.516  52.176  1.00  0.00     0.128 C 
BRANCH  15  19
HETATM   19  C3  UNL     1      24.228   3.289  49.621  1.00  0.00     0.054 C 
BRANCH  19  20
HETATM   20  C2  UNL     1      25.505   4.127  49.492  1.00  0.00    -0.000 C 
HETATM   21  C1  UNL     1      26.645   3.156  49.523  1.00  0.00     0.005 C 
ENDBRANCH  19  20
ENDBRANCH  15  19
BRANCH  17  22
HETATM   22  C6  UNL     1      21.745   6.858  50.981  1.00  0.00     0.296 C 
HETATM   23  O2  UNL     1      22.907   7.316  50.928  1.00  0.00    -0.299 OA
ENDBRANCH  17  22
ENDBRANCH   1  14
TORSDOF 5
ENDMDL
