MODEL 1
REMARK VINA RESULT:      -8.5      0.000      0.000
REMARK  7 active torsions:
REMARK  status: ('A' for Active; 'I' for Inactive)
REMARK    1  A    between atoms: O1_2  and  C2_3 
REMARK    2  A    between atoms: C4_5  and  C5_6 
REMARK    3  A    between atoms: C8_10  and  C9_11 
REMARK    4  A    between atoms: C9_11  and  C10_12 
REMARK    5  A    between atoms: C10_12  and  C11_13 
REMARK    6  A    between atoms: C13_15  and  N1_16 
REMARK    7  A    between atoms: N1_16  and  C14_17 
ROOT
HETATM    1  C5  UNL     1      27.730   5.275  48.729  1.00  0.00    -0.050 C 
HETATM    2  C6  UNL     1      28.848   5.302  48.285  1.00  0.00     0.010 C 
HETATM    3 CL1  UNL     1      30.453   5.357  47.643  1.00  0.00    -0.023 Cl
ENDROOT
BRANCH   1   4
HETATM    4  C4  UNL     1      26.392   5.238  49.236  1.00  0.00     0.022 A 
HETATM    5  C3  UNL     1      25.718   6.256  49.737  1.00  0.00     0.054 A 
HETATM    6  C2  UNL     1      24.334   6.146  50.243  1.00  0.00     0.291 A 
HETATM    7  O2  UNL     1      23.827   4.853  50.135  1.00  0.00    -0.321 OA
HETATM    8  C8  UNL     1      24.483   3.742  49.618  1.00  0.00     0.051 A 
HETATM    9  C7  UNL     1      25.709   3.954  49.194  1.00  0.00     0.052 A 
BRANCH   6  10
HETATM   10  O1  UNL     1      23.577   7.041  49.453  1.00  0.00    -0.362 OA
HETATM   11  C1  UNL     1      22.889   7.869  50.338  1.00  0.00     0.205 C 
ENDBRANCH   6  10
BRANCH   8  12
HETATM   12  C9  UNL     1      23.590   2.592  49.690  1.00  0.00     0.069 C 
BRANCH  12  13
HETATM   13  C10 UNL     1      22.572   2.561  50.755  1.00  0.00     0.040 C 
BRANCH  13  14
HETATM   14  C11 UNL     1      22.647   1.447  51.716  1.00  0.00    -0.076 A 
HETATM   15  C12 UNL     1      23.637   1.027  52.480  1.00  0.00     0.039 A 
HETATM   16  C13 UNL     1      23.848  -0.029  53.449  1.00  0.00     0.070 A 
HETATM   17  S1  UNL     1      22.473  -0.898  53.600  1.00  0.00    -0.106 SA
HETATM   18  C20 UNL     1      21.261  -0.358  52.643  1.00  0.00     0.072 A 
HETATM   19  C21 UNL     1      21.304   0.796  51.704  1.00  0.00     0.051 A 
BRANCH  16  20
HETATM   20  N1  UNL     1      25.023  -0.285  54.162  1.00  0.00    -0.348 N 
HETATM   21  H12 UNL     1      24.707  -0.535  55.142  1.00  0.00     0.166 HD
BRANCH  20  22
HETATM   22  C14 UNL     1      26.427  -0.331  54.083  1.00  0.00     0.072 A 
HETATM   23  C15 UNL     1      27.294   0.376  54.878  1.00  0.00     0.036 A 
HETATM   24  C16 UNL     1      28.669   0.367  54.809  1.00  0.00     0.044 A 
HETATM   25  C17 UNL     1      29.163  -0.453  53.825  1.00  0.00     0.119 A 
HETATM   26  F1  UNL     1      30.504  -0.547  53.654  1.00  0.00    -0.206 F 
HETATM   27  C18 UNL     1      28.399  -1.207  52.969  1.00  0.00     0.086 A 
HETATM   28  C19 UNL     1      27.042  -1.123  53.125  1.00  0.00     0.145 A 
HETATM   29  F2  UNL     1      26.303  -1.889  52.252  1.00  0.00    -0.204 F 
ENDBRANCH  20  22
ENDBRANCH  16  20
ENDBRANCH  13  14
ENDBRANCH  12  13
ENDBRANCH   8  12
ENDBRANCH   1   4
TORSDOF 7
ENDMDL
MODEL 2
REMARK VINA RESULT:      -8.5      1.858      2.520
REMARK  7 active torsions:
REMARK  status: ('A' for Active; 'I' for Inactive)
REMARK    1  A    between atoms: O1_2  and  C2_3 
REMARK    2  A    between atoms: C4_5  and  C5_6 
REMARK    3  A    between atoms: C8_10  and  C9_11 
REMARK    4  A    between atoms: C9_11  and  C10_12 
REMARK    5  A    between atoms: C10_12  and  C11_13 
REMARK    6  A    between atoms: C13_15  and  N1_16 
REMARK    7  A    between atoms: N1_16  and  C14_17 
ROOT
HETATM    1  C5  UNL     1      25.433   6.875  48.624  1.00  0.00    -0.050 C 
HETATM    2  C6  UNL     1      25.404   8.045  48.341  1.00  0.00     0.010 C 
HETATM    3 CL1  UNL     1      25.377   9.726  47.938  1.00  0.00    -0.023 Cl
ENDROOT
BRANCH   1   4
HETATM    4  C4  UNL     1      25.465   5.490  48.984  1.00  0.00     0.022 A 
HETATM    5  C3  UNL     1      26.546   4.752  49.154  1.00  0.00     0.054 A 
HETATM    6  C2  UNL     1      26.504   3.322  49.527  1.00  0.00     0.291 A 
HETATM    7  O2  UNL     1      25.203   2.846  49.674  1.00  0.00    -0.321 OA
HETATM    8  C8  UNL     1      24.028   3.570  49.510  1.00  0.00     0.051 A 
HETATM    9  C7  UNL     1      24.182   4.833  49.180  1.00  0.00     0.052 A 
BRANCH   6  10
HETATM   10  O1  UNL     1      27.202   3.238  50.754  1.00  0.00    -0.362 OA
HETATM   11  C1  UNL     1      26.680   2.139  51.433  1.00  0.00     0.205 C 
ENDBRANCH   6  10
BRANCH   8  12
HETATM   12  C9  UNL     1      22.894   2.690  49.760  1.00  0.00     0.069 C 
BRANCH  12  13
HETATM   13  C10 UNL     1      22.285   2.694  51.101  1.00  0.00     0.040 C 
BRANCH  13  14
HETATM   14  C11 UNL     1      22.475   1.486  51.924  1.00  0.00    -0.076 A 
HETATM   15  C12 UNL     1      23.494   1.093  52.664  1.00  0.00     0.039 A 
HETATM   16  C13 UNL     1      23.810  -0.042  53.505  1.00  0.00     0.070 A 
HETATM   17  S1  UNL     1      22.547  -1.078  53.504  1.00  0.00    -0.106 SA
HETATM   18  C20 UNL     1      21.298  -0.569  52.578  1.00  0.00     0.072 A 
HETATM   19  C21 UNL     1      21.220   0.689  51.788  1.00  0.00     0.051 A 
BRANCH  16  20
HETATM   20  N1  UNL     1      24.994  -0.246  54.221  1.00  0.00    -0.348 N 
HETATM   21  H12 UNL     1      24.692  -0.382  55.228  1.00  0.00     0.166 HD
BRANCH  20  22
HETATM   22  C14 UNL     1      26.395  -0.332  54.123  1.00  0.00     0.072 A 
HETATM   23  C15 UNL     1      27.292   0.341  54.915  1.00  0.00     0.036 A 
HETATM   24  C16 UNL     1      28.665   0.293  54.828  1.00  0.00     0.044 A 
HETATM   25  C17 UNL     1      29.123  -0.529  53.827  1.00  0.00     0.119 A 
HETATM   26  F1  UNL     1      30.458  -0.661  53.638  1.00  0.00    -0.206 F 
HETATM   27  C18 UNL     1      28.326  -1.251  52.973  1.00  0.00     0.086 A 
HETATM   28  C19 UNL     1      26.974  -1.130  53.149  1.00  0.00     0.145 A 
HETATM   29  F2  UNL     1      26.202  -1.864  52.277  1.00  0.00    -0.204 F 
ENDBRANCH  20  22
ENDBRANCH  16  20
ENDBRANCH  13  14
ENDBRANCH  12  13
ENDBRANCH   8  12
ENDBRANCH   1   4
TORSDOF 7
ENDMDL
MODEL 3
REMARK VINA RESULT:      -8.5      1.011      1.167
REMARK  7 active torsions:
REMARK  status: ('A' for Active; 'I' for Inactive)
REMARK    1  A    between atoms: O1_2  and  C2_3 
REMARK    2  A    between atoms: C4_5  and  C5_6 
REMARK    3  A    between atoms: C8_10  and  C9_11 
REMARK    4  A    between atoms: C9_11  and  C10_12 
REMARK    5  A    between atoms: C10_12  and  C11_13 
REMARK    6  A    between atoms: C13_15  and  N1_16 
REMARK    7  A    between atoms: N1_16  and  C14_17 
ROOT
HETATM    1  C5  UNL     1      28.856   5.669  48.262  1.00  0.00    -0.050 C 
HETATM    2  C6  UNL     1      30.007   5.630  47.910  1.00  0.00     0.010 C 
HETATM    3 CL1  UNL     1      31.659   5.559  47.406  1.00  0.00    -0.023 Cl
ENDROOT
BRANCH   1   4
HETATM    4  C4  UNL     1      27.495   5.717  48.704  1.00  0.00     0.022 A 
HETATM    5  C3  UNL     1      26.781   6.807  48.912  1.00  0.00     0.054 A 
HETATM    6  C2  UNL     1      25.375   6.783  49.368  1.00  0.00     0.291 A 
HETATM    7  O2  UNL     1      24.897   5.488  49.556  1.00  0.00    -0.321 OA
HETATM    8  C8  UNL     1      25.597   4.305  49.354  1.00  0.00     0.051 A 
HETATM    9  C7  UNL     1      26.838   4.443  48.946  1.00  0.00     0.052 A 
BRANCH   6  10
HETATM   10  O1  UNL     1      24.642   7.438  48.351  1.00  0.00    -0.362 OA
HETATM   11  C1  UNL     1      24.264   8.676  48.868  1.00  0.00     0.205 C 
ENDBRANCH   6  10
BRANCH   8  12
HETATM   12  C9  UNL     1      24.721   3.182  49.666  1.00  0.00     0.069 C 
BRANCH  12  13
HETATM   13  C10 UNL     1      23.651   3.381  50.659  1.00  0.00     0.040 C 
BRANCH  13  14
HETATM   14  C11 UNL     1      23.401   2.274  51.599  1.00  0.00    -0.076 A 
HETATM   15  C12 UNL     1      24.219   1.384  52.127  1.00  0.00     0.039 A 
HETATM   16  C13 UNL     1      24.114   0.267  53.043  1.00  0.00     0.070 A 
HETATM   17  S1  UNL     1      22.559   0.108  53.516  1.00  0.00    -0.106 SA
HETATM   18  C20 UNL     1      21.564   1.221  52.847  1.00  0.00     0.072 A 
HETATM   19  C21 UNL     1      21.940   2.308  51.902  1.00  0.00     0.051 A 
BRANCH  16  20
HETATM   20  N1  UNL     1      25.157  -0.557  53.478  1.00  0.00    -0.348 N 
HETATM   21  H12 UNL     1      24.688  -1.443  53.823  1.00  0.00     0.166 HD
BRANCH  20  22
HETATM   22  C14 UNL     1      26.551  -0.657  53.636  1.00  0.00     0.072 A 
HETATM   23  C15 UNL     1      27.317   0.119  54.469  1.00  0.00     0.036 A 
HETATM   24  C16 UNL     1      28.684   0.057  54.627  1.00  0.00     0.044 A 
HETATM   25  C17 UNL     1      29.283  -0.899  53.845  1.00  0.00     0.119 A 
HETATM   26  F1  UNL     1      30.628  -1.058  53.909  1.00  0.00    -0.206 F 
HETATM   27  C18 UNL     1      28.625  -1.734  52.976  1.00  0.00     0.086 A 
HETATM   28  C19 UNL     1      27.267  -1.587  52.897  1.00  0.00     0.145 A 
HETATM   29  F2  UNL     1      26.636  -2.436  52.016  1.00  0.00    -0.204 F 
ENDBRANCH  20  22
ENDBRANCH  16  20
ENDBRANCH  13  14
ENDBRANCH  12  13
ENDBRANCH   8  12
ENDBRANCH   1   4
TORSDOF 7
ENDMDL
MODEL 4
REMARK VINA RESULT:      -8.4      5.036      8.303
REMARK  7 active torsions:
REMARK  status: ('A' for Active; 'I' for Inactive)
REMARK    1  A    between atoms: O1_2  and  C2_3 
REMARK    2  A    between atoms: C4_5  and  C5_6 
REMARK    3  A    between atoms: C8_10  and  C9_11 
REMARK    4  A    between atoms: C9_11  and  C10_12 
REMARK    5  A    between atoms: C10_12  and  C11_13 
REMARK    6  A    between atoms: C13_15  and  N1_16 
REMARK    7  A    between atoms: N1_16  and  C14_17 
ROOT
HETATM    1  C5  UNL     1      24.330   0.115  53.493  1.00  0.00    -0.050 C 
HETATM    2  C6  UNL     1      23.356  -0.519  53.804  1.00  0.00     0.010 C 
HETATM    3 CL1  UNL     1      21.958  -1.439  54.238  1.00  0.00    -0.023 Cl
ENDROOT
BRANCH   1   4
HETATM    4  C4  UNL     1      25.475   0.885  53.110  1.00  0.00     0.022 A 
HETATM    5  C3  UNL     1      26.556   1.090  53.838  1.00  0.00     0.054 A 
HETATM    6  C2  UNL     1      27.706   1.898  53.379  1.00  0.00     0.291 A 
HETATM    7  O2  UNL     1      27.515   2.418  52.100  1.00  0.00    -0.321 OA
HETATM    8  C8  UNL     1      26.404   2.239  51.286  1.00  0.00     0.051 A 
HETATM    9  C7  UNL     1      25.442   1.501  51.793  1.00  0.00     0.052 A 
BRANCH   6  10
HETATM   10  O1  UNL     1      28.810   1.016  53.394  1.00  0.00    -0.362 OA
HETATM   11  C1  UNL     1      28.743   0.316  54.597  1.00  0.00     0.205 C 
ENDBRANCH   6  10
BRANCH   8  12
HETATM   12  C9  UNL     1      26.619   2.952  50.033  1.00  0.00     0.069 C 
BRANCH  12  13
HETATM   13  C10 UNL     1      25.524   3.783  49.502  1.00  0.00     0.040 C 
BRANCH  13  14
HETATM   14  C11 UNL     1      25.890   5.108  48.970  1.00  0.00    -0.076 A 
HETATM   15  C12 UNL     1      27.068   5.635  48.694  1.00  0.00     0.039 A 
HETATM   16  C13 UNL     1      27.565   6.893  48.178  1.00  0.00     0.070 A 
HETATM   17  S1  UNL     1      26.303   7.885  47.877  1.00  0.00    -0.106 SA
HETATM   18  C20 UNL     1      24.855   7.209  48.229  1.00  0.00     0.072 A 
HETATM   19  C21 UNL     1      24.608   5.843  48.764  1.00  0.00     0.051 A 
BRANCH  16  20
HETATM   20  N1  UNL     1      28.904   7.234  47.957  1.00  0.00    -0.348 N 
HETATM   21  H12 UNL     1      28.878   8.015  47.241  1.00  0.00     0.166 HD
BRANCH  20  22
HETATM   22  C14 UNL     1      30.235   6.942  48.303  1.00  0.00     0.072 A 
HETATM   23  C15 UNL     1      31.148   7.843  48.791  1.00  0.00     0.036 A 
HETATM   24  C16 UNL     1      32.462   7.590  49.117  1.00  0.00     0.044 A 
HETATM   25  C17 UNL     1      32.836   6.285  48.914  1.00  0.00     0.119 A 
HETATM   26  F1  UNL     1      34.107   5.909  49.197  1.00  0.00    -0.206 F 
HETATM   27  C18 UNL     1      32.015   5.295  48.432  1.00  0.00     0.086 A 
HETATM   28  C19 UNL     1      30.728   5.656  48.139  1.00  0.00     0.145 A 
HETATM   29  F2  UNL     1      29.931   4.643  47.657  1.00  0.00    -0.204 F 
ENDBRANCH  20  22
ENDBRANCH  16  20
ENDBRANCH  13  14
ENDBRANCH  12  13
ENDBRANCH   8  12
ENDBRANCH   1   4
TORSDOF 7
ENDMDL
MODEL 5
REMARK VINA RESULT:      -8.3      4.513      7.256
REMARK  7 active torsions:
REMARK  status: ('A' for Active; 'I' for Inactive)
REMARK    1  A    between atoms: O1_2  and  C2_3 
REMARK    2  A    between atoms: C4_5  and  C5_6 
REMARK    3  A    between atoms: C8_10  and  C9_11 
REMARK    4  A    between atoms: C9_11  and  C10_12 
REMARK    5  A    between atoms: C10_12  and  C11_13 
REMARK    6  A    between atoms: C13_15  and  N1_16 
REMARK    7  A    between atoms: N1_16  and  C14_17 
ROOT
HETATM    1  C5  UNL     1      17.485  -0.916  52.402  1.00  0.00    -0.050 C 
HETATM    2  C6  UNL     1      16.332  -1.260  52.382  1.00  0.00     0.010 C 
HETATM    3 CL1  UNL     1      14.671  -1.739  52.349  1.00  0.00    -0.023 Cl
ENDROOT
BRANCH   1   4
HETATM    4  C4  UNL     1      18.855  -0.502  52.450  1.00  0.00     0.022 A 
HETATM    5  C3  UNL     1      19.670  -0.618  53.482  1.00  0.00     0.054 A 
HETATM    6  C2  UNL     1      21.078  -0.169  53.462  1.00  0.00     0.291 A 
HETATM    7  O2  UNL     1      21.441   0.392  52.239  1.00  0.00    -0.321 OA
HETATM    8  C8  UNL     1      20.633   0.543  51.119  1.00  0.00     0.051 A 
HETATM    9  C7  UNL     1      19.400   0.106  51.247  1.00  0.00     0.052 A 
BRANCH   6  10
HETATM   10  O1  UNL     1      21.843  -1.329  53.719  1.00  0.00    -0.362 OA
HETATM   11  C1  UNL     1      22.280  -1.233  55.039  1.00  0.00     0.205 C 
ENDBRANCH   6  10
BRANCH   8  12
HETATM   12  C9  UNL     1      21.410   1.173  50.059  1.00  0.00     0.069 C 
BRANCH  12  13
HETATM   13  C10 UNL     1      21.866   2.561  50.254  1.00  0.00     0.040 C 
BRANCH  13  14
HETATM   14  C11 UNL     1      23.320   2.775  50.365  1.00  0.00    -0.076 A 
HETATM   15  C12 UNL     1      24.190   2.361  51.265  1.00  0.00     0.039 A 
HETATM   16  C13 UNL     1      25.614   2.492  51.494  1.00  0.00     0.070 A 
HETATM   17  S1  UNL     1      26.266   3.398  50.301  1.00  0.00    -0.106 SA
HETATM   18  C20 UNL     1      25.167   3.900  49.199  1.00  0.00     0.072 A 
HETATM   19  C21 UNL     1      23.707   3.612  49.191  1.00  0.00     0.051 A 
BRANCH  16  20
HETATM   20  N1  UNL     1      26.344   1.940  52.551  1.00  0.00    -0.348 N 
HETATM   21  H12 UNL     1      25.985   2.425  53.422  1.00  0.00     0.166 HD
BRANCH  20  22
HETATM   22  C14 UNL     1      27.350   1.018  52.893  1.00  0.00     0.072 A 
HETATM   23  C15 UNL     1      27.269  -0.344  52.740  1.00  0.00     0.036 A 
HETATM   24  C16 UNL     1      28.228  -1.270  53.086  1.00  0.00     0.044 A 
HETATM   25  C17 UNL     1      29.356  -0.713  53.635  1.00  0.00     0.119 A 
HETATM   26  F1  UNL     1      30.374  -1.521  54.019  1.00  0.00    -0.206 F 
HETATM   27  C18 UNL     1      29.553   0.631  53.839  1.00  0.00     0.086 A 
HETATM   28  C19 UNL     1      28.536   1.463  53.458  1.00  0.00     0.145 A 
HETATM   29  F2  UNL     1      28.762   2.803  53.677  1.00  0.00    -0.204 F 
ENDBRANCH  20  22
ENDBRANCH  16  20
ENDBRANCH  13  14
ENDBRANCH  12  13
ENDBRANCH   8  12
ENDBRANCH   1   4
TORSDOF 7
ENDMDL
MODEL 6
REMARK VINA RESULT:      -8.2      3.924      6.818
REMARK  7 active torsions:
REMARK  status: ('A' for Active; 'I' for Inactive)
REMARK    1  A    between atoms: O1_2  and  C2_3 
REMARK    2  A    between atoms: C4_5  and  C5_6 
REMARK    3  A    between atoms: C8_10  and  C9_11 
REMARK    4  A    between atoms: C9_11  and  C10_12 
REMARK    5  A    between atoms: C10_12  and  C11_13 
REMARK    6  A    between atoms: C13_15  and  N1_16 
REMARK    7  A    between atoms: N1_16  and  C14_17 
ROOT
HETATM    1  C5  UNL     1      26.274   2.227  51.133  1.00  0.00    -0.050 C 
HETATM    2  C6  UNL     1      26.435   3.156  50.384  1.00  0.00     0.010 C 
HETATM    3 CL1  UNL     1      26.679   4.493  49.316  1.00  0.00    -0.023 Cl
ENDROOT
BRANCH   1   4
HETATM    4  C4  UNL     1      26.068   1.138  52.039  1.00  0.00     0.022 A 
HETATM    5  C3  UNL     1      27.008   0.459  52.670  1.00  0.00     0.054 A 
HETATM    6  C2  UNL     1      26.723  -0.658  53.595  1.00  0.00     0.291 A 
HETATM    7  O2  UNL     1      25.359  -0.914  53.719  1.00  0.00    -0.321 OA
HETATM    8  C8  UNL     1      24.324  -0.237  53.084  1.00  0.00     0.051 A 
HETATM    9  C7  UNL     1      24.691   0.740  52.286  1.00  0.00     0.052 A 
BRANCH   6  10
HETATM   10  O1  UNL     1      27.266  -0.259  54.838  1.00  0.00    -0.362 OA
HETATM   11  C1  UNL     1      28.611   0.028  54.610  1.00  0.00     0.205 C 
ENDBRANCH   6  10
BRANCH   8  12
HETATM   12  C9  UNL     1      23.056  -0.825  53.496  1.00  0.00     0.069 C 
BRANCH  12  13
HETATM   13  C10 UNL     1      22.061   0.043  54.151  1.00  0.00     0.040 C 
BRANCH  13  14
HETATM   14  C11 UNL     1      21.166   0.813  53.270  1.00  0.00    -0.076 A 
HETATM   15  C12 UNL     1      21.234   2.059  52.842  1.00  0.00     0.039 A 
HETATM   16  C13 UNL     1      20.445   2.927  51.993  1.00  0.00     0.070 A 
HETATM   17  S1  UNL     1      19.142   2.106  51.452  1.00  0.00    -0.106 SA
HETATM   18  C20 UNL     1      19.078   0.565  51.998  1.00  0.00     0.072 A 
HETATM   19  C21 UNL     1      20.057  -0.112  52.892  1.00  0.00     0.051 A 
BRANCH  16  20
HETATM   20  N1  UNL     1      20.729   4.257  51.665  1.00  0.00    -0.348 N 
HETATM   21  H12 UNL     1      19.858   4.801  51.926  1.00  0.00     0.166 HD
BRANCH  20  22
HETATM   22  C14 UNL     1      21.697   5.125  51.129  1.00  0.00     0.072 A 
HETATM   23  C15 UNL     1      21.571   5.838  49.963  1.00  0.00     0.036 A 
HETATM   24  C16 UNL     1      22.509   6.677  49.405  1.00  0.00     0.044 A 
HETATM   25  C17 UNL     1      23.667   6.769  50.137  1.00  0.00     0.119 A 
HETATM   26  F1  UNL     1      24.670   7.564  49.691  1.00  0.00    -0.206 F 
HETATM   27  C18 UNL     1      23.911   6.107  51.315  1.00  0.00     0.086 A 
HETATM   28  C19 UNL     1      22.909   5.298  51.780  1.00  0.00     0.145 A 
HETATM   29  F2  UNL     1      23.184   4.646  52.961  1.00  0.00    -0.204 F 
ENDBRANCH  20  22
ENDBRANCH  16  20
ENDBRANCH  13  14
ENDBRANCH  12  13
ENDBRANCH   8  12
ENDBRANCH   1   4
TORSDOF 7
ENDMDL
MODEL 7
REMARK VINA RESULT:      -8.1      5.404      8.805
REMARK  7 active torsions:
REMARK  status: ('A' for Active; 'I' for Inactive)
REMARK    1  A    between atoms: O1_2  and  C2_3 
REMARK    2  A    between atoms: C4_5  and  C5_6 
REMARK    3  A    between atoms: C8_10  and  C9_11 
REMARK    4  A    between atoms: C9_11  and  C10_12 
REMARK    5  A    between atoms: C10_12  and  C11_13 
REMARK    6  A    between atoms: C13_15  and  N1_16 
REMARK    7  A    between atoms: N1_16  and  C14_17 
ROOT
HETATM    1  C5  UNL     1      23.062  -0.015  53.382  1.00  0.00    -0.050 C 
HETATM    2  C6  UNL     1      22.069  -0.615  53.707  1.00  0.00     0.010 C 
HETATM    3 CL1  UNL     1      20.647  -1.486  54.161  1.00  0.00    -0.023 Cl
ENDROOT
BRANCH   1   4
HETATM    4  C4  UNL     1      24.229   0.709  52.981  1.00  0.00     0.022 A 
HETATM    5  C3  UNL     1      25.408   0.678  53.572  1.00  0.00     0.054 A 
HETATM    6  C2  UNL     1      26.575   1.454  53.101  1.00  0.00     0.291 A 
HETATM    7  O2  UNL     1      26.288   2.218  51.972  1.00  0.00    -0.321 OA
HETATM    8  C8  UNL     1      25.071   2.292  51.305  1.00  0.00     0.051 A 
HETATM    9  C7  UNL     1      24.103   1.560  51.808  1.00  0.00     0.052 A 
BRANCH   6  10
HETATM   10  O1  UNL     1      27.567   0.491  52.806  1.00  0.00    -0.362 OA
HETATM   11  C1  UNL     1      28.337   0.347  53.959  1.00  0.00     0.205 C 
ENDBRANCH   6  10
BRANCH   8  12
HETATM   12  C9  UNL     1      25.208   3.205  50.177  1.00  0.00     0.069 C 
BRANCH  12  13
HETATM   13  C10 UNL     1      26.508   3.279  49.488  1.00  0.00     0.040 C 
BRANCH  13  14
HETATM   14  C11 UNL     1      26.977   4.619  49.092  1.00  0.00    -0.076 A 
HETATM   15  C12 UNL     1      28.107   5.012  48.536  1.00  0.00     0.039 A 
HETATM   16  C13 UNL     1      28.689   6.265  48.101  1.00  0.00     0.070 A 
HETATM   17  S1  UNL     1      27.636   7.476  48.401  1.00  0.00    -0.106 SA
HETATM   18  C20 UNL     1      26.244   6.964  49.092  1.00  0.00     0.072 A 
HETATM   19  C21 UNL     1      25.879   5.566  49.445  1.00  0.00     0.051 A 
BRANCH  16  20
HETATM   20  N1  UNL     1      29.945   6.441  47.512  1.00  0.00    -0.348 N 
HETATM   21  H12 UNL     1      29.747   6.702  46.504  1.00  0.00     0.166 HD
BRANCH  20  22
HETATM   22  C14 UNL     1      31.334   6.401  47.733  1.00  0.00     0.072 A 
HETATM   23  C15 UNL     1      32.163   5.358  47.407  1.00  0.00     0.036 A 
HETATM   24  C16 UNL     1      33.520   5.283  47.632  1.00  0.00     0.044 A 
HETATM   25  C17 UNL     1      34.036   6.396  48.248  1.00  0.00     0.119 A 
HETATM   26  F1  UNL     1      35.362   6.443  48.526  1.00  0.00    -0.206 F 
HETATM   27  C18 UNL     1      33.309   7.499  48.622  1.00  0.00     0.086 A 
HETATM   28  C19 UNL     1      31.968   7.469  48.351  1.00  0.00     0.145 A 
HETATM   29  F2  UNL     1      31.267   8.587  48.740  1.00  0.00    -0.204 F 
ENDBRANCH  20  22
ENDBRANCH  16  20
ENDBRANCH  13  14
ENDBRANCH  12  13
ENDBRANCH   8  12
ENDBRANCH   1   4
TORSDOF 7
ENDMDL
MODEL 8
REMARK VINA RESULT:      -8.0      1.940      2.817
REMARK  7 active torsions:
REMARK  status: ('A' for Active; 'I' for Inactive)
REMARK    1  A    between atoms: O1_2  and  C2_3 
REMARK    2  A    between atoms: C4_5  and  C5_6 
REMARK    3  A    between atoms: C8_10  and  C9_11 
REMARK    4  A    between atoms: C9_11  and  C10_12 
REMARK    5  A    between atoms: C10_12  and  C11_13 
REMARK    6  A    between atoms: C13_15  and  N1_16 
REMARK    7  A    between atoms: N1_16  and  C14_17 
ROOT
HETATM    1  C5  UNL     1      29.982   7.164  47.229  1.00  0.00    -0.050 C 
HETATM    2  C6  UNL     1      31.026   7.321  46.651  1.00  0.00     0.010 C 
HETATM    3 CL1  UNL     1      32.531   7.533  45.829  1.00  0.00    -0.023 Cl
ENDROOT
BRANCH   1   4
HETATM    4  C4  UNL     1      28.748   6.991  47.935  1.00  0.00     0.022 A 
HETATM    5  C3  UNL     1      27.951   7.953  48.360  1.00  0.00     0.054 A 
HETATM    6  C2  UNL     1      26.687   7.702  49.084  1.00  0.00     0.291 A 
HETATM    7  O2  UNL     1      26.438   6.343  49.268  1.00  0.00    -0.321 OA
HETATM    8  C8  UNL     1      27.235   5.286  48.845  1.00  0.00     0.051 A 
HETATM    9  C7  UNL     1      28.334   5.624  48.210  1.00  0.00     0.052 A 
BRANCH   6  10
HETATM   10  O1  UNL     1      25.677   8.284  48.283  1.00  0.00    -0.362 OA
HETATM   11  C1  UNL     1      24.460   7.828  48.785  1.00  0.00     0.205 C 
ENDBRANCH   6  10
BRANCH   8  12
HETATM   12  C9  UNL     1      26.604   4.033  49.242  1.00  0.00     0.069 C 
BRANCH  12  13
HETATM   13  C10 UNL     1      25.139   4.005  49.401  1.00  0.00     0.040 C 
BRANCH  13  14
HETATM   14  C11 UNL     1      24.590   3.010  50.339  1.00  0.00    -0.076 A 
HETATM   15  C12 UNL     1      25.188   2.208  51.199  1.00  0.00     0.039 A 
HETATM   16  C13 UNL     1      24.784   1.204  52.161  1.00  0.00     0.070 A 
HETATM   17  S1  UNL     1      23.157   1.063  52.136  1.00  0.00    -0.106 SA
HETATM   18  C20 UNL     1      22.439   2.066  51.061  1.00  0.00     0.072 A 
HETATM   19  C21 UNL     1      23.109   3.043  50.160  1.00  0.00     0.051 A 
BRANCH  16  20
HETATM   20  N1  UNL     1      25.625   0.462  52.996  1.00  0.00    -0.348 N 
HETATM   21  H12 UNL     1      25.000   0.100  53.772  1.00  0.00     0.166 HD
BRANCH  20  22
HETATM   22  C14 UNL     1      26.947   0.029  53.201  1.00  0.00     0.072 A 
HETATM   23  C15 UNL     1      27.408  -1.248  53.001  1.00  0.00     0.036 A 
HETATM   24  C16 UNL     1      28.689  -1.705  53.214  1.00  0.00     0.044 A 
HETATM   25  C17 UNL     1      29.547  -0.736  53.673  1.00  0.00     0.119 A 
HETATM   26  F1  UNL     1      30.839  -1.061  53.923  1.00  0.00    -0.206 F 
HETATM   27  C18 UNL     1      29.205   0.572  53.912  1.00  0.00     0.086 A 
HETATM   28  C19 UNL     1      27.904   0.918  53.666  1.00  0.00     0.145 A 
HETATM   29  F2  UNL     1      27.591   2.235  53.917  1.00  0.00    -0.204 F 
ENDBRANCH  20  22
ENDBRANCH  16  20
ENDBRANCH  13  14
ENDBRANCH  12  13
ENDBRANCH   8  12
ENDBRANCH   1   4
TORSDOF 7
ENDMDL
MODEL 9
REMARK VINA RESULT:      -8.0      3.476      5.838
REMARK  7 active torsions:
REMARK  status: ('A' for Active; 'I' for Inactive)
REMARK    1  A    between atoms: O1_2  and  C2_3 
REMARK    2  A    between atoms: C4_5  and  C5_6 
REMARK    3  A    between atoms: C8_10  and  C9_11 
REMARK    4  A    between atoms: C9_11  and  C10_12 
REMARK    5  A    between atoms: C10_12  and  C11_13 
REMARK    6  A    between atoms: C13_15  and  N1_16 
REMARK    7  A    between atoms: N1_16  and  C14_17 
ROOT
HETATM    1  C5  UNL     1      32.968   5.147  47.678  1.00  0.00    -0.050 C 
HETATM    2  C6  UNL     1      33.847   4.392  47.352  1.00  0.00     0.010 C 
HETATM    3 CL1  UNL     1      35.099   3.296  46.884  1.00  0.00    -0.023 Cl
ENDROOT
BRANCH   1   4
HETATM    4  C4  UNL     1      31.928   6.040  48.090  1.00  0.00     0.022 A 
HETATM    5  C3  UNL     1      32.091   7.256  48.578  1.00  0.00     0.054 A 
HETATM    6  C2  UNL     1      30.968   8.128  48.983  1.00  0.00     0.291 A 
HETATM    7  O2  UNL     1      29.728   7.521  48.796  1.00  0.00    -0.321 OA
HETATM    8  C8  UNL     1      29.491   6.250  48.288  1.00  0.00     0.051 A 
HETATM    9  C7  UNL     1      30.561   5.563  47.958  1.00  0.00     0.052 A 
BRANCH   6  10
HETATM   10  O1  UNL     1      31.082   9.281  48.172  1.00  0.00    -0.362 OA
HETATM   11  C1  UNL     1      30.736  10.366  48.975  1.00  0.00     0.205 C 
ENDBRANCH   6  10
BRANCH   8  12
HETATM   12  C9  UNL     1      28.052   6.015  48.260  1.00  0.00     0.069 C 
BRANCH  12  13
HETATM   13  C10 UNL     1      27.551   4.685  48.649  1.00  0.00     0.040 C 
BRANCH  13  14
HETATM   14  C11 UNL     1      26.282   4.644  49.397  1.00  0.00    -0.076 A 
HETATM   15  C12 UNL     1      25.565   3.625  49.831  1.00  0.00     0.039 A 
HETATM   16  C13 UNL     1      24.329   3.441  50.562  1.00  0.00     0.070 A 
HETATM   17  S1  UNL     1      23.695   4.903  50.919  1.00  0.00    -0.106 SA
HETATM   18  C20 UNL     1      24.601   6.150  50.370  1.00  0.00     0.072 A 
HETATM   19  C21 UNL     1      25.884   6.065  49.620  1.00  0.00     0.051 A 
BRANCH  16  20
HETATM   20  N1  UNL     1      23.748   2.222  50.926  1.00  0.00    -0.348 N 
HETATM   21  H12 UNL     1      23.180   1.920  50.084  1.00  0.00     0.166 HD
BRANCH  20  22
HETATM   22  C14 UNL     1      23.625   1.270  51.954  1.00  0.00     0.072 A 
HETATM   23  C15 UNL     1      22.443   0.831  52.498  1.00  0.00     0.036 A 
HETATM   24  C16 UNL     1      22.294  -0.081  53.518  1.00  0.00     0.044 A 
HETATM   25  C17 UNL     1      23.486  -0.565  53.999  1.00  0.00     0.119 A 
HETATM   26  F1  UNL     1      23.474  -1.471  55.007  1.00  0.00    -0.206 F 
HETATM   27  C18 UNL     1      24.728  -0.204  53.538  1.00  0.00     0.086 A 
HETATM   28  C19 UNL     1      24.760   0.711  52.521  1.00  0.00     0.145 A 
HETATM   29  F2  UNL     1      26.019   1.055  52.082  1.00  0.00    -0.204 F 
ENDBRANCH  20  22
ENDBRANCH  16  20
ENDBRANCH  13  14
ENDBRANCH  12  13
ENDBRANCH   8  12
ENDBRANCH   1   4
TORSDOF 7
ENDMDL
