MODEL 1
REMARK VINA RESULT:      -8.4      0.000      0.000
REMARK  8 active torsions:
REMARK  status: ('A' for Active; 'I' for Inactive)
REMARK    1  A    between atoms: C5_5  and  C6_6 
REMARK       I    between atoms: C6_6  and  N1_8 
REMARK    2  A    between atoms: N1_8  and  C7_9 
REMARK    3  A    between atoms: C7_9  and  C8_10 
REMARK    4  A    between atoms: C8_10  and  O2_11 
REMARK    5  A    between atoms: C10_13  and  N2_14 
REMARK    6  A    between atoms: C12_17  and  O3_18 
REMARK    7  A    between atoms: O3_18  and  C13_19 
REMARK    8  A    between atoms: C13_19  and  C14_20 
ROOT
HETATM    1  N2  UNL     1      24.775   5.112  49.834  1.00  0.00    -0.271 N 
HETATM    2  C11 UNL     1      24.782   3.862  49.341  1.00  0.00     0.221 A 
HETATM    3  N3  UNL     1      24.189   2.870  50.018  1.00  0.00    -0.218 NA
HETATM    4  C12 UNL     1      23.561   3.018  51.196  1.00  0.00     0.193 A 
HETATM    5  C20 UNL     1      23.568   4.334  51.693  1.00  0.00     0.155 A 
HETATM    6 CL1  UNL     1      22.855   4.897  53.187  1.00  0.00    -0.074 Cl
HETATM    7  C21 UNL     1      24.181   5.395  51.006  1.00  0.00     0.279 A 
HETATM    8  O4  UNL     1      24.244   6.577  51.350  1.00  0.00    -0.266 OA
ENDROOT
BRANCH   1   9
HETATM    9  C10 UNL     1      25.466   6.004  48.945  1.00  0.00     0.050 A 
HETATM   10  C2  UNL     1      24.658   6.736  48.098  1.00  0.00    -0.035 A 
HETATM   11  C1  UNL     1      23.175   6.630  48.077  1.00  0.00     0.050 C 
HETATM   12  C3  UNL     1      25.309   7.596  47.247  1.00  0.00     0.010 A 
HETATM   13  C4  UNL     1      26.700   7.728  47.231  1.00  0.00     0.017 A 
HETATM   14  C5  UNL     1      27.479   6.984  48.089  1.00  0.00     0.034 A 
HETATM   15  C9  UNL     1      26.849   6.112  48.954  1.00  0.00     0.047 A 
BRANCH  14  16
HETATM   16  C6  UNL     1      28.929   7.161  48.033  1.00  0.00     0.251 C 
HETATM   17  O1  UNL     1      29.368   7.714  46.967  1.00  0.00    -0.268 OA
HETATM   18  N1  UNL     1      29.859   6.787  49.020  1.00  0.00    -0.355 N 
HETATM   19  H6  UNL     1      29.420   6.343  49.856  1.00  0.00     0.162 HD
BRANCH  18  20
HETATM   20  C7  UNL     1      31.260   7.025  48.826  1.00  0.00     0.148 C 
BRANCH  20  21
HETATM   21  C8  UNL     1      32.168   6.049  49.509  1.00  0.00     0.183 C 
BRANCH  21  22
HETATM   22  O2  UNL     1      31.433   5.479  50.568  1.00  0.00    -0.399 OA
HETATM   23  H11 UNL     1      30.822   6.126  50.976  1.00  0.00     0.209 HD
ENDBRANCH  21  22
ENDBRANCH  20  21
ENDBRANCH  18  20
ENDBRANCH  14  16
ENDBRANCH   1   9
BRANCH   4  24
HETATM   24  O3  UNL     1      22.911   2.246  52.060  1.00  0.00    -0.328 OA
BRANCH  24  25
HETATM   25  C13 UNL     1      23.153   1.268  52.966  1.00  0.00     0.219 C 
BRANCH  25  26
HETATM   26  C14 UNL     1      24.584   0.912  53.133  1.00  0.00     0.005 A 
HETATM   27  C15 UNL     1      24.962  -0.351  52.727  1.00  0.00     0.015 A 
HETATM   28  C16 UNL     1      26.272  -0.797  52.810  1.00  0.00     0.043 A 
HETATM   29  C17 UNL     1      27.267   0.015  53.313  1.00  0.00     0.119 A 
HETATM   30  F1  UNL     1      28.572  -0.255  53.460  1.00  0.00    -0.206 F 
HETATM   31  C18 UNL     1      26.894   1.268  53.716  1.00  0.00     0.085 A 
HETATM   32  C19 UNL     1      25.585   1.715  53.633  1.00  0.00     0.127 A 
HETATM   33  F2  UNL     1      25.248   2.948  54.056  1.00  0.00    -0.205 F 
ENDBRANCH  25  26
ENDBRANCH  24  25
ENDBRANCH   4  24
TORSDOF 8
ENDMDL
MODEL 2
REMARK VINA RESULT:      -8.4      2.865      3.683
REMARK  8 active torsions:
REMARK  status: ('A' for Active; 'I' for Inactive)
REMARK    1  A    between atoms: C5_5  and  C6_6 
REMARK       I    between atoms: C6_6  and  N1_8 
REMARK    2  A    between atoms: N1_8  and  C7_9 
REMARK    3  A    between atoms: C7_9  and  C8_10 
REMARK    4  A    between atoms: C8_10  and  O2_11 
REMARK    5  A    between atoms: C10_13  and  N2_14 
REMARK    6  A    between atoms: C12_17  and  O3_18 
REMARK    7  A    between atoms: O3_18  and  C13_19 
REMARK    8  A    between atoms: C13_19  and  C14_20 
ROOT
HETATM    1  N2  UNL     1      23.717   3.185  50.652  1.00  0.00    -0.271 N 
HETATM    2  C11 UNL     1      24.920   2.590  50.595  1.00  0.00     0.221 A 
HETATM    3  N3  UNL     1      25.185   1.533  51.375  1.00  0.00    -0.218 NA
HETATM    4  C12 UNL     1      24.318   0.993  52.247  1.00  0.00     0.193 A 
HETATM    5  C20 UNL     1      23.067   1.633  52.291  1.00  0.00     0.155 A 
HETATM    6 CL1  UNL     1      21.703   1.208  53.301  1.00  0.00    -0.074 Cl
HETATM    7  C21 UNL     1      22.760   2.741  51.485  1.00  0.00     0.279 A 
HETATM    8  O4  UNL     1      21.701   3.373  51.445  1.00  0.00    -0.266 OA
ENDROOT
BRANCH   1   9
HETATM    9  C10 UNL     1      23.660   4.289  49.734  1.00  0.00     0.050 A 
HETATM   10  C2  UNL     1      22.971   4.047  48.563  1.00  0.00    -0.035 A 
HETATM   11  C1  UNL     1      22.326   2.747  48.239  1.00  0.00     0.050 C 
HETATM   12  C3  UNL     1      22.907   5.097  47.679  1.00  0.00     0.010 A 
HETATM   13  C4  UNL     1      23.499   6.336  47.941  1.00  0.00     0.017 A 
HETATM   14  C5  UNL     1      24.180   6.546  49.120  1.00  0.00     0.034 A 
HETATM   15  C9  UNL     1      24.259   5.506  50.024  1.00  0.00     0.047 A 
BRANCH  14  16
HETATM   16  C6  UNL     1      24.779   7.860  49.345  1.00  0.00     0.251 C 
HETATM   17  O1  UNL     1      24.124   8.630  50.128  1.00  0.00    -0.268 OA
HETATM   18  N1  UNL     1      25.981   8.340  48.793  1.00  0.00    -0.355 N 
HETATM   19  H6  UNL     1      26.453   7.652  48.166  1.00  0.00     0.162 HD
BRANCH  18  20
HETATM   20  C7  UNL     1      26.449   9.660  49.106  1.00  0.00     0.148 C 
BRANCH  20  21
HETATM   21  C8  UNL     1      27.783   9.713  49.786  1.00  0.00     0.183 C 
BRANCH  21  22
HETATM   22  O2  UNL     1      27.539   9.632  51.173  1.00  0.00    -0.399 OA
HETATM   23  H11 UNL     1      27.297  10.502  51.551  1.00  0.00     0.209 HD
ENDBRANCH  21  22
ENDBRANCH  20  21
ENDBRANCH  18  20
ENDBRANCH  14  16
ENDBRANCH   1   9
BRANCH   4  24
HETATM   24  O3  UNL     1      24.307  -0.013  53.115  1.00  0.00    -0.328 OA
BRANCH  24  25
HETATM   25  C13 UNL     1      24.989  -0.460  54.197  1.00  0.00     0.219 C 
BRANCH  25  26
HETATM   26  C14 UNL     1      26.461  -0.529  54.022  1.00  0.00     0.005 A 
HETATM   27  C15 UNL     1      27.225   0.239  54.875  1.00  0.00     0.015 A 
HETATM   28  C16 UNL     1      28.611   0.247  54.827  1.00  0.00     0.043 A 
HETATM   29  C17 UNL     1      29.293  -0.524  53.909  1.00  0.00     0.119 A 
HETATM   30  F1  UNL     1      30.617  -0.636  53.730  1.00  0.00    -0.206 F 
HETATM   31  C18 UNL     1      28.537  -1.287  53.062  1.00  0.00     0.085 A 
HETATM   32  C19 UNL     1      27.152  -1.295  53.109  1.00  0.00     0.127 A 
HETATM   33  F2  UNL     1      26.435  -2.044  52.249  1.00  0.00    -0.205 F 
ENDBRANCH  25  26
ENDBRANCH  24  25
ENDBRANCH   4  24
TORSDOF 8
ENDMDL
MODEL 3
REMARK VINA RESULT:      -8.3      3.750      7.542
REMARK  8 active torsions:
REMARK  status: ('A' for Active; 'I' for Inactive)
REMARK    1  A    between atoms: C5_5  and  C6_6 
REMARK       I    between atoms: C6_6  and  N1_8 
REMARK    2  A    between atoms: N1_8  and  C7_9 
REMARK    3  A    between atoms: C7_9  and  C8_10 
REMARK    4  A    between atoms: C8_10  and  O2_11 
REMARK    5  A    between atoms: C10_13  and  N2_14 
REMARK    6  A    between atoms: C12_17  and  O3_18 
REMARK    7  A    between atoms: O3_18  and  C13_19 
REMARK    8  A    between atoms: C13_19  and  C14_20 
ROOT
HETATM    1  N2  UNL     1      23.359   2.794  51.174  1.00  0.00    -0.271 N 
HETATM    2  C11 UNL     1      23.782   2.533  49.926  1.00  0.00     0.221 A 
HETATM    3  N3  UNL     1      23.677   3.466  48.971  1.00  0.00    -0.218 NA
HETATM    4  C12 UNL     1      23.164   4.693  49.157  1.00  0.00     0.193 A 
HETATM    5  C20 UNL     1      22.726   4.944  50.469  1.00  0.00     0.155 A 
HETATM    6 CL1  UNL     1      22.008   6.420  51.075  1.00  0.00    -0.074 Cl
HETATM    7  C21 UNL     1      22.824   3.986  51.492  1.00  0.00     0.279 A 
HETATM    8  O4  UNL     1      22.473   4.102  52.668  1.00  0.00    -0.266 OA
ENDROOT
BRANCH   1   9
HETATM    9  C10 UNL     1      23.569   1.655  52.023  1.00  0.00     0.050 A 
HETATM   10  C2  UNL     1      22.485   0.811  52.156  1.00  0.00    -0.035 A 
HETATM   11  C1  UNL     1      21.177   1.036  51.486  1.00  0.00     0.050 C 
HETATM   12  C3  UNL     1      22.677  -0.285  52.963  1.00  0.00     0.010 A 
HETATM   13  C4  UNL     1      23.888  -0.537  53.612  1.00  0.00     0.017 A 
HETATM   14  C5  UNL     1      24.951   0.325  53.459  1.00  0.00     0.034 A 
HETATM   15  C9  UNL     1      24.784   1.434  52.655  1.00  0.00     0.047 A 
BRANCH  14  16
HETATM   16  C6  UNL     1      26.196   0.015  54.160  1.00  0.00     0.251 C 
HETATM   17  O1  UNL     1      26.053  -0.544  55.302  1.00  0.00    -0.268 OA
HETATM   18  N1  UNL     1      27.502   0.268  53.703  1.00  0.00    -0.355 N 
HETATM   19  H6  UNL     1      27.532   0.725  52.765  1.00  0.00     0.162 HD
BRANCH  18  20
HETATM   20  C7  UNL     1      28.636  -0.094  54.504  1.00  0.00     0.148 C 
BRANCH  20  21
HETATM   21  C8  UNL     1      29.647  -0.958  53.814  1.00  0.00     0.183 C 
BRANCH  21  22
HETATM   22  O2  UNL     1      28.997  -2.164  53.483  1.00  0.00    -0.399 OA
HETATM   23  H11 UNL     1      29.352  -2.920  53.994  1.00  0.00     0.209 HD
ENDBRANCH  21  22
ENDBRANCH  20  21
ENDBRANCH  18  20
ENDBRANCH  14  16
ENDBRANCH   1   9
BRANCH   4  24
HETATM   24  O3  UNL     1      22.942   5.780  48.425  1.00  0.00    -0.328 OA
BRANCH  24  25
HETATM   25  C13 UNL     1      23.624   6.711  47.714  1.00  0.00     0.219 C 
BRANCH  25  26
HETATM   26  C14 UNL     1      24.708   7.396  48.460  1.00  0.00     0.005 A 
HETATM   27  C15 UNL     1      25.990   6.926  48.265  1.00  0.00     0.015 A 
HETATM   28  C16 UNL     1      27.091   7.493  48.888  1.00  0.00     0.043 A 
HETATM   29  C17 UNL     1      26.948   8.566  49.742  1.00  0.00     0.119 A 
HETATM   30  F1  UNL     1      27.897   9.229  50.418  1.00  0.00    -0.206 F 
HETATM   31  C18 UNL     1      25.678   9.033  49.938  1.00  0.00     0.085 A 
HETATM   32  C19 UNL     1      24.576   8.467  49.316  1.00  0.00     0.127 A 
HETATM   33  F2  UNL     1      23.335   8.939  49.543  1.00  0.00    -0.205 F 
ENDBRANCH  25  26
ENDBRANCH  24  25
ENDBRANCH   4  24
TORSDOF 8
ENDMDL
MODEL 4
REMARK VINA RESULT:      -8.3      3.741      7.499
REMARK  8 active torsions:
REMARK  status: ('A' for Active; 'I' for Inactive)
REMARK    1  A    between atoms: C5_5  and  C6_6 
REMARK       I    between atoms: C6_6  and  N1_8 
REMARK    2  A    between atoms: N1_8  and  C7_9 
REMARK    3  A    between atoms: C7_9  and  C8_10 
REMARK    4  A    between atoms: C8_10  and  O2_11 
REMARK    5  A    between atoms: C10_13  and  N2_14 
REMARK    6  A    between atoms: C12_17  and  O3_18 
REMARK    7  A    between atoms: O3_18  and  C13_19 
REMARK    8  A    between atoms: C13_19  and  C14_20 
ROOT
HETATM    1  N2  UNL     1      23.003   3.021  51.648  1.00  0.00    -0.271 N 
HETATM    2  C11 UNL     1      22.885   4.100  52.439  1.00  0.00     0.221 A 
HETATM    3  N3  UNL     1      22.610   5.298  51.905  1.00  0.00    -0.218 NA
HETATM    4  C12 UNL     1      22.433   5.526  50.594  1.00  0.00     0.193 A 
HETATM    5  C20 UNL     1      22.563   4.383  49.785  1.00  0.00     0.155 A 
HETATM    6 CL1  UNL     1      22.402   4.301  48.046  1.00  0.00    -0.074 Cl
HETATM    7  C21 UNL     1      22.850   3.115  50.316  1.00  0.00     0.279 A 
HETATM    8  O4  UNL     1      22.984   2.054  49.701  1.00  0.00    -0.266 OA
ENDROOT
BRANCH   1   9
HETATM    9  C10 UNL     1      23.299   1.855  52.433  1.00  0.00     0.050 A 
HETATM   10  C2  UNL     1      22.203   1.106  52.812  1.00  0.00    -0.035 A 
HETATM   11  C1  UNL     1      20.802   1.453  52.456  1.00  0.00     0.050 C 
HETATM   12  C3  UNL     1      22.475  -0.015  53.560  1.00  0.00     0.010 A 
HETATM   13  C4  UNL     1      23.776  -0.380  53.920  1.00  0.00     0.017 A 
HETATM   14  C5  UNL     1      24.848   0.389  53.525  1.00  0.00     0.034 A 
HETATM   15  C9  UNL     1      24.601   1.520  52.774  1.00  0.00     0.047 A 
BRANCH  14  16
HETATM   16  C6  UNL     1      26.187  -0.038  53.927  1.00  0.00     0.251 C 
HETATM   17  O1  UNL     1      26.437  -1.280  53.752  1.00  0.00    -0.268 OA
HETATM   18  N1  UNL     1      27.198   0.772  54.473  1.00  0.00    -0.355 N 
HETATM   19  H6  UNL     1      26.914   1.771  54.584  1.00  0.00     0.162 HD
BRANCH  18  20
HETATM   20  C7  UNL     1      28.472   0.212  54.822  1.00  0.00     0.148 C 
BRANCH  20  21
HETATM   21  C8  UNL     1      29.543   0.384  53.788  1.00  0.00     0.183 C 
BRANCH  21  22
HETATM   22  O2  UNL     1      29.349   1.654  53.206  1.00  0.00    -0.399 OA
HETATM   23  H11 UNL     1      29.052   1.586  52.276  1.00  0.00     0.209 HD
ENDBRANCH  21  22
ENDBRANCH  20  21
ENDBRANCH  18  20
ENDBRANCH  14  16
ENDBRANCH   1   9
BRANCH   4  24
HETATM   24  O3  UNL     1      22.162   6.566  49.811  1.00  0.00    -0.328 OA
BRANCH  24  25
HETATM   25  C13 UNL     1      22.703   7.748  49.430  1.00  0.00     0.219 C 
BRANCH  25  26
HETATM   26  C14 UNL     1      24.167   7.718  49.194  1.00  0.00     0.005 A 
HETATM   27  C15 UNL     1      24.972   8.158  50.224  1.00  0.00     0.015 A 
HETATM   28  C16 UNL     1      26.356   8.161  50.136  1.00  0.00     0.043 A 
HETATM   29  C17 UNL     1      26.995   7.718  48.997  1.00  0.00     0.119 A 
HETATM   30  F1  UNL     1      28.311   7.651  48.749  1.00  0.00    -0.206 F 
HETATM   31  C18 UNL     1      26.198   7.281  47.974  1.00  0.00     0.085 A 
HETATM   32  C19 UNL     1      24.816   7.278  48.061  1.00  0.00     0.127 A 
HETATM   33  F2  UNL     1      24.059   6.858  47.029  1.00  0.00    -0.205 F 
ENDBRANCH  25  26
ENDBRANCH  24  25
ENDBRANCH   4  24
TORSDOF 8
ENDMDL
MODEL 5
REMARK VINA RESULT:      -8.3      1.616      2.175
REMARK  8 active torsions:
REMARK  status: ('A' for Active; 'I' for Inactive)
REMARK    1  A    between atoms: C5_5  and  C6_6 
REMARK       I    between atoms: C6_6  and  N1_8 
REMARK    2  A    between atoms: N1_8  and  C7_9 
REMARK    3  A    between atoms: C7_9  and  C8_10 
REMARK    4  A    between atoms: C8_10  and  O2_11 
REMARK    5  A    between atoms: C10_13  and  N2_14 
REMARK    6  A    between atoms: C12_17  and  O3_18 
REMARK    7  A    between atoms: O3_18  and  C13_19 
REMARK    8  A    between atoms: C13_19  and  C14_20 
ROOT
HETATM    1  N2  UNL     1      24.534   5.357  49.537  1.00  0.00    -0.271 N 
HETATM    2  C11 UNL     1      24.256   4.223  48.872  1.00  0.00     0.221 A 
HETATM    3  N3  UNL     1      23.522   3.266  49.453  1.00  0.00    -0.218 NA
HETATM    4  C12 UNL     1      23.016   3.340  50.695  1.00  0.00     0.193 A 
HETATM    5  C20 UNL     1      23.321   4.534  51.373  1.00  0.00     0.155 A 
HETATM    6 CL1  UNL     1      22.836   4.976  52.994  1.00  0.00    -0.074 Cl
HETATM    7  C21 UNL     1      24.088   5.555  50.789  1.00  0.00     0.279 A 
HETATM    8  O4  UNL     1      24.411   6.635  51.292  1.00  0.00    -0.266 OA
ENDROOT
BRANCH   1   9
HETATM    9  C10 UNL     1      25.331   6.233  48.723  1.00  0.00     0.050 A 
HETATM   10  C2  UNL     1      24.619   7.089  47.908  1.00  0.00    -0.035 A 
HETATM   11  C1  UNL     1      23.134   7.125  47.846  1.00  0.00     0.050 C 
HETATM   12  C3  UNL     1      25.371   7.934  47.128  1.00  0.00     0.010 A 
HETATM   13  C4  UNL     1      26.769   7.935  47.152  1.00  0.00     0.017 A 
HETATM   14  C5  UNL     1      27.450   7.068  47.978  1.00  0.00     0.034 A 
HETATM   15  C9  UNL     1      26.717   6.207  48.771  1.00  0.00     0.047 A 
BRANCH  14  16
HETATM   16  C6  UNL     1      28.911   7.109  47.966  1.00  0.00     0.251 C 
HETATM   17  O1  UNL     1      29.441   7.287  46.815  1.00  0.00    -0.268 OA
HETATM   18  N1  UNL     1      29.763   6.976  49.077  1.00  0.00    -0.355 N 
HETATM   19  H6  UNL     1      29.253   6.835  49.976  1.00  0.00     0.162 HD
BRANCH  18  20
HETATM   20  C7  UNL     1      31.187   7.039  48.913  1.00  0.00     0.148 C 
BRANCH  20  21
HETATM   21  C8  UNL     1      31.922   5.785  49.277  1.00  0.00     0.183 C 
BRANCH  21  22
HETATM   22  O2  UNL     1      31.609   5.505  50.623  1.00  0.00    -0.399 OA
HETATM   23  H11 UNL     1      31.779   6.274  51.204  1.00  0.00     0.209 HD
ENDBRANCH  21  22
ENDBRANCH  20  21
ENDBRANCH  18  20
ENDBRANCH  14  16
ENDBRANCH   1   9
BRANCH   4  24
HETATM   24  O3  UNL     1      22.282   2.576  51.498  1.00  0.00    -0.328 OA
BRANCH  24  25
HETATM   25  C13 UNL     1      21.759   1.328  51.552  1.00  0.00     0.219 C 
BRANCH  25  26
HETATM   26  C14 UNL     1      22.214   0.510  52.704  1.00  0.00     0.005 A 
HETATM   27  C15 UNL     1      21.240   0.069  53.576  1.00  0.00     0.015 A 
HETATM   28  C16 UNL     1      21.532  -0.719  54.678  1.00  0.00     0.043 A 
HETATM   29  C17 UNL     1      22.829  -1.099  54.954  1.00  0.00     0.119 A 
HETATM   30  F1  UNL     1      23.282  -1.853  55.966  1.00  0.00    -0.206 F 
HETATM   31  C18 UNL     1      23.796  -0.662  54.092  1.00  0.00     0.085 A 
HETATM   32  C19 UNL     1      23.505   0.126  52.990  1.00  0.00     0.127 A 
HETATM   33  F2  UNL     1      24.483   0.555  52.169  1.00  0.00    -0.205 F 
ENDBRANCH  25  26
ENDBRANCH  24  25
ENDBRANCH   4  24
TORSDOF 8
ENDMDL
MODEL 6
REMARK VINA RESULT:      -7.9      2.935      3.829
REMARK  8 active torsions:
REMARK  status: ('A' for Active; 'I' for Inactive)
REMARK    1  A    between atoms: C5_5  and  C6_6 
REMARK       I    between atoms: C6_6  and  N1_8 
REMARK    2  A    between atoms: N1_8  and  C7_9 
REMARK    3  A    between atoms: C7_9  and  C8_10 
REMARK    4  A    between atoms: C8_10  and  O2_11 
REMARK    5  A    between atoms: C10_13  and  N2_14 
REMARK    6  A    between atoms: C12_17  and  O3_18 
REMARK    7  A    between atoms: O3_18  and  C13_19 
REMARK    8  A    between atoms: C13_19  and  C14_20 
ROOT
HETATM    1  N2  UNL     1      25.110   4.208  50.640  1.00  0.00    -0.271 N 
HETATM    2  C11 UNL     1      24.159   4.369  51.574  1.00  0.00     0.221 A 
HETATM    3  N3  UNL     1      24.013   3.463  52.550  1.00  0.00    -0.218 NA
HETATM    4  C12 UNL     1      24.766   2.359  52.684  1.00  0.00     0.193 A 
HETATM    5  C20 UNL     1      25.754   2.210  51.695  1.00  0.00     0.155 A 
HETATM    6 CL1  UNL     1      26.909   0.904  51.551  1.00  0.00    -0.074 Cl
HETATM    7  C21 UNL     1      25.931   3.143  50.661  1.00  0.00     0.279 A 
HETATM    8  O4  UNL     1      26.761   3.109  49.749  1.00  0.00    -0.266 OA
ENDROOT
BRANCH   1   9
HETATM    9  C10 UNL     1      25.080   5.294  49.701  1.00  0.00     0.050 A 
HETATM   10  C2  UNL     1      24.070   5.235  48.763  1.00  0.00    -0.035 A 
HETATM   11  C1  UNL     1      23.069   4.137  48.696  1.00  0.00     0.050 C 
HETATM   12  C3  UNL     1      24.029   6.272  47.862  1.00  0.00     0.010 A 
HETATM   13  C4  UNL     1      24.948   7.324  47.886  1.00  0.00     0.017 A 
HETATM   14  C5  UNL     1      25.945   7.355  48.836  1.00  0.00     0.034 A 
HETATM   15  C9  UNL     1      26.009   6.324  49.752  1.00  0.00     0.047 A 
BRANCH  14  16
HETATM   16  C6  UNL     1      26.880   8.478  48.818  1.00  0.00     0.251 C 
HETATM   17  O1  UNL     1      26.497   9.494  48.141  1.00  0.00    -0.268 OA
HETATM   18  N1  UNL     1      28.130   8.541  49.461  1.00  0.00    -0.355 N 
HETATM   19  H6  UNL     1      28.367   7.674  49.990  1.00  0.00     0.162 HD
BRANCH  18  20
HETATM   20  C7  UNL     1      28.945   9.717  49.355  1.00  0.00     0.148 C 
BRANCH  20  21
HETATM   21  C8  UNL     1      30.407   9.497  49.593  1.00  0.00     0.183 C 
BRANCH  21  22
HETATM   22  O2  UNL     1      30.613   8.102  49.610  1.00  0.00    -0.399 OA
HETATM   23  H11 UNL     1      31.077   7.794  48.805  1.00  0.00     0.209 HD
ENDBRANCH  21  22
ENDBRANCH  20  21
ENDBRANCH  18  20
ENDBRANCH  14  16
ENDBRANCH   1   9
BRANCH   4  24
HETATM   24  O3  UNL     1      24.845   1.327  53.517  1.00  0.00    -0.328 OA
BRANCH  24  25
HETATM   25  C13 UNL     1      24.528   0.011  53.574  1.00  0.00     0.219 C 
BRANCH  25  26
HETATM   26  C14 UNL     1      23.074  -0.277  53.647  1.00  0.00     0.005 A 
HETATM   27  C15 UNL     1      22.300   0.157  52.590  1.00  0.00     0.015 A 
HETATM   28  C16 UNL     1      20.934  -0.068  52.529  1.00  0.00     0.043 A 
HETATM   29  C17 UNL     1      20.281  -0.745  53.538  1.00  0.00     0.119 A 
HETATM   30  F1  UNL     1      18.978  -1.047  53.634  1.00  0.00    -0.206 F 
HETATM   31  C18 UNL     1      21.045  -1.176  54.586  1.00  0.00     0.085 A 
HETATM   32  C19 UNL     1      22.411  -0.951  54.649  1.00  0.00     0.127 A 
HETATM   33  F2  UNL     1      23.134  -1.373  55.704  1.00  0.00    -0.205 F 
ENDBRANCH  25  26
ENDBRANCH  24  25
ENDBRANCH   4  24
TORSDOF 8
ENDMDL
MODEL 7
REMARK VINA RESULT:      -7.9      1.837      2.282
REMARK  8 active torsions:
REMARK  status: ('A' for Active; 'I' for Inactive)
REMARK    1  A    between atoms: C5_5  and  C6_6 
REMARK       I    between atoms: C6_6  and  N1_8 
REMARK    2  A    between atoms: N1_8  and  C7_9 
REMARK    3  A    between atoms: C7_9  and  C8_10 
REMARK    4  A    between atoms: C8_10  and  O2_11 
REMARK    5  A    between atoms: C10_13  and  N2_14 
REMARK    6  A    between atoms: C12_17  and  O3_18 
REMARK    7  A    between atoms: O3_18  and  C13_19 
REMARK    8  A    between atoms: C13_19  and  C14_20 
ROOT
HETATM    1  N2  UNL     1      25.363   4.775  49.948  1.00  0.00    -0.271 N 
HETATM    2  C11 UNL     1      26.159   3.778  49.528  1.00  0.00     0.221 A 
HETATM    3  N3  UNL     1      26.137   2.592  50.150  1.00  0.00    -0.218 NA
HETATM    4  C12 UNL     1      25.357   2.297  51.202  1.00  0.00     0.193 A 
HETATM    5  C20 UNL     1      24.533   3.355  51.626  1.00  0.00     0.155 A 
HETATM    6 CL1  UNL     1      23.396   3.337  52.955  1.00  0.00    -0.074 Cl
HETATM    7  C21 UNL     1      24.534   4.609  50.993  1.00  0.00     0.279 A 
HETATM    8  O4  UNL     1      23.856   5.599  51.281  1.00  0.00    -0.266 OA
ENDROOT
BRANCH   1   9
HETATM    9  C10 UNL     1      25.555   5.945  49.137  1.00  0.00     0.050 A 
HETATM   10  C2  UNL     1      24.531   6.227  48.256  1.00  0.00    -0.035 A 
HETATM   11  C1  UNL     1      23.304   5.398  48.125  1.00  0.00     0.050 C 
HETATM   12  C3  UNL     1      24.703   7.347  47.479  1.00  0.00     0.010 A 
HETATM   13  C4  UNL     1      25.839   8.156  47.567  1.00  0.00     0.017 A 
HETATM   14  C5  UNL     1      26.844   7.848  48.457  1.00  0.00     0.034 A 
HETATM   15  C9  UNL     1      26.696   6.727  49.250  1.00  0.00     0.047 A 
BRANCH  14  16
HETATM   16  C6  UNL     1      28.010   8.727  48.511  1.00  0.00     0.251 C 
HETATM   17  O1  UNL     1      28.184   9.465  47.481  1.00  0.00    -0.268 OA
HETATM   18  N1  UNL     1      28.935   8.832  49.567  1.00  0.00    -0.355 N 
HETATM   19  H6  UNL     1      28.722   8.198  50.368  1.00  0.00     0.162 HD
BRANCH  18  20
HETATM   20  C7  UNL     1      30.038   9.745  49.479  1.00  0.00     0.148 C 
BRANCH  20  21
HETATM   21  C8  UNL     1      31.345   9.123  49.095  1.00  0.00     0.183 C 
BRANCH  21  22
HETATM   22  O2  UNL     1      31.695   8.233  50.131  1.00  0.00    -0.399 OA
HETATM   23  H11 UNL     1      32.455   8.563  50.652  1.00  0.00     0.209 HD
ENDBRANCH  21  22
ENDBRANCH  20  21
ENDBRANCH  18  20
ENDBRANCH  14  16
ENDBRANCH   1   9
BRANCH   4  24
HETATM   24  O3  UNL     1      25.133   1.250  51.989  1.00  0.00    -0.328 OA
BRANCH  24  25
HETATM   25  C13 UNL     1      25.444   0.795  53.227  1.00  0.00     0.219 C 
BRANCH  25  26
HETATM   26  C14 UNL     1      26.818   0.252  53.366  1.00  0.00     0.005 A 
HETATM   27  C15 UNL     1      27.741   1.053  54.006  1.00  0.00     0.015 A 
HETATM   28  C16 UNL     1      29.051   0.652  54.217  1.00  0.00     0.043 A 
HETATM   29  C17 UNL     1      29.493  -0.581  53.787  1.00  0.00     0.119 A 
HETATM   30  F1  UNL     1      30.715  -1.121  53.910  1.00  0.00    -0.206 F 
HETATM   31  C18 UNL     1      28.580  -1.376  53.151  1.00  0.00     0.085 A 
HETATM   32  C19 UNL     1      27.270  -0.977  52.940  1.00  0.00     0.127 A 
HETATM   33  F2  UNL     1      26.399  -1.776  52.295  1.00  0.00    -0.205 F 
ENDBRANCH  25  26
ENDBRANCH  24  25
ENDBRANCH   4  24
TORSDOF 8
ENDMDL
MODEL 8
REMARK VINA RESULT:      -7.8      3.228      4.377
REMARK  8 active torsions:
REMARK  status: ('A' for Active; 'I' for Inactive)
REMARK    1  A    between atoms: C5_5  and  C6_6 
REMARK       I    between atoms: C6_6  and  N1_8 
REMARK    2  A    between atoms: N1_8  and  C7_9 
REMARK    3  A    between atoms: C7_9  and  C8_10 
REMARK    4  A    between atoms: C8_10  and  O2_11 
REMARK    5  A    between atoms: C10_13  and  N2_14 
REMARK    6  A    between atoms: C12_17  and  O3_18 
REMARK    7  A    between atoms: O3_18  and  C13_19 
REMARK    8  A    between atoms: C13_19  and  C14_20 
ROOT
HETATM    1  N2  UNL     1      24.991   4.866  50.529  1.00  0.00    -0.271 N 
HETATM    2  C11 UNL     1      23.971   5.029  51.388  1.00  0.00     0.221 A 
HETATM    3  N3  UNL     1      23.684   4.072  52.281  1.00  0.00    -0.218 NA
HETATM    4  C12 UNL     1      24.354   2.914  52.400  1.00  0.00     0.193 A 
HETATM    5  C20 UNL     1      25.416   2.765  51.491  1.00  0.00     0.155 A 
HETATM    6 CL1  UNL     1      26.498   1.397  51.353  1.00  0.00    -0.074 Cl
HETATM    7  C21 UNL     1      25.741   3.750  50.544  1.00  0.00     0.279 A 
HETATM    8  O4  UNL     1      26.646   3.720  49.706  1.00  0.00    -0.266 OA
ENDROOT
BRANCH   1   9
HETATM    9  C10 UNL     1      25.111   6.011  49.671  1.00  0.00     0.050 A 
HETATM   10  C2  UNL     1      24.270   6.019  48.577  1.00  0.00    -0.035 A 
HETATM   11  C1  UNL     1      23.300   4.933  48.275  1.00  0.00     0.050 C 
HETATM   12  C3  UNL     1      24.373   7.112  47.751  1.00  0.00     0.010 A 
HETATM   13  C4  UNL     1      25.271   8.156  47.995  1.00  0.00     0.017 A 
HETATM   14  C5  UNL     1      26.097   8.118  49.096  1.00  0.00     0.034 A 
HETATM   15  C9  UNL     1      26.013   7.030  49.941  1.00  0.00     0.047 A 
BRANCH  14  16
HETATM   16  C6  UNL     1      27.017   9.235  49.305  1.00  0.00     0.251 C 
HETATM   17  O1  UNL     1      27.087   9.663  50.509  1.00  0.00    -0.268 OA
HETATM   18  N1  UNL     1      27.811   9.864  48.329  1.00  0.00    -0.355 N 
HETATM   19  H6  UNL     1      27.695   9.456  47.375  1.00  0.00     0.162 HD
BRANCH  18  20
HETATM   20  C7  UNL     1      28.672  10.955  48.683  1.00  0.00     0.148 C 
BRANCH  20  21
HETATM   21  C8  UNL     1      28.050  12.313  48.576  1.00  0.00     0.183 C 
BRANCH  21  22
HETATM   22  O2  UNL     1      28.419  13.025  49.736  1.00  0.00    -0.399 OA
HETATM   23  H11 UNL     1      28.522  13.982  49.557  1.00  0.00     0.209 HD
ENDBRANCH  21  22
ENDBRANCH  20  21
ENDBRANCH  18  20
ENDBRANCH  14  16
ENDBRANCH   1   9
BRANCH   4  24
HETATM   24  O3  UNL     1      24.296   1.827  53.161  1.00  0.00    -0.328 OA
BRANCH  24  25
HETATM   25  C13 UNL     1      23.894   0.534  53.097  1.00  0.00     0.219 C 
BRANCH  25  26
HETATM   26  C14 UNL     1      22.442   0.344  52.858  1.00  0.00     0.005 A 
HETATM   27  C15 UNL     1      21.678  -0.037  53.942  1.00  0.00     0.015 A 
HETATM   28  C16 UNL     1      20.307  -0.227  53.854  1.00  0.00     0.043 A 
HETATM   29  C17 UNL     1      19.641  -0.043  52.661  1.00  0.00     0.119 A 
HETATM   30  F1  UNL     1      18.332  -0.181  52.404  1.00  0.00    -0.206 F 
HETATM   31  C18 UNL     1      20.396   0.334  51.585  1.00  0.00     0.085 A 
HETATM   32  C19 UNL     1      21.766   0.524  51.672  1.00  0.00     0.127 A 
HETATM   33  F2  UNL     1      22.485   0.878  50.589  1.00  0.00    -0.205 F 
ENDBRANCH  25  26
ENDBRANCH  24  25
ENDBRANCH   4  24
TORSDOF 8
ENDMDL
MODEL 9
REMARK VINA RESULT:      -7.8      2.287      2.599
REMARK  8 active torsions:
REMARK  status: ('A' for Active; 'I' for Inactive)
REMARK    1  A    between atoms: C5_5  and  C6_6 
REMARK       I    between atoms: C6_6  and  N1_8 
REMARK    2  A    between atoms: N1_8  and  C7_9 
REMARK    3  A    between atoms: C7_9  and  C8_10 
REMARK    4  A    between atoms: C8_10  and  O2_11 
REMARK    5  A    between atoms: C10_13  and  N2_14 
REMARK    6  A    between atoms: C12_17  and  O3_18 
REMARK    7  A    between atoms: O3_18  and  C13_19 
REMARK    8  A    between atoms: C13_19  and  C14_20 
ROOT
HETATM    1  N2  UNL     1      23.968   4.405  50.235  1.00  0.00    -0.271 N 
HETATM    2  C11 UNL     1      24.097   4.187  51.554  1.00  0.00     0.221 A 
HETATM    3  N3  UNL     1      23.470   3.153  52.129  1.00  0.00    -0.218 NA
HETATM    4  C12 UNL     1      22.689   2.276  51.477  1.00  0.00     0.193 A 
HETATM    5  C20 UNL     1      22.568   2.524  50.098  1.00  0.00     0.155 A 
HETATM    6 CL1  UNL     1      21.640   1.598  48.940  1.00  0.00    -0.074 Cl
HETATM    7  C21 UNL     1      23.214   3.600  49.467  1.00  0.00     0.279 A 
HETATM    8  O4  UNL     1      23.175   3.906  48.273  1.00  0.00    -0.266 OA
ENDROOT
BRANCH   1   9
HETATM    9  C10 UNL     1      24.723   5.562  49.842  1.00  0.00     0.050 A 
HETATM   10  C2  UNL     1      24.089   6.773  50.032  1.00  0.00    -0.035 A 
HETATM   11  C1  UNL     1      22.720   6.908  50.595  1.00  0.00     0.050 C 
HETATM   12  C3  UNL     1      24.804   7.887  49.664  1.00  0.00     0.010 A 
HETATM   13  C4  UNL     1      26.094   7.809  49.130  1.00  0.00     0.017 A 
HETATM   14  C5  UNL     1      26.700   6.585  48.953  1.00  0.00     0.034 A 
HETATM   15  C9  UNL     1      26.002   5.450  49.314  1.00  0.00     0.047 A 
BRANCH  14  16
HETATM   16  C6  UNL     1      28.049   6.559  48.391  1.00  0.00     0.251 C 
HETATM   17  O1  UNL     1      28.177   7.133  47.255  1.00  0.00    -0.268 OA
HETATM   18  N1  UNL     1      29.190   5.976  48.973  1.00  0.00    -0.355 N 
HETATM   19  H6  UNL     1      29.001   5.530  49.897  1.00  0.00     0.162 HD
BRANCH  18  20
HETATM   20  C7  UNL     1      30.457   6.029  48.302  1.00  0.00     0.148 C 
BRANCH  20  21
HETATM   21  C8  UNL     1      31.651   5.876  49.193  1.00  0.00     0.183 C 
BRANCH  21  22
HETATM   22  O2  UNL     1      32.180   4.591  48.950  1.00  0.00    -0.399 OA
HETATM   23  H11 UNL     1      32.321   4.093  49.781  1.00  0.00     0.209 HD
ENDBRANCH  21  22
ENDBRANCH  20  21
ENDBRANCH  18  20
ENDBRANCH  14  16
ENDBRANCH   1   9
BRANCH   4  24
HETATM   24  O3  UNL     1      21.970   1.199  51.775  1.00  0.00    -0.328 OA
BRANCH  24  25
HETATM   25  C13 UNL     1      22.134  -0.120  52.035  1.00  0.00     0.219 C 
BRANCH  25  26
HETATM   26  C14 UNL     1      22.986  -0.423  53.212  1.00  0.00     0.005 A 
HETATM   27  C15 UNL     1      22.346  -0.909  54.334  1.00  0.00     0.015 A 
HETATM   28  C16 UNL     1      23.031  -1.249  55.490  1.00  0.00     0.043 A 
HETATM   29  C17 UNL     1      24.401  -1.112  55.569  1.00  0.00     0.119 A 
HETATM   30  F1  UNL     1      25.211  -1.394  56.600  1.00  0.00    -0.206 F 
HETATM   31  C18 UNL     1      25.037  -0.630  54.459  1.00  0.00     0.085 A 
HETATM   32  C19 UNL     1      24.353  -0.289  53.303  1.00  0.00     0.127 A 
HETATM   33  F2  UNL     1      25.007   0.200  52.232  1.00  0.00    -0.205 F 
ENDBRANCH  25  26
ENDBRANCH  24  25
ENDBRANCH   4  24
TORSDOF 8
ENDMDL
