MODEL 1
REMARK VINA RESULT:      -9.0      0.000      0.000
REMARK  6 active torsions:
REMARK  status: ('A' for Active; 'I' for Inactive)
REMARK    1  A    between atoms: C2_2  and  C3_3 
REMARK    2  A    between atoms: C8_8  and  C9_9 
REMARK    3  A    between atoms: C9_9  and  C10_10 
REMARK    4  A    between atoms: C12_12  and  N1_14 
REMARK    5  A    between atoms: N1_14  and  C14_15 
REMARK    6  A    between atoms: C17_18  and  N2_19 
ROOT
HETATM    1  C10 UNL     1      26.688   2.228  50.931  1.00  0.00     0.015 A 
HETATM    2  C11 UNL     1      26.287   1.005  51.349  1.00  0.00     0.038 A 
HETATM    3  C12 UNL     1      26.534   0.675  52.799  1.00  0.00     0.128 A 
HETATM    4  C13 UNL     1      27.583  -0.415  52.893  1.00  0.00     0.054 C 
HETATM    5  C24 UNL     1      27.158   1.938  53.247  1.00  0.00     0.254 A 
HETATM    6  O1  UNL     1      27.549   2.192  54.405  1.00  0.00    -0.270 OA
HETATM    7  N4  UNL     1      27.222   2.787  52.114  1.00  0.00    -0.328 N 
HETATM    8  H29 UNL     1      27.630   3.738  52.175  1.00  0.00     0.168 HD
ENDROOT
BRANCH   3   9
HETATM    9  N1  UNL     1      25.350   0.339  53.517  1.00  0.00    -0.369 N 
HETATM   10  H14 UNL     1      25.512  -0.167  54.417  1.00  0.00     0.161 HD
BRANCH   9  11
HETATM   11  C14 UNL     1      23.992   0.583  53.204  1.00  0.00     0.029 A 
HETATM   12  C15 UNL     1      23.031  -0.430  53.188  1.00  0.00     0.031 A 
HETATM   13  C16 UNL     1      21.733  -0.102  52.859  1.00  0.00     0.031 A 
HETATM   14  C17 UNL     1      21.320   1.169  52.544  1.00  0.00     0.031 A 
HETATM   15  C22 UNL     1      22.269   2.138  52.565  1.00  0.00     0.031 A 
HETATM   16  C23 UNL     1      23.574   1.858  52.886  1.00  0.00     0.031 A 
BRANCH  14  17
HETATM   17  N2  UNL     1      19.954   1.427  52.218  1.00  0.00    -0.368 N 
HETATM   18  C18 UNL     1      18.921   0.449  52.114  1.00  0.00     0.130 C 
HETATM   19  C19 UNL     1      18.327   0.380  50.706  1.00  0.00     0.070 C 
HETATM   20  P1  UNL     1      17.458   2.041  50.518  1.00  0.00    -0.047 P 
HETATM   21  C20 UNL     1      17.703   2.758  48.841  1.00  0.00     0.061 C 
HETATM   22  N3  UNL     1      18.201   3.061  51.819  1.00  0.00    -0.283 NA
HETATM   23  C21 UNL     1      19.609   2.810  51.972  1.00  0.00     0.217 C 
HETATM   24  H24 UNL     1      17.720   2.838  52.704  1.00  0.00     0.128 HD
ENDBRANCH  14  17
ENDBRANCH   9  11
ENDBRANCH   3   9
BRANCH   1  25
HETATM   25  C9  UNL     1      26.514   2.697  49.537  1.00  0.00     0.096 C 
BRANCH  25  26
HETATM   26  C8  UNL     1      25.825   4.001  49.476  1.00  0.00    -0.043 A 
HETATM   27  C3  UNL     1      26.336   5.207  49.065  1.00  0.00    -0.033 A 
HETATM   28  C4  UNL     1      25.674   6.413  49.060  1.00  0.00     0.011 A 
HETATM   29  C5  UNL     1      24.375   6.385  49.516  1.00  0.00     0.001 A 
HETATM   30  C6  UNL     1      23.828   5.193  49.936  1.00  0.00     0.001 A 
HETATM   31  C7  UNL     1      24.519   3.979  49.933  1.00  0.00     0.008 A 
BRANCH  27  32
HETATM   32  C2  UNL     1      27.674   5.220  48.546  1.00  0.00    -0.015 C 
HETATM   33  C1  UNL     1      28.865   5.632  48.283  1.00  0.00     0.032 C 
ENDBRANCH  27  32
ENDBRANCH  25  26
ENDBRANCH   1  25
TORSDOF 6
ENDMDL
MODEL 2
REMARK VINA RESULT:      -8.7      3.794      8.300
REMARK  6 active torsions:
REMARK  status: ('A' for Active; 'I' for Inactive)
REMARK    1  A    between atoms: C2_2  and  C3_3 
REMARK    2  A    between atoms: C8_8  and  C9_9 
REMARK    3  A    between atoms: C9_9  and  C10_10 
REMARK    4  A    between atoms: C12_12  and  N1_14 
REMARK    5  A    between atoms: N1_14  and  C14_15 
REMARK    6  A    between atoms: C17_18  and  N2_19 
ROOT
HETATM    1  C10 UNL     1      24.562   1.959  52.830  1.00  0.00     0.015 A 
HETATM    2  C11 UNL     1      23.842   1.901  51.686  1.00  0.00     0.038 A 
HETATM    3  C12 UNL     1      23.222   3.192  51.215  1.00  0.00     0.128 A 
HETATM    4  C13 UNL     1      21.714   3.097  51.337  1.00  0.00     0.054 C 
HETATM    5  C24 UNL     1      23.700   4.107  52.273  1.00  0.00     0.254 A 
HETATM    6  O1  UNL     1      23.467   5.332  52.343  1.00  0.00    -0.270 OA
HETATM    7  N4  UNL     1      24.462   3.326  53.177  1.00  0.00    -0.328 N 
HETATM    8  H29 UNL     1      24.903   3.747  54.015  1.00  0.00     0.168 HD
ENDROOT
BRANCH   3   9
HETATM    9  N1  UNL     1      23.628   3.576  49.904  1.00  0.00    -0.369 N 
HETATM   10  H14 UNL     1      22.932   3.368  49.152  1.00  0.00     0.161 HD
BRANCH   9  11
HETATM   11  C14 UNL     1      24.822   4.193  49.463  1.00  0.00     0.029 A 
HETATM   12  C15 UNL     1      26.061   3.551  49.511  1.00  0.00     0.031 A 
HETATM   13  C16 UNL     1      27.175   4.234  49.071  1.00  0.00     0.031 A 
HETATM   14  C17 UNL     1      27.143   5.518  48.583  1.00  0.00     0.031 A 
HETATM   15  C22 UNL     1      25.930   6.123  48.546  1.00  0.00     0.031 A 
HETATM   16  C23 UNL     1      24.794   5.482  48.973  1.00  0.00     0.031 A 
BRANCH  14  17
HETATM   17  N2  UNL     1      28.343   6.155  48.143  1.00  0.00    -0.368 N 
HETATM   18  C18 UNL     1      29.632   5.549  48.071  1.00  0.00     0.130 C 
HETATM   19  C19 UNL     1      30.647   6.236  48.985  1.00  0.00     0.070 C 
HETATM   20  P1  UNL     1      30.855   7.938  48.205  1.00  0.00    -0.047 P 
HETATM   21  C20 UNL     1      30.946   9.269  49.473  1.00  0.00     0.061 C 
HETATM   22  N3  UNL     1      29.397   8.100  47.140  1.00  0.00    -0.283 NA
HETATM   23  C21 UNL     1      28.217   7.538  47.740  1.00  0.00     0.217 C 
HETATM   24  H24 UNL     1      29.598   7.602  46.258  1.00  0.00     0.128 HD
ENDBRANCH  14  17
ENDBRANCH   9  11
ENDBRANCH   3   9
BRANCH   1  25
HETATM   25  C9  UNL     1      25.231   0.776  53.419  1.00  0.00     0.096 C 
BRANCH  25  26
HETATM   26  C8  UNL     1      26.700   0.924  53.433  1.00  0.00    -0.043 A 
HETATM   27  C3  UNL     1      27.648  -0.053  53.262  1.00  0.00    -0.033 A 
HETATM   28  C4  UNL     1      29.012   0.116  53.322  1.00  0.00     0.011 A 
HETATM   29  C5  UNL     1      29.447   1.397  53.580  1.00  0.00     0.001 A 
HETATM   30  C6  UNL     1      28.523   2.404  53.757  1.00  0.00     0.001 A 
HETATM   31  C7  UNL     1      27.142   2.210  53.692  1.00  0.00     0.008 A 
BRANCH  27  32
HETATM   32  C2  UNL     1      27.190  -1.376  52.946  1.00  0.00    -0.015 C 
HETATM   33  C1  UNL     1      26.816  -2.392  52.248  1.00  0.00     0.032 C 
ENDBRANCH  27  32
ENDBRANCH  25  26
ENDBRANCH   1  25
TORSDOF 6
ENDMDL
MODEL 3
REMARK VINA RESULT:      -8.7      0.719      2.009
REMARK  6 active torsions:
REMARK  status: ('A' for Active; 'I' for Inactive)
REMARK    1  A    between atoms: C2_2  and  C3_3 
REMARK    2  A    between atoms: C8_8  and  C9_9 
REMARK    3  A    between atoms: C9_9  and  C10_10 
REMARK    4  A    between atoms: C12_12  and  N1_14 
REMARK    5  A    between atoms: N1_14  and  C14_15 
REMARK    6  A    between atoms: C17_18  and  N2_19 
ROOT
HETATM    1  C10 UNL     1      26.600   2.434  50.849  1.00  0.00     0.015 A 
HETATM    2  C11 UNL     1      26.091   1.248  51.253  1.00  0.00     0.038 A 
HETATM    3  C12 UNL     1      26.325   0.871  52.693  1.00  0.00     0.128 A 
HETATM    4  C13 UNL     1      27.269  -0.314  52.754  1.00  0.00     0.054 C 
HETATM    5  C24 UNL     1      27.072   2.062  53.152  1.00  0.00     0.254 A 
HETATM    6  O1  UNL     1      27.501   2.258  54.308  1.00  0.00    -0.270 OA
HETATM    7  N4  UNL     1      27.200   2.921  52.032  1.00  0.00    -0.328 N 
HETATM    8  H29 UNL     1      27.696   3.828  52.102  1.00  0.00     0.168 HD
ENDROOT
BRANCH   3   9
HETATM    9  N1  UNL     1      25.125   0.635  53.425  1.00  0.00    -0.369 N 
HETATM   10  H14 UNL     1      25.263   0.205  54.367  1.00  0.00     0.161 HD
BRANCH   9  11
HETATM   11  C14 UNL     1      23.778   0.893  53.075  1.00  0.00     0.029 A 
HETATM   12  C15 UNL     1      23.298   2.184  52.843  1.00  0.00     0.031 A 
HETATM   13  C16 UNL     1      21.967   2.343  52.519  1.00  0.00     0.031 A 
HETATM   14  C17 UNL     1      21.075   1.304  52.410  1.00  0.00     0.031 A 
HETATM   15  C22 UNL     1      21.563   0.059  52.641  1.00  0.00     0.031 A 
HETATM   16  C23 UNL     1      22.881  -0.147  52.965  1.00  0.00     0.031 A 
BRANCH  14  17
HETATM   17  N2  UNL     1      19.712   1.553  52.067  1.00  0.00    -0.368 N 
HETATM   18  C18 UNL     1      18.709   0.560  51.859  1.00  0.00     0.130 C 
HETATM   19  C19 UNL     1      18.154   0.587  50.433  1.00  0.00     0.070 C 
HETATM   20  P1  UNL     1      17.246   2.235  50.350  1.00  0.00    -0.047 P 
HETATM   21  C20 UNL     1      17.516   3.087  48.741  1.00  0.00     0.061 C 
HETATM   22  N3  UNL     1      17.927   3.169  51.746  1.00  0.00    -0.283 NA
HETATM   23  C21 UNL     1      19.337   2.941  51.919  1.00  0.00     0.217 C 
HETATM   24  H24 UNL     1      17.429   2.866  52.597  1.00  0.00     0.128 HD
ENDBRANCH  14  17
ENDBRANCH   9  11
ENDBRANCH   3   9
BRANCH   1  25
HETATM   25  C9  UNL     1      26.452   2.942  49.464  1.00  0.00     0.096 C 
BRANCH  25  26
HETATM   26  C8  UNL     1      25.593   4.141  49.406  1.00  0.00    -0.043 A 
HETATM   27  C3  UNL     1      24.234   4.197  49.229  1.00  0.00    -0.033 A 
HETATM   28  C4  UNL     1      23.470   5.338  49.139  1.00  0.00     0.011 A 
HETATM   29  C5  UNL     1      24.157   6.528  49.239  1.00  0.00     0.001 A 
HETATM   30  C6  UNL     1      25.522   6.511  49.419  1.00  0.00     0.001 A 
HETATM   31  C7  UNL     1      26.278   5.340  49.507  1.00  0.00     0.008 A 
BRANCH  27  32
HETATM   32  C2  UNL     1      23.518   2.954  49.173  1.00  0.00    -0.015 C 
HETATM   33  C1  UNL     1      22.578   2.110  48.925  1.00  0.00     0.032 C 
ENDBRANCH  27  32
ENDBRANCH  25  26
ENDBRANCH   1  25
TORSDOF 6
ENDMDL
MODEL 4
REMARK VINA RESULT:      -8.7      3.504      8.235
REMARK  6 active torsions:
REMARK  status: ('A' for Active; 'I' for Inactive)
REMARK    1  A    between atoms: C2_2  and  C3_3 
REMARK    2  A    between atoms: C8_8  and  C9_9 
REMARK    3  A    between atoms: C9_9  and  C10_10 
REMARK    4  A    between atoms: C12_12  and  N1_14 
REMARK    5  A    between atoms: N1_14  and  C14_15 
REMARK    6  A    between atoms: C17_18  and  N2_19 
ROOT
HETATM    1  C10 UNL     1      20.291   2.011  50.562  1.00  0.00     0.015 A 
HETATM    2  C11 UNL     1      21.342   2.319  49.769  1.00  0.00     0.038 A 
HETATM    3  C12 UNL     1      21.619   3.786  49.557  1.00  0.00     0.128 A 
HETATM    4  C13 UNL     1      21.328   4.147  48.114  1.00  0.00     0.054 C 
HETATM    5  C24 UNL     1      20.547   4.372  50.390  1.00  0.00     0.254 A 
HETATM    6  O1  UNL     1      20.341   5.590  50.569  1.00  0.00    -0.270 OA
HETATM    7  N4  UNL     1      19.813   3.288  50.935  1.00  0.00    -0.328 N 
HETATM    8  H29 UNL     1      18.999   3.446  51.556  1.00  0.00     0.168 HD
ENDROOT
BRANCH   3   9
HETATM    9  N1  UNL     1      22.929   4.183  49.953  1.00  0.00    -0.369 N 
HETATM   10  H14 UNL     1      23.269   5.069  49.516  1.00  0.00     0.161 HD
BRANCH   9  11
HETATM   11  C14 UNL     1      23.838   3.567  50.845  1.00  0.00     0.029 A 
HETATM   12  C15 UNL     1      23.652   3.572  52.229  1.00  0.00     0.031 A 
HETATM   13  C16 UNL     1      24.597   2.958  53.023  1.00  0.00     0.031 A 
HETATM   14  C17 UNL     1      25.720   2.335  52.536  1.00  0.00     0.031 A 
HETATM   15  C22 UNL     1      25.881   2.342  51.189  1.00  0.00     0.031 A 
HETATM   16  C23 UNL     1      24.967   2.942  50.360  1.00  0.00     0.031 A 
BRANCH  14  17
HETATM   17  N2  UNL     1      26.649   1.717  53.427  1.00  0.00    -0.368 N 
HETATM   18  C18 UNL     1      27.867   2.294  53.895  1.00  0.00     0.130 C 
HETATM   19  C19 UNL     1      29.093   1.488  53.463  1.00  0.00     0.070 C 
HETATM   20  P1  UNL     1      28.911  -0.128  54.415  1.00  0.00    -0.047 P 
HETATM   21  C20 UNL     1      29.356  -1.586  53.385  1.00  0.00     0.061 C 
HETATM   22  N3  UNL     1      27.166  -0.138  54.907  1.00  0.00    -0.283 NA
HETATM   23  C21 UNL     1      26.306   0.388  53.881  1.00  0.00     0.217 C 
HETATM   24  H24 UNL     1      27.077   0.444  55.754  1.00  0.00     0.128 HD
ENDBRANCH  14  17
ENDBRANCH   9  11
ENDBRANCH   3   9
BRANCH   1  25
HETATM   25  C9  UNL     1      19.894   0.616  50.864  1.00  0.00     0.096 C 
BRANCH  25  26
HETATM   26  C8  UNL     1      20.606   0.083  52.042  1.00  0.00    -0.043 A 
HETATM   27  C3  UNL     1      20.071  -0.553  53.134  1.00  0.00    -0.033 A 
HETATM   28  C4  UNL     1      20.763  -1.001  54.236  1.00  0.00     0.011 A 
HETATM   29  C5  UNL     1      22.123  -0.779  54.221  1.00  0.00     0.001 A 
HETATM   30  C6  UNL     1      22.695  -0.144  53.140  1.00  0.00     0.001 A 
HETATM   31  C7  UNL     1      21.973   0.303  52.032  1.00  0.00     0.008 A 
BRANCH  27  32
HETATM   32  C2  UNL     1      18.662  -0.823  53.123  1.00  0.00    -0.015 C 
HETATM   33  C1  UNL     1      17.553  -1.468  53.235  1.00  0.00     0.032 C 
ENDBRANCH  27  32
ENDBRANCH  25  26
ENDBRANCH   1  25
TORSDOF 6
ENDMDL
MODEL 5
REMARK VINA RESULT:      -8.4      3.288      7.320
REMARK  6 active torsions:
REMARK  status: ('A' for Active; 'I' for Inactive)
REMARK    1  A    between atoms: C2_2  and  C3_3 
REMARK    2  A    between atoms: C8_8  and  C9_9 
REMARK    3  A    between atoms: C9_9  and  C10_10 
REMARK    4  A    between atoms: C12_12  and  N1_14 
REMARK    5  A    between atoms: N1_14  and  C14_15 
REMARK    6  A    between atoms: C17_18  and  N2_19 
ROOT
HETATM    1  C10 UNL     1      21.847   1.079  52.849  1.00  0.00     0.015 A 
HETATM    2  C11 UNL     1      21.716   0.899  51.515  1.00  0.00     0.038 A 
HETATM    3  C12 UNL     1      20.631   1.692  50.832  1.00  0.00     0.128 A 
HETATM    4  C13 UNL     1      19.545   0.749  50.354  1.00  0.00     0.054 C 
HETATM    5  C24 UNL     1      20.096   2.443  51.987  1.00  0.00     0.254 A 
HETATM    6  O1  UNL     1      19.165   3.274  51.954  1.00  0.00    -0.270 OA
HETATM    7  N4  UNL     1      20.840   2.034  53.122  1.00  0.00    -0.328 N 
HETATM    8  H29 UNL     1      20.645   2.420  54.063  1.00  0.00     0.168 HD
ENDROOT
BRANCH   3   9
HETATM    9  N1  UNL     1      21.111   2.529  49.782  1.00  0.00    -0.369 N 
HETATM   10  H14 UNL     1      20.542   2.503  48.906  1.00  0.00     0.161 HD
BRANCH   9  11
HETATM   11  C14 UNL     1      22.234   3.388  49.742  1.00  0.00     0.029 A 
HETATM   12  C15 UNL     1      22.133   4.764  49.958  1.00  0.00     0.031 A 
HETATM   13  C16 UNL     1      23.280   5.528  49.887  1.00  0.00     0.031 A 
HETATM   14  C17 UNL     1      24.525   5.017  49.614  1.00  0.00     0.031 A 
HETATM   15  C22 UNL     1      24.600   3.678  49.407  1.00  0.00     0.031 A 
HETATM   16  C23 UNL     1      23.485   2.879  49.468  1.00  0.00     0.031 A 
BRANCH  14  17
HETATM   17  N2  UNL     1      25.665   5.876  49.562  1.00  0.00    -0.368 N 
HETATM   18  C18 UNL     1      25.767   7.165  50.164  1.00  0.00     0.130 C 
HETATM   19  C19 UNL     1      25.985   8.271  49.131  1.00  0.00     0.070 C 
HETATM   20  P1  UNL     1      27.704   7.902  48.454  1.00  0.00    -0.047 P 
HETATM   21  C20 UNL     1      27.790   8.141  46.631  1.00  0.00     0.061 C 
HETATM   22  N3  UNL     1      27.992   6.179  48.937  1.00  0.00    -0.283 NA
HETATM   23  C21 UNL     1      26.805   5.375  48.827  1.00  0.00     0.217 C 
HETATM   24  H24 UNL     1      28.310   6.179  49.919  1.00  0.00     0.128 HD
ENDBRANCH  14  17
ENDBRANCH   9  11
ENDBRANCH   3   9
BRANCH   1  25
HETATM   25  C9  UNL     1      22.865   0.371  53.659  1.00  0.00     0.096 C 
BRANCH  25  26
HETATM   26  C8  UNL     1      24.231   0.598  53.148  1.00  0.00    -0.043 A 
HETATM   27  C3  UNL     1      24.832   1.794  52.846  1.00  0.00    -0.033 A 
HETATM   28  C4  UNL     1      26.096   1.964  52.331  1.00  0.00     0.011 A 
HETATM   29  C5  UNL     1      26.812   0.809  52.105  1.00  0.00     0.001 A 
HETATM   30  C6  UNL     1      26.241  -0.410  52.397  1.00  0.00     0.001 A 
HETATM   31  C7  UNL     1      24.955  -0.560  52.919  1.00  0.00     0.008 A 
BRANCH  27  32
HETATM   32  C2  UNL     1      24.099   2.995  53.129  1.00  0.00    -0.015 C 
HETATM   33  C1  UNL     1      23.826   4.250  53.232  1.00  0.00     0.032 C 
ENDBRANCH  27  32
ENDBRANCH  25  26
ENDBRANCH   1  25
TORSDOF 6
ENDMDL
MODEL 6
REMARK VINA RESULT:      -8.4      3.221      6.499
REMARK  6 active torsions:
REMARK  status: ('A' for Active; 'I' for Inactive)
REMARK    1  A    between atoms: C2_2  and  C3_3 
REMARK    2  A    between atoms: C8_8  and  C9_9 
REMARK    3  A    between atoms: C9_9  and  C10_10 
REMARK    4  A    between atoms: C12_12  and  N1_14 
REMARK    5  A    between atoms: N1_14  and  C14_15 
REMARK    6  A    between atoms: C17_18  and  N2_19 
ROOT
HETATM    1  C10 UNL     1      24.779  -0.125  52.738  1.00  0.00     0.015 A 
HETATM    2  C11 UNL     1      23.902   0.541  51.952  1.00  0.00     0.038 A 
HETATM    3  C12 UNL     1      22.527   0.772  52.524  1.00  0.00     0.128 A 
HETATM    4  C13 UNL     1      21.517  -0.049  51.747  1.00  0.00     0.054 C 
HETATM    5  C24 UNL     1      22.691   0.140  53.851  1.00  0.00     0.254 A 
HETATM    6  O1  UNL     1      21.821   0.071  54.743  1.00  0.00    -0.270 OA
HETATM    7  N4  UNL     1      24.015  -0.363  53.903  1.00  0.00    -0.328 N 
HETATM    8  H29 UNL     1      24.371  -0.859  54.741  1.00  0.00     0.168 HD
ENDROOT
BRANCH   3   9
HETATM    9  N1  UNL     1      22.159   2.147  52.590  1.00  0.00    -0.369 N 
HETATM   10  H14 UNL     1      21.377   2.361  53.250  1.00  0.00     0.161 HD
BRANCH   9  11
HETATM   11  C14 UNL     1      22.688   3.266  51.905  1.00  0.00     0.029 A 
HETATM   12  C15 UNL     1      23.380   4.288  52.558  1.00  0.00     0.031 A 
HETATM   13  C16 UNL     1      23.849   5.348  51.811  1.00  0.00     0.031 A 
HETATM   14  C17 UNL     1      23.678   5.464  50.454  1.00  0.00     0.031 A 
HETATM   15  C22 UNL     1      23.003   4.461  49.839  1.00  0.00     0.031 A 
HETATM   16  C23 UNL     1      22.517   3.387  50.542  1.00  0.00     0.031 A 
BRANCH  14  17
HETATM   17  N2  UNL     1      24.200   6.594  49.752  1.00  0.00    -0.368 N 
HETATM   18  C18 UNL     1      24.764   6.575  48.442  1.00  0.00     0.130 C 
HETATM   19  C19 UNL     1      26.232   7.004  48.439  1.00  0.00     0.070 C 
HETATM   20  P1  UNL     1      26.156   8.824  48.921  1.00  0.00    -0.047 P 
HETATM   21  C20 UNL     1      27.501   9.281  50.090  1.00  0.00     0.061 C 
HETATM   22  N3  UNL     1      24.511   9.001  49.660  1.00  0.00    -0.283 NA
HETATM   23  C21 UNL     1      24.142   7.858  50.451  1.00  0.00     0.217 C 
HETATM   24  H24 UNL     1      23.833   9.112  48.889  1.00  0.00     0.128 HD
ENDBRANCH  14  17
ENDBRANCH   9  11
ENDBRANCH   3   9
BRANCH   1  25
HETATM   25  C9  UNL     1      26.167  -0.427  52.316  1.00  0.00     0.096 C 
BRANCH  25  26
HETATM   26  C8  UNL     1      27.155   0.405  53.031  1.00  0.00    -0.043 A 
HETATM   27  C3  UNL     1      27.520   1.700  52.760  1.00  0.00    -0.033 A 
HETATM   28  C4  UNL     1      28.476   2.433  53.424  1.00  0.00     0.011 A 
HETATM   29  C5  UNL     1      29.116   1.785  54.458  1.00  0.00     0.001 A 
HETATM   30  C6  UNL     1      28.774   0.485  54.760  1.00  0.00     0.001 A 
HETATM   31  C7  UNL     1      27.800  -0.240  54.071  1.00  0.00     0.008 A 
BRANCH  27  32
HETATM   32  C2  UNL     1      26.816   2.384  51.713  1.00  0.00    -0.015 C 
HETATM   33  C1  UNL     1      26.503   2.793  50.532  1.00  0.00     0.032 C 
ENDBRANCH  27  32
ENDBRANCH  25  26
ENDBRANCH   1  25
TORSDOF 6
ENDMDL
MODEL 7
REMARK VINA RESULT:      -8.4      4.279      9.096
REMARK  6 active torsions:
REMARK  status: ('A' for Active; 'I' for Inactive)
REMARK    1  A    between atoms: C2_2  and  C3_3 
REMARK    2  A    between atoms: C8_8  and  C9_9 
REMARK    3  A    between atoms: C9_9  and  C10_10 
REMARK    4  A    between atoms: C12_12  and  N1_14 
REMARK    5  A    between atoms: N1_14  and  C14_15 
REMARK    6  A    between atoms: C17_18  and  N2_19 
ROOT
HETATM    1  C10 UNL     1      23.534   4.029  52.200  1.00  0.00     0.015 A 
HETATM    2  C11 UNL     1      23.130   4.008  50.910  1.00  0.00     0.038 A 
HETATM    3  C12 UNL     1      23.194   5.316  50.164  1.00  0.00     0.128 A 
HETATM    4  C13 UNL     1      21.786   5.789  49.860  1.00  0.00     0.054 C 
HETATM    5  C24 UNL     1      23.741   6.190  51.222  1.00  0.00     0.254 A 
HETATM    6  O1  UNL     1      24.002   7.405  51.109  1.00  0.00    -0.270 OA
HETATM    7  N4  UNL     1      23.906   5.382  52.375  1.00  0.00    -0.328 N 
HETATM    8  H29 UNL     1      24.276   5.774  53.261  1.00  0.00     0.168 HD
ENDROOT
BRANCH   3   9
HETATM    9  N1  UNL     1      24.003   5.266  48.992  1.00  0.00    -0.369 N 
HETATM   10  H14 UNL     1      23.497   4.990  48.121  1.00  0.00     0.161 HD
BRANCH   9  11
HETATM   11  C14 UNL     1      25.383   5.533  48.824  1.00  0.00     0.029 A 
HETATM   12  C15 UNL     1      25.857   6.759  48.352  1.00  0.00     0.031 A 
HETATM   13  C16 UNL     1      27.218   6.927  48.208  1.00  0.00     0.031 A 
HETATM   14  C17 UNL     1      28.145   5.957  48.501  1.00  0.00     0.031 A 
HETATM   15  C22 UNL     1      27.663   4.774  48.958  1.00  0.00     0.031 A 
HETATM   16  C23 UNL     1      26.316   4.562  49.117  1.00  0.00     0.031 A 
BRANCH  14  17
HETATM   17  N2  UNL     1      29.540   6.212  48.328  1.00  0.00    -0.368 N 
HETATM   18  C18 UNL     1      30.203   7.446  48.596  1.00  0.00     0.130 C 
HETATM   19  C19 UNL     1      30.834   8.049  47.341  1.00  0.00     0.070 C 
HETATM   20  P1  UNL     1      32.207   6.831  46.915  1.00  0.00    -0.047 P 
HETATM   21  C20 UNL     1      32.322   6.532  45.103  1.00  0.00     0.061 C 
HETATM   22  N3  UNL     1      31.751   5.336  47.833  1.00  0.00    -0.283 NA
HETATM   23  C21 UNL     1      30.331   5.107  47.833  1.00  0.00     0.217 C 
HETATM   24  H24 UNL     1      32.074   5.457  48.806  1.00  0.00     0.128 HD
ENDBRANCH  14  17
ENDBRANCH   9  11
ENDBRANCH   3   9
BRANCH   1  25
HETATM   25  C9  UNL     1      23.530   2.825  53.063  1.00  0.00     0.096 C 
BRANCH  25  26
HETATM   26  C8  UNL     1      24.609   1.885  52.703  1.00  0.00    -0.043 A 
HETATM   27  C3  UNL     1      24.645   0.527  52.898  1.00  0.00    -0.033 A 
HETATM   28  C4  UNL     1      25.688  -0.314  52.585  1.00  0.00     0.011 A 
HETATM   29  C5  UNL     1      26.793   0.286  52.022  1.00  0.00     0.001 A 
HETATM   30  C6  UNL     1      26.793   1.647  51.810  1.00  0.00     0.001 A 
HETATM   31  C7  UNL     1      25.722   2.482  52.136  1.00  0.00     0.008 A 
BRANCH  27  32
HETATM   32  C2  UNL     1      23.473  -0.098  53.440  1.00  0.00    -0.015 C 
HETATM   33  C1  UNL     1      22.735  -0.834  54.197  1.00  0.00     0.032 C 
ENDBRANCH  27  32
ENDBRANCH  25  26
ENDBRANCH   1  25
TORSDOF 6
ENDMDL
MODEL 8
REMARK VINA RESULT:      -8.3      4.012      8.767
REMARK  6 active torsions:
REMARK  status: ('A' for Active; 'I' for Inactive)
REMARK    1  A    between atoms: C2_2  and  C3_3 
REMARK    2  A    between atoms: C8_8  and  C9_9 
REMARK    3  A    between atoms: C9_9  and  C10_10 
REMARK    4  A    between atoms: C12_12  and  N1_14 
REMARK    5  A    between atoms: N1_14  and  C14_15 
REMARK    6  A    between atoms: C17_18  and  N2_19 
ROOT
HETATM    1  C10 UNL     1      24.682   2.091  51.900  1.00  0.00     0.015 A 
HETATM    2  C11 UNL     1      23.901   2.257  50.809  1.00  0.00     0.038 A 
HETATM    3  C12 UNL     1      23.273   3.616  50.631  1.00  0.00     0.128 A 
HETATM    4  C13 UNL     1      21.772   3.503  50.818  1.00  0.00     0.054 C 
HETATM    5  C24 UNL     1      23.819   4.309  51.817  1.00  0.00     0.254 A 
HETATM    6  O1  UNL     1      23.608   5.497  52.135  1.00  0.00    -0.270 OA
HETATM    7  N4  UNL     1      24.620   3.365  52.509  1.00  0.00    -0.328 N 
HETATM    8  H29 UNL     1      25.112   3.616  53.387  1.00  0.00     0.168 HD
ENDROOT
BRANCH   3   9
HETATM    9  N1  UNL     1      23.611   4.245  49.398  1.00  0.00    -0.369 N 
HETATM   10  H14 UNL     1      22.947   4.057  48.614  1.00  0.00     0.161 HD
BRANCH   9  11
HETATM   11  C14 UNL     1      24.703   5.083  49.071  1.00  0.00     0.029 A 
HETATM   12  C15 UNL     1      24.535   6.404  48.650  1.00  0.00     0.031 A 
HETATM   13  C16 UNL     1      25.656   7.145  48.340  1.00  0.00     0.031 A 
HETATM   14  C17 UNL     1      26.939   6.662  48.419  1.00  0.00     0.031 A 
HETATM   15  C22 UNL     1      27.080   5.376  48.829  1.00  0.00     0.031 A 
HETATM   16  C23 UNL     1      25.992   4.602  49.148  1.00  0.00     0.031 A 
BRANCH  14  17
HETATM   17  N2  UNL     1      28.049   7.496  48.083  1.00  0.00    -0.368 N 
HETATM   18  C18 UNL     1      28.809   7.429  46.878  1.00  0.00     0.130 C 
HETATM   19  C19 UNL     1      30.276   7.083  47.137  1.00  0.00     0.070 C 
HETATM   20  P1  UNL     1      30.926   8.597  48.051  1.00  0.00    -0.047 P 
HETATM   21  C20 UNL     1      32.050   8.134  49.433  1.00  0.00     0.061 C 
HETATM   22  N3  UNL     1      29.422   9.423  48.634  1.00  0.00    -0.283 NA
HETATM   23  C21 UNL     1      28.419   8.487  49.069  1.00  0.00     0.217 C 
HETATM   24  H24 UNL     1      29.047   9.979  47.849  1.00  0.00     0.128 HD
ENDBRANCH  14  17
ENDBRANCH   9  11
ENDBRANCH   3   9
BRANCH   1  25
HETATM   25  C9  UNL     1      25.367   0.815  52.211  1.00  0.00     0.096 C 
BRANCH  25  26
HETATM   26  C8  UNL     1      24.720   0.101  53.330  1.00  0.00    -0.043 A 
HETATM   27  C3  UNL     1      25.287  -0.304  54.512  1.00  0.00    -0.033 A 
HETATM   28  C4  UNL     1      24.662  -1.005  55.517  1.00  0.00     0.011 A 
HETATM   29  C5  UNL     1      23.340  -1.321  55.295  1.00  0.00     0.001 A 
HETATM   30  C6  UNL     1      22.737  -0.930  54.119  1.00  0.00     0.001 A 
HETATM   31  C7  UNL     1      23.391  -0.219  53.112  1.00  0.00     0.008 A 
BRANCH  27  32
HETATM   32  C2  UNL     1      26.651   0.069  54.758  1.00  0.00    -0.015 C 
HETATM   33  C1  UNL     1      27.934   0.100  54.654  1.00  0.00     0.032 C 
ENDBRANCH  27  32
ENDBRANCH  25  26
ENDBRANCH   1  25
TORSDOF 6
ENDMDL
MODEL 9
REMARK VINA RESULT:      -8.2      4.108      8.468
REMARK  6 active torsions:
REMARK  status: ('A' for Active; 'I' for Inactive)
REMARK    1  A    between atoms: C2_2  and  C3_3 
REMARK    2  A    between atoms: C8_8  and  C9_9 
REMARK    3  A    between atoms: C9_9  and  C10_10 
REMARK    4  A    between atoms: C12_12  and  N1_14 
REMARK    5  A    between atoms: N1_14  and  C14_15 
REMARK    6  A    between atoms: C17_18  and  N2_19 
ROOT
HETATM    1  C10 UNL     1      23.717   2.948  52.244  1.00  0.00     0.015 A 
HETATM    2  C11 UNL     1      23.950   2.492  50.992  1.00  0.00     0.038 A 
HETATM    3  C12 UNL     1      22.973   2.919  49.928  1.00  0.00     0.128 A 
HETATM    4  C13 UNL     1      22.181   1.714  49.461  1.00  0.00     0.054 C 
HETATM    5  C24 UNL     1      22.067   3.764  50.735  1.00  0.00     0.254 A 
HETATM    6  O1  UNL     1      21.069   4.383  50.311  1.00  0.00    -0.270 OA
HETATM    7  N4  UNL     1      22.553   3.729  52.066  1.00  0.00    -0.328 N 
HETATM    8  H29 UNL     1      22.077   4.247  52.828  1.00  0.00     0.168 HD
ENDROOT
BRANCH   3   9
HETATM    9  N1  UNL     1      23.580   3.613  48.841  1.00  0.00    -0.369 N 
HETATM   10  H14 UNL     1      23.471   3.150  47.910  1.00  0.00     0.161 HD
BRANCH   9  11
HETATM   11  C14 UNL     1      24.304   4.828  48.824  1.00  0.00     0.029 A 
HETATM   12  C15 UNL     1      23.743   6.030  48.387  1.00  0.00     0.031 A 
HETATM   13  C16 UNL     1      24.528   7.164  48.394  1.00  0.00     0.031 A 
HETATM   14  C17 UNL     1      25.837   7.187  48.806  1.00  0.00     0.031 A 
HETATM   15  C22 UNL     1      26.363   6.009  49.226  1.00  0.00     0.031 A 
HETATM   16  C23 UNL     1      25.619   4.855  49.237  1.00  0.00     0.031 A 
BRANCH  14  17
HETATM   17  N2  UNL     1      26.581   8.406  48.786  1.00  0.00    -0.368 N 
HETATM   18  C18 UNL     1      26.855   9.199  47.632  1.00  0.00     0.130 C 
HETATM   19  C19 UNL     1      28.354   9.306  47.346  1.00  0.00     0.070 C 
HETATM   20  P1  UNL     1      29.004  10.309  48.802  1.00  0.00    -0.047 P 
HETATM   21  C20 UNL     1      30.614   9.663  49.417  1.00  0.00     0.061 C 
HETATM   22  N3  UNL     1      27.687  10.168  50.040  1.00  0.00    -0.283 NA
HETATM   23  C21 UNL     1      27.095   8.857  50.060  1.00  0.00     0.217 C 
HETATM   24  H24 UNL     1      26.962  10.863  49.804  1.00  0.00     0.128 HD
ENDBRANCH  14  17
ENDBRANCH   9  11
ENDBRANCH   3   9
BRANCH   1  25
HETATM   25  C9  UNL     1      24.588   2.614  53.396  1.00  0.00     0.096 C 
BRANCH  25  26
HETATM   26  C8  UNL     1      25.417   1.421  53.133  1.00  0.00    -0.043 A 
HETATM   27  C3  UNL     1      25.052   0.102  53.234  1.00  0.00    -0.033 A 
HETATM   28  C4  UNL     1      25.865  -0.986  53.020  1.00  0.00     0.011 A 
HETATM   29  C5  UNL     1      27.167  -0.703  52.671  1.00  0.00     0.001 A 
HETATM   30  C6  UNL     1      27.569   0.610  52.559  1.00  0.00     0.001 A 
HETATM   31  C7  UNL     1      26.726   1.701  52.781  1.00  0.00     0.008 A 
BRANCH  27  32
HETATM   32  C2  UNL     1      23.682  -0.186  53.551  1.00  0.00    -0.015 C 
HETATM   33  C1  UNL     1      22.659  -0.665  54.170  1.00  0.00     0.032 C 
ENDBRANCH  27  32
ENDBRANCH  25  26
ENDBRANCH   1  25
TORSDOF 6
ENDMDL
