MODEL 1
REMARK VINA RESULT:      -8.9      0.000      0.000
REMARK  7 active torsions:
REMARK  status: ('A' for Active; 'I' for Inactive)
REMARK    1  A    between atoms: O1_1  and  C1_2 
REMARK    2  A    between atoms: C1_2  and  C2_3 
REMARK    3  A    between atoms: N1_6  and  C5_7 
REMARK    4  A    between atoms: C8_11  and  C9_12 
REMARK    5  A    between atoms: C9_12  and  N3_13 
REMARK    6  A    between atoms: C19_25  and  C20_26 
REMARK    7  A    between atoms: C20_26  and  O2_27 
ROOT
HETATM    1  C5  UNL     1      22.648   1.670  52.464  1.00  0.00     0.728 A 
HETATM    2  N2  UNL     1      21.465   0.998  52.430  1.00  0.00    -0.075 NA
HETATM    3  C6  UNL     1      21.415  -0.280  52.872  1.00  0.00     0.138 A 
HETATM    4  C7  UNL     1      22.531  -0.927  53.360  1.00  0.00     0.049 A 
HETATM    5  C8  UNL     1      23.721  -0.249  53.393  1.00  0.00     0.073 A 
HETATM    6  N5  UNL     1      23.691   1.017  52.936  1.00  0.00    -0.066 NA
ENDROOT
BRANCH   1   7
HETATM    7  N1  UNL     1      22.785   3.027  52.019  1.00  0.00    -0.186 N 
HETATM    8  C4  UNL     1      21.714   3.974  52.307  1.00  0.00     0.175 A 
HETATM    9  C3  UNL     1      22.016   5.313  51.775  1.00  0.00     0.004 A 
HETATM   10  C2  UNL     1      23.089   5.693  51.109  1.00  0.00    -0.027 A 
HETATM   11  C19 UNL     1      24.117   4.701  50.856  1.00  0.00    -0.011 A 
HETATM   12  C18 UNL     1      23.906   3.487  51.308  1.00  0.00     0.119 A 
BRANCH  10  13
HETATM   13  C1  UNL     1      23.202   7.093  50.659  1.00  0.00     0.203 C 
BRANCH  13  14
HETATM   14  O1  UNL     1      23.974   7.860  51.522  1.00  0.00    -0.396 OA
HETATM   15  H1  UNL     1      24.354   7.287  52.245  1.00  0.00     0.209 HD
ENDBRANCH  13  14
ENDBRANCH  10  13
BRANCH  11  16
HETATM   16  C20 UNL     1      25.358   5.013  50.137  1.00  0.00     0.205 C 
BRANCH  16  17
HETATM   17  O2  UNL     1      26.432   4.199  50.471  1.00  0.00    -0.396 OA
HETATM   18  H23 UNL     1      26.359   3.882  51.408  1.00  0.00     0.209 HD
ENDBRANCH  16  17
ENDBRANCH  11  16
ENDBRANCH   1   7
BRANCH   5  19
HETATM   19  C9  UNL     1      25.034  -0.744  53.876  1.00  0.00     0.187 C 
BRANCH  19  20
HETATM   20  N3  UNL     1      26.095  -0.765  52.932  1.00  0.00    -0.359 N 
HETATM   21  C10 UNL     1      27.040  -1.797  52.773  1.00  0.00     0.090 C 
HETATM   22  C11 UNL     1      28.254  -2.177  52.918  1.00  0.00     0.014 C 
HETATM   23  C12 UNL     1      29.354  -1.425  53.458  1.00  0.00     0.002 C 
HETATM   24  C13 UNL     1      29.233  -0.149  53.928  1.00  0.00     0.003 C 
HETATM   25  C14 UNL     1      29.269   1.250  54.480  1.00  0.00     0.051 C 
HETATM   26  C15 UNL     1      28.822   2.267  53.497  1.00  0.00     0.089 C 
HETATM   27  N4  UNL     1      27.935   2.396  52.574  1.00  0.00    -0.276 NA
HETATM   28  C16 UNL     1      27.022   1.400  52.240  1.00  0.00     0.133 C 
HETATM   29  C17 UNL     1      26.194   0.381  52.043  1.00  0.00     0.110 C 
ENDBRANCH  19  20
ENDBRANCH   5  19
TORSDOF 7
ENDMDL
MODEL 2
REMARK VINA RESULT:      -8.6      2.842      7.075
REMARK  7 active torsions:
REMARK  status: ('A' for Active; 'I' for Inactive)
REMARK    1  A    between atoms: O1_1  and  C1_2 
REMARK    2  A    between atoms: C1_2  and  C2_3 
REMARK    3  A    between atoms: N1_6  and  C5_7 
REMARK    4  A    between atoms: C8_11  and  C9_12 
REMARK    5  A    between atoms: C9_12  and  N3_13 
REMARK    6  A    between atoms: C19_25  and  C20_26 
REMARK    7  A    between atoms: C20_26  and  O2_27 
ROOT
HETATM    1  C5  UNL     1      24.608   1.259  52.586  1.00  0.00     0.728 A 
HETATM    2  N2  UNL     1      23.358   0.880  52.968  1.00  0.00    -0.075 NA
HETATM    3  C6  UNL     1      22.317   1.718  52.759  1.00  0.00     0.138 A 
HETATM    4  C7  UNL     1      22.483   2.952  52.167  1.00  0.00     0.049 A 
HETATM    5  C8  UNL     1      23.742   3.333  51.782  1.00  0.00     0.073 A 
HETATM    6  N5  UNL     1      24.725   2.445  52.024  1.00  0.00    -0.066 NA
ENDROOT
BRANCH   1   7
HETATM    7  N1  UNL     1      25.763   0.427  52.767  1.00  0.00    -0.186 N 
HETATM    8  C4  UNL     1      25.632  -1.013  52.575  1.00  0.00     0.175 A 
HETATM    9  C3  UNL     1      26.907  -1.709  52.807  1.00  0.00     0.004 A 
HETATM   10  C2  UNL     1      28.065  -1.179  53.149  1.00  0.00    -0.027 A 
HETATM   11  C19 UNL     1      28.128   0.260  53.325  1.00  0.00    -0.011 A 
HETATM   12  C18 UNL     1      27.021   0.938  53.130  1.00  0.00     0.119 A 
BRANCH  10  13
HETATM   13  C1  UNL     1      29.236  -2.058  53.334  1.00  0.00     0.203 C 
BRANCH  13  14
HETATM   14  O1  UNL     1      28.872  -3.389  53.487  1.00  0.00    -0.396 OA
HETATM   15  H1  UNL     1      28.344  -3.694  52.699  1.00  0.00     0.209 HD
ENDBRANCH  13  14
ENDBRANCH  10  13
BRANCH  11  16
HETATM   16  C20 UNL     1      29.364   0.959  53.692  1.00  0.00     0.205 C 
BRANCH  16  17
HETATM   17  O2  UNL     1      29.404   2.291  53.304  1.00  0.00    -0.396 OA
HETATM   18  H23 UNL     1      29.153   2.390  52.349  1.00  0.00     0.209 HD
ENDBRANCH  16  17
ENDBRANCH  11  16
ENDBRANCH   1   7
BRANCH   5  19
HETATM   19  C9  UNL     1      24.146   4.603  51.130  1.00  0.00     0.187 C 
BRANCH  19  20
HETATM   20  N3  UNL     1      24.641   4.509  49.802  1.00  0.00    -0.359 N 
HETATM   21  C10 UNL     1      25.953   4.157  49.432  1.00  0.00     0.090 C 
HETATM   22  C11 UNL     1      27.076   4.540  48.951  1.00  0.00     0.014 C 
HETATM   23  C12 UNL     1      27.442   5.859  48.511  1.00  0.00     0.002 C 
HETATM   24  C13 UNL     1      26.599   6.932  48.573  1.00  0.00     0.003 C 
HETATM   25  C14 UNL     1      25.801   8.207  48.571  1.00  0.00     0.051 C 
HETATM   26  C15 UNL     1      24.547   8.098  47.786  1.00  0.00     0.089 C 
HETATM   27  N4  UNL     1      23.622   7.234  47.557  1.00  0.00    -0.276 NA
HETATM   28  C16 UNL     1      23.603   5.960  48.115  1.00  0.00     0.133 C 
HETATM   29  C17 UNL     1      23.693   4.789  48.736  1.00  0.00     0.110 C 
ENDBRANCH  19  20
ENDBRANCH   5  19
TORSDOF 7
ENDMDL
MODEL 3
REMARK VINA RESULT:      -8.5      2.447      6.157
REMARK  7 active torsions:
REMARK  status: ('A' for Active; 'I' for Inactive)
REMARK    1  A    between atoms: O1_1  and  C1_2 
REMARK    2  A    between atoms: C1_2  and  C2_3 
REMARK    3  A    between atoms: N1_6  and  C5_7 
REMARK    4  A    between atoms: C8_11  and  C9_12 
REMARK    5  A    between atoms: C9_12  and  N3_13 
REMARK    6  A    between atoms: C19_25  and  C20_26 
REMARK    7  A    between atoms: C20_26  and  O2_27 
ROOT
HETATM    1  C5  UNL     1      23.527   0.724  52.959  1.00  0.00     0.728 A 
HETATM    2  N2  UNL     1      22.898  -0.482  52.953  1.00  0.00    -0.075 NA
HETATM    3  C6  UNL     1      21.562  -0.533  52.745  1.00  0.00     0.138 A 
HETATM    4  C7  UNL     1      20.813   0.606  52.535  1.00  0.00     0.049 A 
HETATM    5  C8  UNL     1      21.448   1.820  52.541  1.00  0.00     0.073 A 
HETATM    6  N5  UNL     1      22.777   1.789  52.756  1.00  0.00    -0.066 NA
ENDROOT
BRANCH   1   7
HETATM    7  N1  UNL     1      24.940   0.864  53.167  1.00  0.00    -0.186 N 
HETATM    8  C4  UNL     1      25.470   2.169  53.548  1.00  0.00     0.175 A 
HETATM    9  C3  UNL     1      26.932   2.133  53.713  1.00  0.00     0.004 A 
HETATM   10  C2  UNL     1      27.737   1.101  53.553  1.00  0.00    -0.027 A 
HETATM   11  C19 UNL     1      27.145  -0.168  53.172  1.00  0.00    -0.011 A 
HETATM   12  C18 UNL     1      25.843  -0.201  53.012  1.00  0.00     0.119 A 
BRANCH  10  13
HETATM   13  C1  UNL     1      29.186   1.274  53.768  1.00  0.00     0.203 C 
BRANCH  13  14
HETATM   14  O1  UNL     1      29.477   2.451  54.446  1.00  0.00    -0.396 OA
HETATM   15  H1  UNL     1      30.443   2.676  54.345  1.00  0.00     0.209 HD
ENDBRANCH  13  14
ENDBRANCH  10  13
BRANCH  11  16
HETATM   16  C20 UNL     1      27.941  -1.386  52.979  1.00  0.00     0.205 C 
BRANCH  16  17
HETATM   17  O2  UNL     1      27.199  -2.559  52.980  1.00  0.00    -0.396 OA
HETATM   18  H23 UNL     1      26.287  -2.403  52.622  1.00  0.00     0.209 HD
ENDBRANCH  16  17
ENDBRANCH  11  16
ENDBRANCH   1   7
BRANCH   5  19
HETATM   19  C9  UNL     1      20.845   3.160  52.336  1.00  0.00     0.187 C 
BRANCH  19  20
HETATM   20  N3  UNL     1      21.086   3.784  51.083  1.00  0.00    -0.359 N 
HETATM   21  C10 UNL     1      20.848   3.215  49.817  1.00  0.00     0.090 C 
HETATM   22  C11 UNL     1      21.349   2.726  48.745  1.00  0.00     0.014 C 
HETATM   23  C12 UNL     1      22.740   2.561  48.418  1.00  0.00     0.002 C 
HETATM   24  C13 UNL     1      23.756   2.906  49.262  1.00  0.00     0.003 C 
HETATM   25  C14 UNL     1      24.984   3.231  50.068  1.00  0.00     0.051 C 
HETATM   26  C15 UNL     1      25.058   4.662  50.450  1.00  0.00     0.089 C 
HETATM   27  N4  UNL     1      24.267   5.605  50.826  1.00  0.00    -0.276 NA
HETATM   28  C16 UNL     1      22.895   5.440  50.985  1.00  0.00     0.133 C 
HETATM   29  C17 UNL     1      21.609   5.140  51.124  1.00  0.00     0.110 C 
ENDBRANCH  19  20
ENDBRANCH   5  19
TORSDOF 7
ENDMDL
MODEL 4
REMARK VINA RESULT:      -8.5      2.977      7.381
REMARK  7 active torsions:
REMARK  status: ('A' for Active; 'I' for Inactive)
REMARK    1  A    between atoms: O1_1  and  C1_2 
REMARK    2  A    between atoms: C1_2  and  C2_3 
REMARK    3  A    between atoms: N1_6  and  C5_7 
REMARK    4  A    between atoms: C8_11  and  C9_12 
REMARK    5  A    between atoms: C9_12  and  N3_13 
REMARK    6  A    between atoms: C19_25  and  C20_26 
REMARK    7  A    between atoms: C20_26  and  O2_27 
ROOT
HETATM    1  C5  UNL     1      24.760   1.467  52.656  1.00  0.00     0.728 A 
HETATM    2  N2  UNL     1      24.776   2.791  52.968  1.00  0.00    -0.075 NA
HETATM    3  C6  UNL     1      23.663   3.534  52.771  1.00  0.00     0.138 A 
HETATM    4  C7  UNL     1      22.504   2.987  52.261  1.00  0.00     0.049 A 
HETATM    5  C8  UNL     1      22.488   1.654  51.947  1.00  0.00     0.073 A 
HETATM    6  N5  UNL     1      23.634   0.983  52.171  1.00  0.00    -0.066 NA
ENDROOT
BRANCH   1   7
HETATM    7  N1  UNL     1      25.896   0.610  52.839  1.00  0.00    -0.186 N 
HETATM    8  C4  UNL     1      25.775  -0.803  52.497  1.00  0.00     0.175 A 
HETATM    9  C3  UNL     1      27.027  -1.533  52.753  1.00  0.00     0.004 A 
HETATM   10  C2  UNL     1      28.158  -1.051  53.232  1.00  0.00    -0.027 A 
HETATM   11  C19 UNL     1      28.211   0.363  53.553  1.00  0.00    -0.011 A 
HETATM   12  C18 UNL     1      27.124   1.068  53.344  1.00  0.00     0.119 A 
BRANCH  10  13
HETATM   13  C1  UNL     1      29.308  -1.956  53.416  1.00  0.00     0.203 C 
BRANCH  13  14
HETATM   14  O1  UNL     1      28.921  -3.288  53.477  1.00  0.00    -0.396 OA
HETATM   15  H1  UNL     1      27.964  -3.381  53.213  1.00  0.00     0.209 HD
ENDBRANCH  13  14
ENDBRANCH  10  13
BRANCH  11  16
HETATM   16  C20 UNL     1      29.418   1.010  54.079  1.00  0.00     0.205 C 
BRANCH  16  17
HETATM   17  O2  UNL     1      29.269   2.363  54.350  1.00  0.00    -0.396 OA
HETATM   18  H23 UNL     1      29.993   2.892  53.923  1.00  0.00     0.209 HD
ENDBRANCH  16  17
ENDBRANCH  11  16
ENDBRANCH   1   7
BRANCH   5  19
HETATM   19  C9  UNL     1      21.360   0.865  51.395  1.00  0.00     0.187 C 
BRANCH  19  20
HETATM   20  N3  UNL     1      20.846   1.279  50.137  1.00  0.00    -0.359 N 
HETATM   21  C10 UNL     1      21.483   1.124  48.891  1.00  0.00     0.090 C 
HETATM   22  C11 UNL     1      22.082   1.687  47.910  1.00  0.00     0.014 C 
HETATM   23  C12 UNL     1      22.374   3.085  47.742  1.00  0.00     0.002 C 
HETATM   24  C13 UNL     1      22.048   4.037  48.665  1.00  0.00     0.003 C 
HETATM   25  C14 UNL     1      21.760   5.201  49.573  1.00  0.00     0.051 C 
HETATM   26  C15 UNL     1      20.315   5.353  49.871  1.00  0.00     0.089 C 
HETATM   27  N4  UNL     1      19.292   4.609  50.102  1.00  0.00    -0.276 NA
HETATM   28  C16 UNL     1      19.341   3.219  50.126  1.00  0.00     0.133 C 
HETATM   29  C17 UNL     1      19.533   1.905  50.148  1.00  0.00     0.110 C 
ENDBRANCH  19  20
ENDBRANCH   5  19
TORSDOF 7
ENDMDL
MODEL 5
REMARK VINA RESULT:      -8.4      2.108      5.973
REMARK  7 active torsions:
REMARK  status: ('A' for Active; 'I' for Inactive)
REMARK    1  A    between atoms: O1_1  and  C1_2 
REMARK    2  A    between atoms: C1_2  and  C2_3 
REMARK    3  A    between atoms: N1_6  and  C5_7 
REMARK    4  A    between atoms: C8_11  and  C9_12 
REMARK    5  A    between atoms: C9_12  and  N3_13 
REMARK    6  A    between atoms: C19_25  and  C20_26 
REMARK    7  A    between atoms: C20_26  and  O2_27 
ROOT
HETATM    1  C5  UNL     1      23.173  -0.180  53.739  1.00  0.00     0.728 A 
HETATM    2  N2  UNL     1      22.730  -1.408  54.123  1.00  0.00    -0.075 NA
HETATM    3  C6  UNL     1      21.399  -1.640  54.196  1.00  0.00     0.138 A 
HETATM    4  C7  UNL     1      20.471  -0.666  53.891  1.00  0.00     0.049 A 
HETATM    5  C8  UNL     1      20.919   0.570  53.505  1.00  0.00     0.073 A 
HETATM    6  N5  UNL     1      22.256   0.723  53.457  1.00  0.00    -0.066 NA
ENDROOT
BRANCH   1   7
HETATM    7  N1  UNL     1      24.566   0.145  53.631  1.00  0.00    -0.186 N 
HETATM    8  C4  UNL     1      25.468  -0.253  54.705  1.00  0.00     0.175 A 
HETATM    9  C3  UNL     1      26.853   0.166  54.435  1.00  0.00     0.004 A 
HETATM   10  C2  UNL     1      27.306   0.823  53.385  1.00  0.00    -0.027 A 
HETATM   11  C19 UNL     1      26.356   1.190  52.351  1.00  0.00    -0.011 A 
HETATM   12  C18 UNL     1      25.104   0.841  52.535  1.00  0.00     0.119 A 
BRANCH  10  13
HETATM   13  C1  UNL     1      28.743   1.150  53.301  1.00  0.00     0.203 C 
BRANCH  13  14
HETATM   14  O1  UNL     1      29.011   2.439  53.742  1.00  0.00    -0.396 OA
HETATM   15  H1  UNL     1      29.982   2.538  53.946  1.00  0.00     0.209 HD
ENDBRANCH  13  14
ENDBRANCH  10  13
BRANCH  11  16
HETATM   16  C20 UNL     1      26.748   1.910  51.135  1.00  0.00     0.205 C 
BRANCH  16  17
HETATM   17  O2  UNL     1      27.143   3.223  51.350  1.00  0.00    -0.396 OA
HETATM   18  H23 UNL     1      26.525   3.857  50.901  1.00  0.00     0.209 HD
ENDBRANCH  16  17
ENDBRANCH  11  16
ENDBRANCH   1   7
BRANCH   5  19
HETATM   19  C9  UNL     1      20.106   1.753  53.131  1.00  0.00     0.187 C 
BRANCH  19  20
HETATM   20  N3  UNL     1      20.116   2.129  51.762  1.00  0.00    -0.359 N 
HETATM   21  C10 UNL     1      20.492   1.307  50.681  1.00  0.00     0.090 C 
HETATM   22  C11 UNL     1      21.356   1.052  49.772  1.00  0.00     0.014 C 
HETATM   23  C12 UNL     1      22.585   1.748  49.504  1.00  0.00     0.002 C 
HETATM   24  C13 UNL     1      23.019   2.815  50.237  1.00  0.00     0.003 C 
HETATM   25  C14 UNL     1      23.634   3.995  50.939  1.00  0.00     0.051 C 
HETATM   26  C15 UNL     1      22.750   5.186  50.944  1.00  0.00     0.089 C 
HETATM   27  N4  UNL     1      21.499   5.461  51.063  1.00  0.00    -0.276 NA
HETATM   28  C16 UNL     1      20.514   4.497  51.253  1.00  0.00     0.133 C 
HETATM   29  C17 UNL     1      19.682   3.483  51.458  1.00  0.00     0.110 C 
ENDBRANCH  19  20
ENDBRANCH   5  19
TORSDOF 7
ENDMDL
MODEL 6
REMARK VINA RESULT:      -8.3      2.345      6.254
REMARK  7 active torsions:
REMARK  status: ('A' for Active; 'I' for Inactive)
REMARK    1  A    between atoms: O1_1  and  C1_2 
REMARK    2  A    between atoms: C1_2  and  C2_3 
REMARK    3  A    between atoms: N1_6  and  C5_7 
REMARK    4  A    between atoms: C8_11  and  C9_12 
REMARK    5  A    between atoms: C9_12  and  N3_13 
REMARK    6  A    between atoms: C19_25  and  C20_26 
REMARK    7  A    between atoms: C20_26  and  O2_27 
ROOT
HETATM    1  C5  UNL     1      22.758   1.391  52.847  1.00  0.00     0.728 A 
HETATM    2  N2  UNL     1      21.649   0.613  52.974  1.00  0.00    -0.075 NA
HETATM    3  C6  UNL     1      20.427   1.164  52.794  1.00  0.00     0.138 A 
HETATM    4  C7  UNL     1      20.268   2.498  52.482  1.00  0.00     0.049 A 
HETATM    5  C8  UNL     1      21.386   3.281  52.354  1.00  0.00     0.073 A 
HETATM    6  N5  UNL     1      22.565   2.660  52.549  1.00  0.00    -0.066 NA
ENDROOT
BRANCH   1   7
HETATM    7  N1  UNL     1      24.089   0.883  53.017  1.00  0.00    -0.186 N 
HETATM    8  C4  UNL     1      24.269  -0.531  53.326  1.00  0.00     0.175 A 
HETATM    9  C3  UNL     1      25.692  -0.877  53.473  1.00  0.00     0.004 A 
HETATM   10  C2  UNL     1      26.733  -0.075  53.360  1.00  0.00    -0.027 A 
HETATM   11  C19 UNL     1      26.484   1.320  53.051  1.00  0.00    -0.011 A 
HETATM   12  C18 UNL     1      25.233   1.690  52.906  1.00  0.00     0.119 A 
BRANCH  10  13
HETATM   13  C1  UNL     1      28.091  -0.623  53.546  1.00  0.00     0.203 C 
BRANCH  13  14
HETATM   14  O1  UNL     1      28.602  -0.338  54.805  1.00  0.00    -0.396 OA
HETATM   15  H1  UNL     1      28.423  -1.094  55.429  1.00  0.00     0.209 HD
ENDBRANCH  13  14
ENDBRANCH  10  13
BRANCH  11  16
HETATM   16  C20 UNL     1      27.565   2.300  52.890  1.00  0.00     0.205 C 
BRANCH  16  17
HETATM   17  O2  UNL     1      28.079   2.786  54.084  1.00  0.00    -0.396 OA
HETATM   18  H23 UNL     1      29.021   2.500  54.207  1.00  0.00     0.209 HD
ENDBRANCH  16  17
ENDBRANCH  11  16
ENDBRANCH   1   7
BRANCH   5  19
HETATM   19  C9  UNL     1      21.449   4.726  52.024  1.00  0.00     0.187 C 
BRANCH  19  20
HETATM   20  N3  UNL     1      21.787   5.061  50.686  1.00  0.00    -0.359 N 
HETATM   21  C10 UNL     1      21.342   4.394  49.528  1.00  0.00     0.090 C 
HETATM   22  C11 UNL     1      21.638   3.629  48.545  1.00  0.00     0.014 C 
HETATM   23  C12 UNL     1      22.913   3.040  48.241  1.00  0.00     0.002 C 
HETATM   24  C13 UNL     1      24.026   3.215  49.014  1.00  0.00     0.003 C 
HETATM   25  C14 UNL     1      25.334   3.307  49.750  1.00  0.00     0.051 C 
HETATM   26  C15 UNL     1      25.812   4.704  49.898  1.00  0.00     0.089 C 
HETATM   27  N4  UNL     1      25.326   5.874  50.123  1.00  0.00    -0.276 NA
HETATM   28  C16 UNL     1      23.970   6.120  50.314  1.00  0.00     0.133 C 
HETATM   29  C17 UNL     1      22.660   6.210  50.507  1.00  0.00     0.110 C 
ENDBRANCH  19  20
ENDBRANCH   5  19
TORSDOF 7
ENDMDL
MODEL 7
REMARK VINA RESULT:      -8.1      2.289      5.742
REMARK  7 active torsions:
REMARK  status: ('A' for Active; 'I' for Inactive)
REMARK    1  A    between atoms: O1_1  and  C1_2 
REMARK    2  A    between atoms: C1_2  and  C2_3 
REMARK    3  A    between atoms: N1_6  and  C5_7 
REMARK    4  A    between atoms: C8_11  and  C9_12 
REMARK    5  A    between atoms: C9_12  and  N3_13 
REMARK    6  A    between atoms: C19_25  and  C20_26 
REMARK    7  A    between atoms: C20_26  and  O2_27 
ROOT
HETATM    1  C5  UNL     1      24.939   1.779  51.826  1.00  0.00     0.728 A 
HETATM    2  N2  UNL     1      25.815   0.830  52.253  1.00  0.00    -0.075 NA
HETATM    3  C6  UNL     1      25.361  -0.210  52.989  1.00  0.00     0.138 A 
HETATM    4  C7  UNL     1      24.029  -0.341  53.321  1.00  0.00     0.049 A 
HETATM    5  C8  UNL     1      23.147   0.615  52.891  1.00  0.00     0.073 A 
HETATM    6  N5  UNL     1      23.675   1.619  52.165  1.00  0.00    -0.066 NA
ENDROOT
BRANCH   1   7
HETATM    7  N1  UNL     1      25.338   2.910  51.039  1.00  0.00    -0.186 N 
HETATM    8  C4  UNL     1      26.436   2.756  50.091  1.00  0.00     0.175 A 
HETATM    9  C3  UNL     1      26.716   4.012  49.376  1.00  0.00     0.004 A 
HETATM   10  C2  UNL     1      26.105   5.172  49.515  1.00  0.00    -0.027 A 
HETATM   11  C19 UNL     1      25.021   5.258  50.476  1.00  0.00    -0.011 A 
HETATM   12  C18 UNL     1      24.723   4.169  51.144  1.00  0.00     0.119 A 
BRANCH  10  13
HETATM   13  C1  UNL     1      26.540   6.321  48.697  1.00  0.00     0.203 C 
BRANCH  13  14
HETATM   14  O1  UNL     1      27.436   7.136  49.375  1.00  0.00    -0.396 OA
HETATM   15  H1  UNL     1      27.359   6.990  50.358  1.00  0.00     0.209 HD
ENDBRANCH  13  14
ENDBRANCH  10  13
BRANCH  11  16
HETATM   16  C20 UNL     1      24.263   6.493  50.705  1.00  0.00     0.205 C 
BRANCH  16  17
HETATM   17  O2  UNL     1      24.398   7.018  51.982  1.00  0.00    -0.396 OA
HETATM   18  H23 UNL     1      25.080   7.739  51.999  1.00  0.00     0.209 HD
ENDBRANCH  16  17
ENDBRANCH  11  16
ENDBRANCH   1   7
BRANCH   5  19
HETATM   19  C9  UNL     1      21.683   0.672  53.127  1.00  0.00     0.187 C 
BRANCH  19  20
HETATM   20  N3  UNL     1      20.853   0.743  51.977  1.00  0.00    -0.359 N 
HETATM   21  C10 UNL     1      21.203   0.329  50.677  1.00  0.00     0.090 C 
HETATM   22  C11 UNL     1      21.496   0.674  49.479  1.00  0.00     0.014 C 
HETATM   23  C12 UNL     1      21.581   2.005  48.942  1.00  0.00     0.002 C 
HETATM   24  C13 UNL     1      21.368   3.130  49.685  1.00  0.00     0.003 C 
HETATM   25  C14 UNL     1      21.165   4.460  50.359  1.00  0.00     0.051 C 
HETATM   26  C15 UNL     1      19.818   4.597  50.965  1.00  0.00     0.089 C 
HETATM   27  N4  UNL     1      18.964   3.872  51.599  1.00  0.00    -0.276 NA
HETATM   28  C16 UNL     1      19.175   2.534  51.915  1.00  0.00     0.133 C 
HETATM   29  C17 UNL     1      19.515   1.277  52.175  1.00  0.00     0.110 C 
ENDBRANCH  19  20
ENDBRANCH   5  19
TORSDOF 7
ENDMDL
MODEL 8
REMARK VINA RESULT:      -8.0      3.849      6.629
REMARK  7 active torsions:
REMARK  status: ('A' for Active; 'I' for Inactive)
REMARK    1  A    between atoms: O1_1  and  C1_2 
REMARK    2  A    between atoms: C1_2  and  C2_3 
REMARK    3  A    between atoms: N1_6  and  C5_7 
REMARK    4  A    between atoms: C8_11  and  C9_12 
REMARK    5  A    between atoms: C9_12  and  N3_13 
REMARK    6  A    between atoms: C19_25  and  C20_26 
REMARK    7  A    between atoms: C20_26  and  O2_27 
ROOT
HETATM    1  C5  UNL     1      20.988   1.571  49.658  1.00  0.00     0.728 A 
HETATM    2  N2  UNL     1      21.478   1.003  48.522  1.00  0.00    -0.075 NA
HETATM    3  C6  UNL     1      22.256   1.737  47.694  1.00  0.00     0.138 A 
HETATM    4  C7  UNL     1      22.573   3.051  47.967  1.00  0.00     0.049 A 
HETATM    5  C8  UNL     1      22.079   3.622  49.111  1.00  0.00     0.073 A 
HETATM    6  N5  UNL     1      21.313   2.828  49.882  1.00  0.00    -0.066 NA
ENDROOT
BRANCH   1   7
HETATM    7  N1  UNL     1      20.161   0.860  50.590  1.00  0.00    -0.186 N 
HETATM    8  C4  UNL     1      18.757   0.641  50.261  1.00  0.00     0.175 A 
HETATM    9  C3  UNL     1      18.058  -0.095  51.327  1.00  0.00     0.004 A 
HETATM   10  C2  UNL     1      18.559  -0.534  52.465  1.00  0.00    -0.027 A 
HETATM   11  C19 UNL     1      19.963  -0.283  52.731  1.00  0.00    -0.011 A 
HETATM   12  C18 UNL     1      20.641   0.368  51.815  1.00  0.00     0.119 A 
BRANCH  10  13
HETATM   13  C1  UNL     1      17.685  -1.257  53.408  1.00  0.00     0.203 C 
BRANCH  13  14
HETATM   14  O1  UNL     1      16.388  -0.761  53.404  1.00  0.00    -0.396 OA
HETATM   15  H1  UNL     1      15.736  -1.500  53.252  1.00  0.00     0.209 HD
ENDBRANCH  13  14
ENDBRANCH  10  13
BRANCH  11  16
HETATM   16  C20 UNL     1      20.630  -0.736  53.957  1.00  0.00     0.205 C 
BRANCH  16  17
HETATM   17  O2  UNL     1      20.618   0.191  54.990  1.00  0.00    -0.396 OA
HETATM   18  H23 UNL     1      19.823   0.782  54.927  1.00  0.00     0.209 HD
ENDBRANCH  16  17
ENDBRANCH  11  16
ENDBRANCH   1   7
BRANCH   5  19
HETATM   19  C9  UNL     1      22.293   5.007  49.599  1.00  0.00     0.187 C 
BRANCH  19  20
HETATM   20  N3  UNL     1      23.534   5.276  50.234  1.00  0.00    -0.359 N 
HETATM   21  C10 UNL     1      24.776   5.436  49.590  1.00  0.00     0.090 C 
HETATM   22  C11 UNL     1      25.937   4.950  49.352  1.00  0.00     0.014 C 
HETATM   23  C12 UNL     1      26.484   3.705  49.820  1.00  0.00     0.002 C 
HETATM   24  C13 UNL     1      25.790   2.827  50.603  1.00  0.00     0.003 C 
HETATM   25  C14 UNL     1      25.169   1.761  51.462  1.00  0.00     0.051 C 
HETATM   26  C15 UNL     1      24.729   2.271  52.783  1.00  0.00     0.089 C 
HETATM   27  N4  UNL     1      24.187   3.327  53.281  1.00  0.00    -0.276 NA
HETATM   28  C16 UNL     1      23.826   4.436  52.523  1.00  0.00     0.133 C 
HETATM   29  C17 UNL     1      23.505   5.412  51.682  1.00  0.00     0.110 C 
ENDBRANCH  19  20
ENDBRANCH   5  19
TORSDOF 7
ENDMDL
MODEL 9
REMARK VINA RESULT:      -8.0      3.091      7.448
REMARK  7 active torsions:
REMARK  status: ('A' for Active; 'I' for Inactive)
REMARK    1  A    between atoms: O1_1  and  C1_2 
REMARK    2  A    between atoms: C1_2  and  C2_3 
REMARK    3  A    between atoms: N1_6  and  C5_7 
REMARK    4  A    between atoms: C8_11  and  C9_12 
REMARK    5  A    between atoms: C9_12  and  N3_13 
REMARK    6  A    between atoms: C19_25  and  C20_26 
REMARK    7  A    between atoms: C20_26  and  O2_27 
ROOT
HETATM    1  C5  UNL     1      25.864   3.319  50.726  1.00  0.00     0.728 A 
HETATM    2  N2  UNL     1      26.885   3.264  49.829  1.00  0.00    -0.075 NA
HETATM    3  C6  UNL     1      27.088   4.306  48.989  1.00  0.00     0.138 A 
HETATM    4  C7  UNL     1      26.289   5.429  49.016  1.00  0.00     0.049 A 
HETATM    5  C8  UNL     1      25.261   5.483  49.920  1.00  0.00     0.073 A 
HETATM    6  N5  UNL     1      25.123   4.408  50.720  1.00  0.00    -0.066 NA
ENDROOT
BRANCH   1   7
HETATM    7  N1  UNL     1      25.586   2.261  51.654  1.00  0.00    -0.186 N 
HETATM    8  C4  UNL     1      24.369   2.328  52.455  1.00  0.00     0.175 A 
HETATM    9  C3  UNL     1      24.245   1.169  53.353  1.00  0.00     0.004 A 
HETATM   10  C2  UNL     1      25.081   0.157  53.484  1.00  0.00    -0.027 A 
HETATM   11  C19 UNL     1      26.274   0.151  52.657  1.00  0.00    -0.011 A 
HETATM   12  C18 UNL     1      26.439   1.159  51.833  1.00  0.00     0.119 A 
BRANCH  10  13
HETATM   13  C1  UNL     1      24.773  -0.915  54.449  1.00  0.00     0.203 C 
BRANCH  13  14
HETATM   14  O1  UNL     1      25.564  -0.837  55.588  1.00  0.00    -0.396 OA
HETATM   15  H1  UNL     1      25.015  -1.009  56.402  1.00  0.00     0.209 HD
ENDBRANCH  13  14
ENDBRANCH  10  13
BRANCH  11  16
HETATM   16  C20 UNL     1      27.266  -0.928  52.708  1.00  0.00     0.205 C 
BRANCH  16  17
HETATM   17  O2  UNL     1      28.058  -0.923  53.849  1.00  0.00    -0.396 OA
HETATM   18  H23 UNL     1      29.021  -0.898  53.612  1.00  0.00     0.209 HD
ENDBRANCH  16  17
ENDBRANCH  11  16
ENDBRANCH   1   7
BRANCH   5  19
HETATM   19  C9  UNL     1      24.288   6.585  50.123  1.00  0.00     0.187 C 
BRANCH  19  20
HETATM   20  N3  UNL     1      22.917   6.271  49.925  1.00  0.00    -0.359 N 
HETATM   21  C10 UNL     1      22.005   5.883  50.925  1.00  0.00     0.090 C 
HETATM   22  C11 UNL     1      21.301   4.942  51.435  1.00  0.00     0.014 C 
HETATM   23  C12 UNL     1      21.210   3.575  50.998  1.00  0.00     0.002 C 
HETATM   24  C13 UNL     1      21.914   3.076  49.940  1.00  0.00     0.003 C 
HETATM   25  C14 UNL     1      22.611   2.374  48.807  1.00  0.00     0.051 C 
HETATM   26  C15 UNL     1      22.343   3.001  47.490  1.00  0.00     0.089 C 
HETATM   27  N4  UNL     1      22.198   4.178  46.991  1.00  0.00    -0.276 NA
HETATM   28  C16 UNL     1      22.283   5.347  47.741  1.00  0.00     0.133 C 
HETATM   29  C17 UNL     1      22.417   6.380  48.564  1.00  0.00     0.110 C 
ENDBRANCH  19  20
ENDBRANCH   5  19
TORSDOF 7
ENDMDL
