MODEL 1
REMARK VINA RESULT:      -7.6      0.000      0.000
REMARK  4 active torsions:
REMARK  status: ('A' for Active; 'I' for Inactive)
REMARK    1  A    between atoms: N1_2  and  C2_3 
REMARK    2  A    between atoms: C6_9  and  O2_10 
REMARK    3  A    between atoms: C8_13  and  C9_14 
REMARK    4  A    between atoms: C11_16  and  O3_17 
ROOT
HETATM    1  C2  UNL     1      22.021   2.834  51.332  1.00  0.00     0.386 C 
HETATM    2  O1  UNL     1      22.156   2.291  52.740  1.00  0.00    -0.335 OA
HETATM    3  C3  UNL     1      23.250   1.321  52.807  1.00  0.00     0.128 A 
HETATM    4  C4  UNL     1      24.617   1.252  52.716  1.00  0.00     0.119 A 
HETATM    5  C5  UNL     1      26.107   1.481  52.580  1.00  0.00     0.393 A 
HETATM    6  N2  UNL     1      27.122   2.259  52.283  1.00  0.00     0.247 N 
HETATM    7  C6  UNL     1      28.113   2.108  53.299  1.00  0.00     0.564 A 
HETATM    8  N3  UNL     1      27.266   2.300  52.338  1.00  0.00     0.247 N 
HETATM    9  C8  UNL     1      26.070   1.901  51.953  1.00  0.00     0.389 A 
HETATM   10  C9  UNL     1      25.189   0.863  52.726  1.00  0.00     0.117 A 
HETATM   11  C10 UNL     1      24.130   0.256  52.881  1.00  0.00     0.100 A 
HETATM   12  C11 UNL     1      22.867   0.027  53.003  1.00  0.00     0.068 A 
HETATM   13  C13 UNL     1      25.608   2.726  50.577  1.00  0.00     0.105 C 
HETATM   14  C14 UNL     1      24.169   2.742  50.841  1.00  0.00    -0.015 C 
HETATM   15  C15 UNL     1      23.273   3.668  51.234  1.00  0.00    -0.029 C 
HETATM   16  C16 UNL     1      23.458   5.100  51.522  1.00  0.00     0.048 C 
ENDROOT
BRANCH   1  17
HETATM   17  N1  UNL     1      20.813   3.435  51.071  1.00  0.00     0.112 N 
HETATM   18  C1  UNL     1      19.788   2.968  52.025  1.00  0.00     0.310 C 
HETATM   19  H4  UNL     1      20.917   4.473  51.382  1.00  0.00     0.319 HD
ENDBRANCH   1  17
BRANCH  12  20
HETATM   20  O3  UNL     1      22.447  -1.267  53.201  1.00  0.00    -0.361 OA
HETATM   21  C12 UNL     1      21.357  -1.450  54.120  1.00  0.00     0.209 C 
ENDBRANCH  12  20
BRANCH   7  22
HETATM   22  O2  UNL     1      28.614   1.592  54.452  1.00  0.00    -0.328 OA
HETATM   23  C7  UNL     1      28.685   0.296  54.876  1.00  0.00     0.207 C 
ENDBRANCH   7  22
TORSDOF 4
ENDMDL
MODEL 2
REMARK VINA RESULT:      -7.4      2.313      5.935
REMARK  4 active torsions:
REMARK  status: ('A' for Active; 'I' for Inactive)
REMARK    1  A    between atoms: N1_2  and  C2_3 
REMARK    2  A    between atoms: C6_9  and  O2_10 
REMARK    3  A    between atoms: C8_13  and  C9_14 
REMARK    4  A    between atoms: C11_16  and  O3_17 
ROOT
HETATM    1  C2  UNL     1      26.649   1.955  53.560  1.00  0.00     0.386 C 
HETATM    2  O1  UNL     1      25.453   2.843  53.832  1.00  0.00    -0.335 OA
HETATM    3  C3  UNL     1      24.313   2.423  53.016  1.00  0.00     0.128 A 
HETATM    4  C4  UNL     1      23.429   1.383  52.878  1.00  0.00     0.119 A 
HETATM    5  C5  UNL     1      22.605   0.117  52.968  1.00  0.00     0.393 A 
HETATM    6  N2  UNL     1      22.408  -1.087  53.452  1.00  0.00     0.247 N 
HETATM    7  C6  UNL     1      21.037  -1.197  53.833  1.00  0.00     0.564 A 
HETATM    8  N3  UNL     1      22.292  -1.178  53.513  1.00  0.00     0.247 N 
HETATM    9  C8  UNL     1      23.189  -0.362  52.998  1.00  0.00     0.389 A 
HETATM   10  C9  UNL     1      22.894   1.106  52.540  1.00  0.00     0.117 A 
HETATM   11  C10 UNL     1      23.276   2.201  52.129  1.00  0.00     0.100 A 
HETATM   12  C11 UNL     1      23.958   3.291  52.025  1.00  0.00     0.068 A 
HETATM   13  C13 UNL     1      24.690  -1.093  52.991  1.00  0.00     0.105 C 
HETATM   14  C14 UNL     1      25.491   0.118  53.175  1.00  0.00    -0.015 C 
HETATM   15  C15 UNL     1      26.187   0.666  54.190  1.00  0.00    -0.029 C 
HETATM   16  C16 UNL     1      26.417   0.167  55.557  1.00  0.00     0.048 C 
ENDROOT
BRANCH   1  17
HETATM   17  N1  UNL     1      27.851   2.485  53.963  1.00  0.00     0.112 N 
HETATM   18  C1  UNL     1      28.967   1.621  53.527  1.00  0.00     0.310 C 
HETATM   19  H4  UNL     1      28.023   3.360  53.340  1.00  0.00     0.319 HD
ENDBRANCH   1  17
BRANCH  12  20
HETATM   20  O3  UNL     1      23.626   4.187  51.037  1.00  0.00    -0.361 OA
HETATM   21  C12 UNL     1      23.792   5.578  51.356  1.00  0.00     0.209 C 
ENDBRANCH  12  20
BRANCH   7  22
HETATM   22  O2  UNL     1      19.769  -0.733  53.986  1.00  0.00    -0.328 OA
HETATM   23  C7  UNL     1      18.674  -0.893  53.187  1.00  0.00     0.207 C 
ENDBRANCH   7  22
TORSDOF 4
ENDMDL
MODEL 3
REMARK VINA RESULT:      -7.3      1.926      4.901
REMARK  4 active torsions:
REMARK  status: ('A' for Active; 'I' for Inactive)
REMARK    1  A    between atoms: N1_2  and  C2_3 
REMARK    2  A    between atoms: C6_9  and  O2_10 
REMARK    3  A    between atoms: C8_13  and  C9_14 
REMARK    4  A    between atoms: C11_16  and  O3_17 
ROOT
HETATM    1  C2  UNL     1      26.025   3.896  50.354  1.00  0.00     0.386 C 
HETATM    2  O1  UNL     1      26.545   2.528  50.746  1.00  0.00    -0.335 OA
HETATM    3  C3  UNL     1      26.008   2.136  52.051  1.00  0.00     0.128 A 
HETATM    4  C4  UNL     1      24.826   1.789  52.653  1.00  0.00     0.119 A 
HETATM    5  C5  UNL     1      23.404   1.441  53.035  1.00  0.00     0.393 A 
HETATM    6  N2  UNL     1      22.124   1.386  52.749  1.00  0.00     0.247 N 
HETATM    7  C6  UNL     1      21.629   0.111  53.158  1.00  0.00     0.564 A 
HETATM    8  N3  UNL     1      21.999   1.287  52.760  1.00  0.00     0.247 N 
HETATM    9  C8  UNL     1      23.079   2.040  52.706  1.00  0.00     0.389 A 
HETATM   10  C9  UNL     1      24.490   1.606  53.229  1.00  0.00     0.117 A 
HETATM   11  C10 UNL     1      25.697   1.806  53.357  1.00  0.00     0.100 A 
HETATM   12  C11 UNL     1      26.919   2.097  53.065  1.00  0.00     0.068 A 
HETATM   13  C13 UNL     1      22.738   3.475  51.925  1.00  0.00     0.105 C 
HETATM   14  C14 UNL     1      24.056   3.681  51.325  1.00  0.00    -0.015 C 
HETATM   15  C15 UNL     1      24.576   3.576  50.086  1.00  0.00    -0.029 C 
HETATM   16  C16 UNL     1      23.926   3.217  48.814  1.00  0.00     0.048 C 
ENDROOT
BRANCH   1  17
HETATM   17  N1  UNL     1      26.750   4.515  49.365  1.00  0.00     0.112 N 
HETATM   18  C1  UNL     1      26.295   5.908  49.188  1.00  0.00     0.310 C 
HETATM   19  H4  UNL     1      27.744   4.681  49.775  1.00  0.00     0.319 HD
ENDBRANCH   1  17
BRANCH  12  20
HETATM   20  O3  UNL     1      27.862   2.066  54.064  1.00  0.00    -0.361 OA
HETATM   21  C12 UNL     1      29.042   1.287  53.805  1.00  0.00     0.209 C 
ENDBRANCH  12  20
BRANCH   7  22
HETATM   22  O2  UNL     1      21.746  -1.131  53.696  1.00  0.00    -0.328 OA
HETATM   23  C7  UNL     1      22.190  -1.515  54.928  1.00  0.00     0.207 C 
ENDBRANCH   7  22
TORSDOF 4
ENDMDL
MODEL 4
REMARK VINA RESULT:      -7.3      2.234      6.158
REMARK  4 active torsions:
REMARK  status: ('A' for Active; 'I' for Inactive)
REMARK    1  A    between atoms: N1_2  and  C2_3 
REMARK    2  A    between atoms: C6_9  and  O2_10 
REMARK    3  A    between atoms: C8_13  and  C9_14 
REMARK    4  A    between atoms: C11_16  and  O3_17 
ROOT
HETATM    1  C2  UNL     1      26.712  -0.248  53.841  1.00  0.00     0.386 C 
HETATM    2  O1  UNL     1      26.579   1.248  53.641  1.00  0.00    -0.335 OA
HETATM    3  C3  UNL     1      25.562   1.536  52.628  1.00  0.00     0.128 A 
HETATM    4  C4  UNL     1      24.208   1.452  52.427  1.00  0.00     0.119 A 
HETATM    5  C5  UNL     1      22.709   1.252  52.495  1.00  0.00     0.393 A 
HETATM    6  N2  UNL     1      21.646   0.767  53.093  1.00  0.00     0.247 N 
HETATM    7  C6  UNL     1      20.641   1.781  53.108  1.00  0.00     0.564 A 
HETATM    8  N3  UNL     1      21.498   0.810  53.135  1.00  0.00     0.247 N 
HETATM    9  C8  UNL     1      22.731   0.542  52.754  1.00  0.00     0.389 A 
HETATM   10  C9  UNL     1      23.667   1.550  52.007  1.00  0.00     0.117 A 
HETATM   11  C10 UNL     1      24.766   1.856  51.544  1.00  0.00     0.100 A 
HETATM   12  C11 UNL     1      26.039   2.040  51.454  1.00  0.00     0.068 A 
HETATM   13  C13 UNL     1      23.167  -0.988  53.262  1.00  0.00     0.105 C 
HETATM   14  C14 UNL     1      24.592  -0.722  53.458  1.00  0.00    -0.015 C 
HETATM   15  C15 UNL     1      25.402  -0.555  54.521  1.00  0.00    -0.029 C 
HETATM   16  C16 UNL     1      25.099  -0.621  55.961  1.00  0.00     0.048 C 
ENDROOT
BRANCH   1  17
HETATM   17  N1  UNL     1      27.876  -0.635  54.460  1.00  0.00     0.112 N 
HETATM   18  C1  UNL     1      28.835   0.486  54.502  1.00  0.00     0.310 C 
HETATM   19  H4  UNL     1      27.640  -0.735  55.517  1.00  0.00     0.319 HD
ENDBRANCH   1  17
BRANCH  12  20
HETATM   20  O3  UNL     1      26.552   2.547  50.284  1.00  0.00    -0.361 OA
HETATM   21  C12 UNL     1      26.407   3.963  50.085  1.00  0.00     0.209 C 
ENDBRANCH  12  20
BRANCH   7  22
HETATM   22  O2  UNL     1      20.149   3.019  52.843  1.00  0.00    -0.328 OA
HETATM   23  C7  UNL     1      19.751   3.571  51.660  1.00  0.00     0.207 C 
ENDBRANCH   7  22
TORSDOF 4
ENDMDL
MODEL 5
REMARK VINA RESULT:      -7.2      2.192      2.813
REMARK  4 active torsions:
REMARK  status: ('A' for Active; 'I' for Inactive)
REMARK    1  A    between atoms: N1_2  and  C2_3 
REMARK    2  A    between atoms: C6_9  and  O2_10 
REMARK    3  A    between atoms: C8_13  and  C9_14 
REMARK    4  A    between atoms: C11_16  and  O3_17 
ROOT
HETATM    1  C2  UNL     1      20.373   3.053  51.783  1.00  0.00     0.386 C 
HETATM    2  O1  UNL     1      20.155   2.377  53.121  1.00  0.00    -0.335 OA
HETATM    3  C3  UNL     1      20.790   1.058  53.133  1.00  0.00     0.128 A 
HETATM    4  C4  UNL     1      22.032   0.476  53.113  1.00  0.00     0.119 A 
HETATM    5  C5  UNL     1      23.504   0.124  53.090  1.00  0.00     0.393 A 
HETATM    6  N2  UNL     1      24.761   0.474  52.947  1.00  0.00     0.247 N 
HETATM    7  C6  UNL     1      25.517  -0.137  53.992  1.00  0.00     0.564 A 
HETATM    8  N3  UNL     1      24.904   0.452  53.015  1.00  0.00     0.247 N 
HETATM    9  C8  UNL     1      23.690   0.580  52.517  1.00  0.00     0.389 A 
HETATM   10  C9  UNL     1      22.411  -0.102  53.109  1.00  0.00     0.117 A 
HETATM   11  C10 UNL     1      21.192  -0.265  53.129  1.00  0.00     0.100 A 
HETATM   12  C11 UNL     1      19.930   0.000  53.150  1.00  0.00     0.068 A 
HETATM   13  C13 UNL     1      23.711   1.638  51.226  1.00  0.00     0.105 C 
HETATM   14  C14 UNL     1      22.366   2.184  51.407  1.00  0.00    -0.015 C 
HETATM   15  C15 UNL     1      21.851   3.345  51.856  1.00  0.00    -0.029 C 
HETATM   16  C16 UNL     1      22.532   4.564  52.324  1.00  0.00     0.048 C 
ENDROOT
BRANCH   1  17
HETATM   17  N1  UNL     1      19.514   4.094  51.527  1.00  0.00     0.112 N 
HETATM   18  C1  UNL     1      18.132   3.597  51.376  1.00  0.00     0.310 C 
HETATM   19  H4  UNL     1      19.424   4.650  52.458  1.00  0.00     0.319 HD
ENDBRANCH   1  17
BRANCH  12  20
HETATM   20  O3  UNL     1      19.036  -1.044  53.167  1.00  0.00    -0.361 OA
HETATM   21  C12 UNL     1      17.757  -0.798  52.560  1.00  0.00     0.209 C 
ENDBRANCH  12  20
BRANCH   7  22
HETATM   22  O2  UNL     1      25.670  -0.906  55.101  1.00  0.00    -0.328 OA
HETATM   23  C7  UNL     1      24.964  -0.911  56.270  1.00  0.00     0.207 C 
ENDBRANCH   7  22
TORSDOF 4
ENDMDL
MODEL 6
REMARK VINA RESULT:      -7.1      2.114      5.222
REMARK  4 active torsions:
REMARK  status: ('A' for Active; 'I' for Inactive)
REMARK    1  A    between atoms: N1_2  and  C2_3 
REMARK    2  A    between atoms: C6_9  and  O2_10 
REMARK    3  A    between atoms: C8_13  and  C9_14 
REMARK    4  A    between atoms: C11_16  and  O3_17 
ROOT
HETATM    1  C2  UNL     1      26.069   0.015  53.885  1.00  0.00     0.386 C 
HETATM    2  O1  UNL     1      25.012  -0.849  53.230  1.00  0.00    -0.335 OA
HETATM    3  C3  UNL     1      23.698  -0.212  53.337  1.00  0.00     0.128 A 
HETATM    4  C4  UNL     1      23.004   0.877  52.876  1.00  0.00     0.119 A 
HETATM    5  C5  UNL     1      22.495   2.136  52.208  1.00  0.00     0.393 A 
HETATM    6  N2  UNL     1      22.708   3.222  51.503  1.00  0.00     0.247 N 
HETATM    7  C6  UNL     1      21.686   3.319  50.511  1.00  0.00     0.564 A 
HETATM    8  N3  UNL     1      22.646   3.304  51.380  1.00  0.00     0.247 N 
HETATM    9  C8  UNL     1      23.091   2.568  52.379  1.00  0.00     0.389 A 
HETATM   10  C9  UNL     1      22.418   1.244  52.874  1.00  0.00     0.117 A 
HETATM   11  C10 UNL     1      22.416   0.241  53.587  1.00  0.00     0.100 A 
HETATM   12  C11 UNL     1      22.817  -0.837  54.171  1.00  0.00     0.068 A 
HETATM   13  C13 UNL     1      24.514   3.209  52.972  1.00  0.00     0.105 C 
HETATM   14  C14 UNL     1      25.133   1.948  53.381  1.00  0.00    -0.015 C 
HETATM   15  C15 UNL     1      26.127   1.167  52.914  1.00  0.00    -0.029 C 
HETATM   16  C16 UNL     1      27.015   1.360  51.755  1.00  0.00     0.048 C 
ENDROOT
BRANCH   1  17
HETATM   17  N1  UNL     1      27.237  -0.646  54.183  1.00  0.00     0.112 N 
HETATM   18  C1  UNL     1      28.169   0.251  54.894  1.00  0.00     0.310 C 
HETATM   19  H4  UNL     1      26.994  -1.349  54.977  1.00  0.00     0.319 HD
ENDBRANCH   1  17
BRANCH  12  20
HETATM   20  O3  UNL     1      21.954  -1.490  55.017  1.00  0.00    -0.361 OA
HETATM   21  C12 UNL     1      20.737  -1.983  54.431  1.00  0.00     0.209 C 
ENDBRANCH  12  20
BRANCH   7  22
HETATM   22  O2  UNL     1      20.571   2.897  49.859  1.00  0.00    -0.328 OA
HETATM   23  C7  UNL     1      20.450   2.184  48.701  1.00  0.00     0.207 C 
ENDBRANCH   7  22
TORSDOF 4
ENDMDL
MODEL 7
REMARK VINA RESULT:      -7.1      1.595      2.107
REMARK  4 active torsions:
REMARK  status: ('A' for Active; 'I' for Inactive)
REMARK    1  A    between atoms: N1_2  and  C2_3 
REMARK    2  A    between atoms: C6_9  and  O2_10 
REMARK    3  A    between atoms: C8_13  and  C9_14 
REMARK    4  A    between atoms: C11_16  and  O3_17 
ROOT
HETATM    1  C2  UNL     1      23.012   4.867  50.231  1.00  0.00     0.386 C 
HETATM    2  O1  UNL     1      22.786   4.595  51.704  1.00  0.00    -0.335 OA
HETATM    3  C3  UNL     1      23.314   3.278  52.064  1.00  0.00     0.128 A 
HETATM    4  C4  UNL     1      24.503   2.607  52.188  1.00  0.00     0.119 A 
HETATM    5  C5  UNL     1      25.941   2.137  52.246  1.00  0.00     0.393 A 
HETATM    6  N2  UNL     1      27.216   2.326  52.000  1.00  0.00     0.247 N 
HETATM    7  C6  UNL     1      27.956   1.954  53.162  1.00  0.00     0.564 A 
HETATM    8  N3  UNL     1      27.359   2.310  52.069  1.00  0.00     0.247 N 
HETATM    9  C8  UNL     1      26.144   2.404  51.568  1.00  0.00     0.389 A 
HETATM   10  C9  UNL     1      24.835   2.018  52.336  1.00  0.00     0.117 A 
HETATM   11  C10 UNL     1      23.608   1.973  52.413  1.00  0.00     0.100 A 
HETATM   12  C11 UNL     1      22.372   2.341  52.375  1.00  0.00     0.068 A 
HETATM   13  C13 UNL     1      26.206   3.073  50.040  1.00  0.00     0.105 C 
HETATM   14  C14 UNL     1      24.915   3.761  50.082  1.00  0.00    -0.015 C 
HETATM   15  C15 UNL     1      24.510   5.040  50.208  1.00  0.00    -0.029 C 
HETATM   16  C16 UNL     1      25.302   6.276  50.322  1.00  0.00     0.048 C 
ENDROOT
BRANCH   1  17
HETATM   17  N1  UNL     1      22.231   5.872  49.714  1.00  0.00     0.112 N 
HETATM   18  C1  UNL     1      21.589   6.636  50.801  1.00  0.00     0.310 C 
HETATM   19  H4  UNL     1      22.917   6.620  49.323  1.00  0.00     0.319 HD
ENDBRANCH   1  17
BRANCH  12  20
HETATM   20  O3  UNL     1      21.399   1.421  52.684  1.00  0.00    -0.361 OA
HETATM   21  C12 UNL     1      20.038   1.846  52.501  1.00  0.00     0.209 C 
ENDBRANCH  12  20
BRANCH   7  22
HETATM   22  O2  UNL     1      28.084   1.499  54.436  1.00  0.00    -0.328 OA
HETATM   23  C7  UNL     1      28.364   0.245  54.896  1.00  0.00     0.207 C 
ENDBRANCH   7  22
TORSDOF 4
ENDMDL
MODEL 8
REMARK VINA RESULT:      -7.0      2.616      4.417
REMARK  4 active torsions:
REMARK  status: ('A' for Active; 'I' for Inactive)
REMARK    1  A    between atoms: N1_2  and  C2_3 
REMARK    2  A    between atoms: C6_9  and  O2_10 
REMARK    3  A    between atoms: C8_13  and  C9_14 
REMARK    4  A    between atoms: C11_16  and  O3_17 
ROOT
HETATM    1  C2  UNL     1      23.508   4.778  50.563  1.00  0.00     0.386 C 
HETATM    2  O1  UNL     1      24.162   3.903  49.514  1.00  0.00    -0.335 OA
HETATM    3  C3  UNL     1      25.399   3.321  50.038  1.00  0.00     0.128 A 
HETATM    4  C4  UNL     1      25.837   2.419  50.974  1.00  0.00     0.119 A 
HETATM    5  C5  UNL     1      26.019   1.383  52.062  1.00  0.00     0.393 A 
HETATM    6  N2  UNL     1      25.534   0.652  53.038  1.00  0.00     0.247 N 
HETATM    7  C6  UNL     1      26.022  -0.680  52.886  1.00  0.00     0.564 A 
HETATM    8  N3  UNL     1      25.537   0.503  53.094  1.00  0.00     0.247 N 
HETATM    9  C8  UNL     1      25.563   1.711  52.568  1.00  0.00     0.389 A 
HETATM   10  C9  UNL     1      26.368   2.101  51.282  1.00  0.00     0.117 A 
HETATM   11  C10 UNL     1      26.668   2.912  50.407  1.00  0.00     0.100 A 
HETATM   12  C11 UNL     1      26.547   3.796  49.475  1.00  0.00     0.068 A 
HETATM   13  C13 UNL     1      24.550   2.728  53.420  1.00  0.00     0.105 C 
HETATM   14  C14 UNL     1      24.156   3.583  52.300  1.00  0.00    -0.015 C 
HETATM   15  C15 UNL     1      23.048   3.735  51.549  1.00  0.00    -0.029 C 
HETATM   16  C16 UNL     1      21.745   3.053  51.636  1.00  0.00     0.048 C 
ENDROOT
BRANCH   1  17
HETATM   17  N1  UNL     1      22.580   5.661  50.065  1.00  0.00     0.112 N 
HETATM   18  C1  UNL     1      23.195   6.536  49.047  1.00  0.00     0.310 C 
HETATM   19  H4  UNL     1      21.906   5.075  49.442  1.00  0.00     0.319 HD
ENDBRANCH   1  17
BRANCH  12  20
HETATM   20  O3  UNL     1      27.685   4.295  48.887  1.00  0.00    -0.361 OA
HETATM   21  C12 UNL     1      27.635   5.667  48.464  1.00  0.00     0.209 C 
ENDBRANCH  12  20
BRANCH   7  22
HETATM   22  O2  UNL     1      26.734  -1.658  52.268  1.00  0.00    -0.328 OA
HETATM   23  C7  UNL     1      27.683  -2.502  52.768  1.00  0.00     0.207 C 
ENDBRANCH   7  22
TORSDOF 4
ENDMDL
MODEL 9
REMARK VINA RESULT:      -6.8      2.001      5.384
REMARK  4 active torsions:
REMARK  status: ('A' for Active; 'I' for Inactive)
REMARK    1  A    between atoms: N1_2  and  C2_3 
REMARK    2  A    between atoms: C6_9  and  O2_10 
REMARK    3  A    between atoms: C8_13  and  C9_14 
REMARK    4  A    between atoms: C11_16  and  O3_17 
ROOT
HETATM    1  C2  UNL     1      27.007   1.513  53.106  1.00  0.00     0.386 C 
HETATM    2  O1  UNL     1      26.462   0.121  52.862  1.00  0.00    -0.335 OA
HETATM    3  C3  UNL     1      25.085   0.023  53.351  1.00  0.00     0.128 A 
HETATM    4  C4  UNL     1      23.826   0.494  53.084  1.00  0.00     0.119 A 
HETATM    5  C5  UNL     1      22.574   1.159  52.553  1.00  0.00     0.393 A 
HETATM    6  N2  UNL     1      21.988   2.031  51.766  1.00  0.00     0.247 N 
HETATM    7  C6  UNL     1      20.870   1.394  51.147  1.00  0.00     0.564 A 
HETATM    8  N3  UNL     1      21.864   2.043  51.666  1.00  0.00     0.247 N 
HETATM    9  C8  UNL     1      22.862   1.856  52.505  1.00  0.00     0.389 A 
HETATM   10  C9  UNL     1      23.155   0.511  53.251  1.00  0.00     0.117 A 
HETATM   11  C10 UNL     1      23.868  -0.185  53.973  1.00  0.00     0.100 A 
HETATM   12  C11 UNL     1      24.915  -0.767  54.450  1.00  0.00     0.068 A 
HETATM   13  C13 UNL     1      23.808   3.230  52.584  1.00  0.00     0.105 C 
HETATM   14  C14 UNL     1      25.087   2.564  52.835  1.00  0.00    -0.015 C 
HETATM   15  C15 UNL     1      26.195   2.307  52.113  1.00  0.00    -0.029 C 
HETATM   16  C16 UNL     1      26.525   2.669  50.724  1.00  0.00     0.048 C 
ENDROOT
BRANCH   1  17
HETATM   17  N1  UNL     1      28.377   1.603  53.048  1.00  0.00     0.112 N 
HETATM   18  C1  UNL     1      28.980   1.065  54.284  1.00  0.00     0.310 C 
HETATM   19  H4  UNL     1      28.701   0.855  52.328  1.00  0.00     0.319 HD
ENDBRANCH   1  17
BRANCH  12  20
HETATM   20  O3  UNL     1      24.778  -1.571  55.557  1.00  0.00    -0.361 OA
HETATM   21  C12 UNL     1      25.193  -1.005  56.811  1.00  0.00     0.209 C 
ENDBRANCH  12  20
BRANCH   7  22
HETATM   22  O2  UNL     1      20.041   0.346  50.903  1.00  0.00    -0.328 OA
HETATM   23  C7  UNL     1      18.797   0.078  51.397  1.00  0.00     0.207 C 
ENDBRANCH   7  22
TORSDOF 4
ENDMDL
