MODEL 1
REMARK VINA RESULT:      -8.2      0.000      0.000
REMARK  5 active torsions:
REMARK  status: ('A' for Active; 'I' for Inactive)
REMARK    1  A    between atoms: O1_2  and  C2_3 
REMARK    2  A    between atoms: C3_4  and  C4_5 
REMARK    3  A    between atoms: C4_5  and  C5_6 
REMARK    4  A    between atoms: C10_13  and  N3_14 
REMARK    5  A    between atoms: N3_14  and  C11_15 
ROOT
HETATM    1  C5  UNL     1      24.304  -0.224  53.514  1.00  0.00    -0.054 A 
HETATM    2  C6  UNL     1      24.932  -0.603  54.671  1.00  0.00     0.010 A 
HETATM    3  C7  UNL     1      26.170  -0.094  54.934  1.00  0.00     0.033 A 
HETATM    4  C8  UNL     1      26.765   0.774  54.059  1.00  0.00     0.072 A 
HETATM    5  N1  UNL     1      27.988   1.232  54.392  1.00  0.00    -0.241 NA
HETATM    6  C9  UNL     1      28.654   2.097  53.581  1.00  0.00     0.236 A 
HETATM    7  N2  UNL     1      28.051   2.472  52.452  1.00  0.00    -0.224 NA
HETATM    8  C10 UNL     1      26.849   2.070  52.048  1.00  0.00     0.142 A 
HETATM    9  C17 UNL     1      26.192   1.196  52.880  1.00  0.00     0.039 A 
HETATM   10  C18 UNL     1      24.947   0.653  52.665  1.00  0.00     0.025 A 
ENDROOT
BRANCH   8  11
HETATM   11  N3  UNL     1      26.198   2.460  50.849  1.00  0.00    -0.340 N 
HETATM   12  H11 UNL     1      25.630   1.819  50.302  1.00  0.00     0.167 HD
BRANCH  11  13
HETATM   13  C11 UNL     1      26.189   3.716  50.193  1.00  0.00     0.035 A 
HETATM   14  C12 UNL     1      27.083   4.145  49.232  1.00  0.00     0.029 A 
HETATM   15  C13 UNL     1      27.034   5.373  48.628  1.00  0.00     0.004 A 
HETATM   16  C14 UNL     1      26.054   6.282  48.960  1.00  0.00     0.019 A 
HETATM   17  C15 UNL     1      25.137   5.900  49.914  1.00  0.00     0.013 A 
HETATM   18 BR1  UNL     1      23.807   7.202  50.328  1.00  0.00    -0.051 Br
HETATM   19  C16 UNL     1      25.227   4.653  50.494  1.00  0.00     0.048 A 
ENDBRANCH  11  13
ENDBRANCH   8  11
BRANCH   1  20
HETATM   20  C4  UNL     1      22.951  -0.760  53.189  1.00  0.00     0.067 C 
BRANCH  20  21
HETATM   21  C3  UNL     1      21.886   0.209  53.515  1.00  0.00     0.002 C 
HETATM   22  C2  UNL     1      21.285   1.118  52.767  1.00  0.00     0.130 C 
BRANCH  22  23
HETATM   23  O1  UNL     1      20.324   2.088  52.816  1.00  0.00    -0.368 OA
HETATM   24  C1  UNL     1      20.392   3.356  52.227  1.00  0.00     0.208 C 
ENDBRANCH  22  23
ENDBRANCH  20  21
ENDBRANCH   1  20
TORSDOF 5
ENDMDL
MODEL 2
REMARK VINA RESULT:      -7.9      2.688      4.758
REMARK  5 active torsions:
REMARK  status: ('A' for Active; 'I' for Inactive)
REMARK    1  A    between atoms: O1_2  and  C2_3 
REMARK    2  A    between atoms: C3_4  and  C4_5 
REMARK    3  A    between atoms: C4_5  and  C5_6 
REMARK    4  A    between atoms: C10_13  and  N3_14 
REMARK    5  A    between atoms: N3_14  and  C11_15 
ROOT
HETATM    1  C5  UNL     1      23.870  -0.044  53.432  1.00  0.00    -0.054 A 
HETATM    2  C6  UNL     1      22.655  -0.674  53.493  1.00  0.00     0.010 A 
HETATM    3  C7  UNL     1      21.539   0.035  53.153  1.00  0.00     0.033 A 
HETATM    4  C8  UNL     1      21.639   1.341  52.760  1.00  0.00     0.072 A 
HETATM    5  N1  UNL     1      20.490   1.971  52.441  1.00  0.00    -0.241 NA
HETATM    6  C9  UNL     1      20.494   3.271  52.041  1.00  0.00     0.236 A 
HETATM    7  N2  UNL     1      21.673   3.893  51.979  1.00  0.00    -0.224 NA
HETATM    8  C10 UNL     1      22.851   3.349  52.274  1.00  0.00     0.142 A 
HETATM    9  C17 UNL     1      22.826   2.035  52.676  1.00  0.00     0.039 A 
HETATM   10  C18 UNL     1      23.916   1.275  53.030  1.00  0.00     0.025 A 
ENDROOT
BRANCH   8  11
HETATM   11  N3  UNL     1      24.109   4.000  52.213  1.00  0.00    -0.340 N 
HETATM   12  H11 UNL     1      24.542   4.430  53.026  1.00  0.00     0.167 HD
BRANCH  11  13
HETATM   13  C11 UNL     1      24.978   4.188  51.109  1.00  0.00     0.035 A 
HETATM   14  C12 UNL     1      25.889   3.275  50.619  1.00  0.00     0.029 A 
HETATM   15  C13 UNL     1      26.711   3.505  49.549  1.00  0.00     0.004 A 
HETATM   16  C14 UNL     1      26.672   4.708  48.878  1.00  0.00     0.019 A 
HETATM   17  C15 UNL     1      25.778   5.653  49.329  1.00  0.00     0.013 A 
HETATM   18 BR1  UNL     1      25.773   7.294  48.359  1.00  0.00    -0.051 Br
HETATM   19  C16 UNL     1      24.971   5.374  50.411  1.00  0.00     0.048 A 
ENDBRANCH  11  13
ENDBRANCH   8  11
BRANCH   1  20
HETATM   20  C4  UNL     1      25.113  -0.783  53.797  1.00  0.00     0.067 C 
BRANCH  20  21
HETATM   21  C3  UNL     1      26.046   0.063  54.567  1.00  0.00     0.002 C 
HETATM   22  C2  UNL     1      27.362   0.172  54.510  1.00  0.00     0.130 C 
BRANCH  22  23
HETATM   23  O1  UNL     1      28.413   0.838  55.076  1.00  0.00    -0.368 OA
HETATM   24  C1  UNL     1      29.340   1.647  54.410  1.00  0.00     0.208 C 
ENDBRANCH  22  23
ENDBRANCH  20  21
ENDBRANCH   1  20
TORSDOF 5
ENDMDL
MODEL 3
REMARK VINA RESULT:      -7.7      3.030      5.194
REMARK  5 active torsions:
REMARK  status: ('A' for Active; 'I' for Inactive)
REMARK    1  A    between atoms: O1_2  and  C2_3 
REMARK    2  A    between atoms: C3_4  and  C4_5 
REMARK    3  A    between atoms: C4_5  and  C5_6 
REMARK    4  A    between atoms: C10_13  and  N3_14 
REMARK    5  A    between atoms: N3_14  and  C11_15 
ROOT
HETATM    1  C5  UNL     1      23.616  -0.727  54.423  1.00  0.00    -0.054 A 
HETATM    2  C6  UNL     1      22.489  -1.255  54.997  1.00  0.00     0.010 A 
HETATM    3  C7  UNL     1      21.288  -1.036  54.388  1.00  0.00     0.033 A 
HETATM    4  C8  UNL     1      21.217  -0.307  53.232  1.00  0.00     0.072 A 
HETATM    5  N1  UNL     1      19.993  -0.137  52.694  1.00  0.00    -0.241 NA
HETATM    6  C9  UNL     1      19.828   0.575  51.547  1.00  0.00     0.236 A 
HETATM    7  N2  UNL     1      20.919   1.093  50.980  1.00  0.00    -0.224 NA
HETATM    8  C10 UNL     1      22.161   0.974  51.443  1.00  0.00     0.142 A 
HETATM    9  C17 UNL     1      22.307   0.252  52.603  1.00  0.00     0.039 A 
HETATM   10  C18 UNL     1      23.490   0.001  53.258  1.00  0.00     0.025 A 
ENDROOT
BRANCH   8  11
HETATM   11  N3  UNL     1      23.328   1.522  50.852  1.00  0.00    -0.340 N 
HETATM   12  H11 UNL     1      24.030   0.947  50.394  1.00  0.00     0.167 HD
BRANCH  11  13
HETATM   13  C11 UNL     1      23.750   2.872  50.768  1.00  0.00     0.035 A 
HETATM   14  C12 UNL     1      23.125   3.963  51.338  1.00  0.00     0.029 A 
HETATM   15  C13 UNL     1      23.572   5.252  51.225  1.00  0.00     0.004 A 
HETATM   16  C14 UNL     1      24.711   5.542  50.508  1.00  0.00     0.019 A 
HETATM   17  C15 UNL     1      25.372   4.486  49.919  1.00  0.00     0.013 A 
HETATM   18 BR1  UNL     1      26.941   4.954  48.942  1.00  0.00    -0.051 Br
HETATM   19  C16 UNL     1      24.883   3.205  50.062  1.00  0.00     0.048 A 
ENDBRANCH  11  13
ENDBRANCH   8  11
BRANCH   1  20
HETATM   20  C4  UNL     1      24.948  -0.941  55.058  1.00  0.00     0.067 C 
BRANCH  20  21
HETATM   21  C3  UNL     1      25.949   0.028  54.572  1.00  0.00     0.002 C 
HETATM   22  C2  UNL     1      27.206   0.225  54.929  1.00  0.00     0.130 C 
BRANCH  22  23
HETATM   23  O1  UNL     1      28.292   1.009  54.656  1.00  0.00    -0.368 OA
HETATM   24  C1  UNL     1      29.345   0.698  53.788  1.00  0.00     0.208 C 
ENDBRANCH  22  23
ENDBRANCH  20  21
ENDBRANCH   1  20
TORSDOF 5
ENDMDL
MODEL 4
REMARK VINA RESULT:      -7.6      1.671      2.329
REMARK  5 active torsions:
REMARK  status: ('A' for Active; 'I' for Inactive)
REMARK    1  A    between atoms: O1_2  and  C2_3 
REMARK    2  A    between atoms: C3_4  and  C4_5 
REMARK    3  A    between atoms: C4_5  and  C5_6 
REMARK    4  A    between atoms: C10_13  and  N3_14 
REMARK    5  A    between atoms: N3_14  and  C11_15 
ROOT
HETATM    1  C5  UNL     1      22.652  -0.721  54.137  1.00  0.00    -0.054 A 
HETATM    2  C6  UNL     1      23.011  -1.188  55.374  1.00  0.00     0.010 A 
HETATM    3  C7  UNL     1      24.319  -1.089  55.751  1.00  0.00     0.033 A 
HETATM    4  C8  UNL     1      25.244  -0.534  54.909  1.00  0.00     0.072 A 
HETATM    5  N1  UNL     1      26.514  -0.473  55.356  1.00  0.00    -0.241 NA
HETATM    6  C9  UNL     1      27.500   0.061  54.586  1.00  0.00     0.236 A 
HETATM    7  N2  UNL     1      27.160   0.518  53.380  1.00  0.00    -0.224 NA
HETATM    8  C10 UNL     1      25.935   0.497  52.862  1.00  0.00     0.142 A 
HETATM    9  C17 UNL     1      24.953  -0.047  53.655  1.00  0.00     0.039 A 
HETATM   10  C18 UNL     1      23.623  -0.172  53.326  1.00  0.00     0.025 A 
ENDROOT
BRANCH   8  11
HETATM   11  N3  UNL     1      25.562   0.978  51.581  1.00  0.00    -0.340 N 
HETATM   12  H11 UNL     1      25.346   0.357  50.805  1.00  0.00     0.167 HD
BRANCH  11  13
HETATM   13  C11 UNL     1      25.418   2.311  51.122  1.00  0.00     0.035 A 
HETATM   14  C12 UNL     1      24.374   3.167  51.409  1.00  0.00     0.029 A 
HETATM   15  C13 UNL     1      24.277   4.449  50.937  1.00  0.00     0.004 A 
HETATM   16  C14 UNL     1      25.252   4.973  50.119  1.00  0.00     0.019 A 
HETATM   17  C15 UNL     1      26.316   4.157  49.804  1.00  0.00     0.013 A 
HETATM   18 BR1  UNL     1      27.632   4.942  48.668  1.00  0.00    -0.051 Br
HETATM   19  C16 UNL     1      26.369   2.874  50.303  1.00  0.00     0.048 A 
ENDBRANCH  11  13
ENDBRANCH   8  11
BRANCH   1  20
HETATM   20  C4  UNL     1      21.233  -0.814  53.687  1.00  0.00     0.067 C 
BRANCH  20  21
HETATM   21  C3  UNL     1      20.882   0.278  52.757  1.00  0.00     0.002 C 
HETATM   22  C2  UNL     1      20.325   1.456  52.978  1.00  0.00     0.130 C 
BRANCH  22  23
HETATM   23  O1  UNL     1      19.913   2.589  52.335  1.00  0.00    -0.368 OA
HETATM   24  C1  UNL     1      18.702   2.767  51.658  1.00  0.00     0.208 C 
ENDBRANCH  22  23
ENDBRANCH  20  21
ENDBRANCH   1  20
TORSDOF 5
ENDMDL
MODEL 5
REMARK VINA RESULT:      -7.4      3.947      7.229
REMARK  5 active torsions:
REMARK  status: ('A' for Active; 'I' for Inactive)
REMARK    1  A    between atoms: O1_2  and  C2_3 
REMARK    2  A    between atoms: C3_4  and  C4_5 
REMARK    3  A    between atoms: C4_5  and  C5_6 
REMARK    4  A    between atoms: C10_13  and  N3_14 
REMARK    5  A    between atoms: N3_14  and  C11_15 
ROOT
HETATM    1  C5  UNL     1      24.789   1.918  51.526  1.00  0.00    -0.054 A 
HETATM    2  C6  UNL     1      25.944   1.411  52.062  1.00  0.00     0.010 A 
HETATM    3  C7  UNL     1      25.844   0.497  53.071  1.00  0.00     0.033 A 
HETATM    4  C8  UNL     1      24.618   0.102  53.531  1.00  0.00     0.072 A 
HETATM    5  N1  UNL     1      24.606  -0.804  54.530  1.00  0.00    -0.241 NA
HETATM    6  C9  UNL     1      23.432  -1.253  55.050  1.00  0.00     0.236 A 
HETATM    7  N2  UNL     1      22.302  -0.764  54.535  1.00  0.00    -0.224 NA
HETATM    8  C10 UNL     1      22.224   0.128  53.552  1.00  0.00     0.142 A 
HETATM    9  C17 UNL     1      23.420   0.570  53.040  1.00  0.00     0.039 A 
HETATM   10  C18 UNL     1      23.578   1.487  52.027  1.00  0.00     0.025 A 
ENDROOT
BRANCH   8  11
HETATM   11  N3  UNL     1      21.030   0.656  52.998  1.00  0.00    -0.340 N 
HETATM   12  H11 UNL     1      20.951   1.621  52.688  1.00  0.00     0.167 HD
BRANCH  11  13
HETATM   13  C11 UNL     1      19.782   0.024  52.769  1.00  0.00     0.035 A 
HETATM   14  C12 UNL     1      19.173  -0.907  53.587  1.00  0.00     0.029 A 
HETATM   15  C13 UNL     1      17.966  -1.494  53.319  1.00  0.00     0.004 A 
HETATM   16  C14 UNL     1      17.267  -1.178  52.175  1.00  0.00     0.019 A 
HETATM   17  C15 UNL     1      17.834  -0.253  51.325  1.00  0.00     0.013 A 
HETATM   18 BR1  UNL     1      16.819   0.141  49.761  1.00  0.00    -0.051 Br
HETATM   19  C16 UNL     1      19.052   0.311  51.639  1.00  0.00     0.048 A 
ENDBRANCH  11  13
ENDBRANCH   8  11
BRANCH   1  20
HETATM   20  C4  UNL     1      24.855   2.920  50.424  1.00  0.00     0.067 C 
BRANCH  20  21
HETATM   21  C3  UNL     1      26.239   3.119  49.947  1.00  0.00     0.002 C 
HETATM   22  C2  UNL     1      26.782   4.106  49.256  1.00  0.00     0.130 C 
BRANCH  22  23
HETATM   23  O1  UNL     1      27.968   4.516  48.715  1.00  0.00    -0.368 OA
HETATM   24  C1  UNL     1      28.299   5.819  48.328  1.00  0.00     0.208 C 
ENDBRANCH  22  23
ENDBRANCH  20  21
ENDBRANCH   1  20
TORSDOF 5
ENDMDL
MODEL 6
REMARK VINA RESULT:      -7.4      3.604      5.692
REMARK  5 active torsions:
REMARK  status: ('A' for Active; 'I' for Inactive)
REMARK    1  A    between atoms: O1_2  and  C2_3 
REMARK    2  A    between atoms: C3_4  and  C4_5 
REMARK    3  A    between atoms: C4_5  and  C5_6 
REMARK    4  A    between atoms: C10_13  and  N3_14 
REMARK    5  A    between atoms: N3_14  and  C11_15 
ROOT
HETATM    1  C5  UNL     1      20.460   0.537  51.552  1.00  0.00    -0.054 A 
HETATM    2  C6  UNL     1      19.512  -0.038  52.357  1.00  0.00     0.010 A 
HETATM    3  C7  UNL     1      19.921  -0.653  53.504  1.00  0.00     0.033 A 
HETATM    4  C8  UNL     1      21.247  -0.692  53.837  1.00  0.00     0.072 A 
HETATM    5  N1  UNL     1      21.569  -1.319  54.986  1.00  0.00    -0.241 NA
HETATM    6  C9  UNL     1      22.863  -1.407  55.394  1.00  0.00     0.236 A 
HETATM    7  N2  UNL     1      23.794  -0.850  54.617  1.00  0.00    -0.224 NA
HETATM    8  C10 UNL     1      23.565  -0.214  53.472  1.00  0.00     0.142 A 
HETATM    9  C17 UNL     1      22.251  -0.136  53.076  1.00  0.00     0.039 A 
HETATM   10  C18 UNL     1      21.784   0.470  51.933  1.00  0.00     0.025 A 
ENDROOT
BRANCH   8  11
HETATM   11  N3  UNL     1      24.546   0.380  52.637  1.00  0.00    -0.340 N 
HETATM   12  H11 UNL     1      24.351   0.662  51.679  1.00  0.00     0.167 HD
BRANCH  11  13
HETATM   13  C11 UNL     1      25.901   0.690  52.913  1.00  0.00     0.035 A 
HETATM   14  C12 UNL     1      26.429   1.950  53.111  1.00  0.00     0.029 A 
HETATM   15  C13 UNL     1      27.750   2.199  53.372  1.00  0.00     0.004 A 
HETATM   16  C14 UNL     1      28.658   1.167  53.452  1.00  0.00     0.019 A 
HETATM   17  C15 UNL     1      28.180  -0.110  53.260  1.00  0.00     0.013 A 
HETATM   18 BR1  UNL     1      29.487  -1.493  53.383  1.00  0.00    -0.051 Br
HETATM   19  C16 UNL     1      26.841  -0.311  53.001  1.00  0.00     0.048 A 
ENDBRANCH  11  13
ENDBRANCH   8  11
BRANCH   1  20
HETATM   20  C4  UNL     1      20.054   1.218  50.289  1.00  0.00     0.067 C 
BRANCH  20  21
HETATM   21  C3  UNL     1      20.734   2.518  50.125  1.00  0.00     0.002 C 
HETATM   22  C2  UNL     1      20.479   3.531  49.315  1.00  0.00     0.130 C 
BRANCH  22  23
HETATM   23  O1  UNL     1      20.925   4.777  48.977  1.00  0.00    -0.368 OA
HETATM   24  C1  UNL     1      22.227   5.119  48.593  1.00  0.00     0.208 C 
ENDBRANCH  22  23
ENDBRANCH  20  21
ENDBRANCH   1  20
TORSDOF 5
ENDMDL
MODEL 7
REMARK VINA RESULT:      -7.4      3.216      5.055
REMARK  5 active torsions:
REMARK  status: ('A' for Active; 'I' for Inactive)
REMARK    1  A    between atoms: O1_2  and  C2_3 
REMARK    2  A    between atoms: C3_4  and  C4_5 
REMARK    3  A    between atoms: C4_5  and  C5_6 
REMARK    4  A    between atoms: C10_13  and  N3_14 
REMARK    5  A    between atoms: N3_14  and  C11_15 
ROOT
HETATM    1  C5  UNL     1      25.849   0.753  52.426  1.00  0.00    -0.054 A 
HETATM    2  C6  UNL     1      26.212  -0.265  53.269  1.00  0.00     0.010 A 
HETATM    3  C7  UNL     1      25.243  -0.857  54.026  1.00  0.00     0.033 A 
HETATM    4  C8  UNL     1      23.943  -0.441  53.940  1.00  0.00     0.072 A 
HETATM    5  N1  UNL     1      23.046  -1.077  54.721  1.00  0.00    -0.241 NA
HETATM    6  C9  UNL     1      21.732  -0.728  54.701  1.00  0.00     0.236 A 
HETATM    7  N2  UNL     1      21.369   0.262  53.884  1.00  0.00    -0.224 NA
HETATM    8  C10 UNL     1      22.185   0.941  53.082  1.00  0.00     0.142 A 
HETATM    9  C17 UNL     1      23.509   0.574  53.116  1.00  0.00     0.039 A 
HETATM   10  C18 UNL     1      24.525   1.135  52.377  1.00  0.00     0.025 A 
ENDROOT
BRANCH   8  11
HETATM   11  N3  UNL     1      21.812   1.996  52.211  1.00  0.00    -0.340 N 
HETATM   12  H11 UNL     1      21.471   2.891  52.551  1.00  0.00     0.167 HD
BRANCH  11  13
HETATM   13  C11 UNL     1      21.822   2.045  50.794  1.00  0.00     0.035 A 
HETATM   14  C12 UNL     1      21.527   1.005  49.936  1.00  0.00     0.029 A 
HETATM   15  C13 UNL     1      21.554   1.102  48.570  1.00  0.00     0.004 A 
HETATM   16  C14 UNL     1      21.893   2.287  47.956  1.00  0.00     0.019 A 
HETATM   17  C15 UNL     1      22.197   3.355  48.770  1.00  0.00     0.013 A 
HETATM   18 BR1  UNL     1      22.657   4.965  47.858  1.00  0.00    -0.051 Br
HETATM   19  C16 UNL     1      22.154   3.209  50.140  1.00  0.00     0.048 A 
ENDBRANCH  11  13
ENDBRANCH   8  11
BRANCH   1  20
HETATM   20  C4  UNL     1      26.878   1.427  51.584  1.00  0.00     0.067 C 
BRANCH  20  21
HETATM   21  C3  UNL     1      26.394   2.718  51.056  1.00  0.00     0.002 C 
HETATM   22  C2  UNL     1      26.390   3.202  49.827  1.00  0.00     0.130 C 
BRANCH  22  23
HETATM   23  O1  UNL     1      26.024   4.304  49.105  1.00  0.00    -0.368 OA
HETATM   24  C1  UNL     1      25.976   5.623  49.569  1.00  0.00     0.208 C 
ENDBRANCH  22  23
ENDBRANCH  20  21
ENDBRANCH   1  20
TORSDOF 5
ENDMDL
MODEL 8
REMARK VINA RESULT:      -7.2      5.274      7.955
REMARK  5 active torsions:
REMARK  status: ('A' for Active; 'I' for Inactive)
REMARK    1  A    between atoms: O1_2  and  C2_3 
REMARK    2  A    between atoms: C3_4  and  C4_5 
REMARK    3  A    between atoms: C4_5  and  C5_6 
REMARK    4  A    between atoms: C10_13  and  N3_14 
REMARK    5  A    between atoms: N3_14  and  C11_15 
ROOT
HETATM    1  C5  UNL     1      26.497   4.816  48.970  1.00  0.00    -0.054 A 
HETATM    2  C6  UNL     1      25.634   5.875  48.872  1.00  0.00     0.010 A 
HETATM    3  C7  UNL     1      26.124   7.073  48.440  1.00  0.00     0.033 A 
HETATM    4  C8  UNL     1      27.446   7.205  48.112  1.00  0.00     0.072 A 
HETATM    5  N1  UNL     1      27.851   8.421  47.693  1.00  0.00    -0.241 NA
HETATM    6  C9  UNL     1      29.148   8.644  47.349  1.00  0.00     0.236 A 
HETATM    7  N2  UNL     1      29.995   7.618  47.441  1.00  0.00    -0.224 NA
HETATM    8  C10 UNL     1      29.681   6.390  47.843  1.00  0.00     0.142 A 
HETATM    9  C17 UNL     1      28.367   6.184  48.187  1.00  0.00     0.039 A 
HETATM   10  C18 UNL     1      27.820   5.002  48.629  1.00  0.00     0.025 A 
ENDROOT
BRANCH   8  11
HETATM   11  N3  UNL     1      30.573   5.292  47.947  1.00  0.00    -0.340 N 
HETATM   12  H11 UNL     1      30.251   4.331  48.024  1.00  0.00     0.167 HD
BRANCH  11  13
HETATM   13  C11 UNL     1      31.990   5.277  47.966  1.00  0.00     0.035 A 
HETATM   14  C12 UNL     1      32.803   5.896  48.895  1.00  0.00     0.029 A 
HETATM   15  C13 UNL     1      34.171   5.856  48.869  1.00  0.00     0.004 A 
HETATM   16  C14 UNL     1      34.837   5.171  47.877  1.00  0.00     0.019 A 
HETATM   17  C15 UNL     1      34.069   4.537  46.925  1.00  0.00     0.013 A 
HETATM   18 BR1  UNL     1      35.049   3.607  45.580  1.00  0.00    -0.051 Br
HETATM   19  C16 UNL     1      32.694   4.605  46.994  1.00  0.00     0.048 A 
ENDBRANCH  11  13
ENDBRANCH   8  11
BRANCH   1  20
HETATM   20  C4  UNL     1      26.000   3.490  49.441  1.00  0.00     0.067 C 
BRANCH  20  21
HETATM   21  C3  UNL     1      26.417   3.212  50.830  1.00  0.00     0.002 C 
HETATM   22  C2  UNL     1      26.720   2.073  51.430  1.00  0.00     0.130 C 
BRANCH  22  23
HETATM   23  O1  UNL     1      27.113   1.564  52.635  1.00  0.00    -0.368 OA
HETATM   24  C1  UNL     1      28.170   2.025  53.427  1.00  0.00     0.208 C 
ENDBRANCH  22  23
ENDBRANCH  20  21
ENDBRANCH   1  20
TORSDOF 5
ENDMDL
MODEL 9
REMARK VINA RESULT:      -7.2      3.801      7.114
REMARK  5 active torsions:
REMARK  status: ('A' for Active; 'I' for Inactive)
REMARK    1  A    between atoms: O1_2  and  C2_3 
REMARK    2  A    between atoms: C3_4  and  C4_5 
REMARK    3  A    between atoms: C4_5  and  C5_6 
REMARK    4  A    between atoms: C10_13  and  N3_14 
REMARK    5  A    between atoms: N3_14  and  C11_15 
ROOT
HETATM    1  C5  UNL     1      26.118   2.479  51.567  1.00  0.00    -0.054 A 
HETATM    2  C6  UNL     1      26.463   2.888  50.306  1.00  0.00     0.010 A 
HETATM    3  C7  UNL     1      25.465   3.220  49.436  1.00  0.00     0.033 A 
HETATM    4  C8  UNL     1      24.154   3.144  49.821  1.00  0.00     0.072 A 
HETATM    5  N1  UNL     1      23.229   3.489  48.904  1.00  0.00    -0.241 NA
HETATM    6  C9  UNL     1      21.902   3.442  49.199  1.00  0.00     0.236 A 
HETATM    7  N2  UNL     1      21.557   3.045  50.425  1.00  0.00    -0.224 NA
HETATM    8  C10 UNL     1      22.402   2.689  51.388  1.00  0.00     0.142 A 
HETATM    9  C17 UNL     1      23.738   2.742  51.071  1.00  0.00     0.039 A 
HETATM   10  C18 UNL     1      24.783   2.419  51.905  1.00  0.00     0.025 A 
ENDROOT
BRANCH   8  11
HETATM   11  N3  UNL     1      22.047   2.263  52.694  1.00  0.00    -0.340 N 
HETATM   12  H11 UNL     1      22.039   2.893  53.491  1.00  0.00     0.167 HD
BRANCH  11  13
HETATM   13  C11 UNL     1      21.658   0.979  53.152  1.00  0.00     0.035 A 
HETATM   14  C12 UNL     1      22.475   0.041  53.749  1.00  0.00     0.029 A 
HETATM   15  C13 UNL     1      22.051  -1.191  54.173  1.00  0.00     0.004 A 
HETATM   16  C14 UNL     1      20.738  -1.575  54.018  1.00  0.00     0.019 A 
HETATM   17  C15 UNL     1      19.882  -0.672  53.427  1.00  0.00     0.013 A 
HETATM   18 BR1  UNL     1      18.079  -1.263  53.242  1.00  0.00    -0.051 Br
HETATM   19  C16 UNL     1      20.356   0.556  53.017  1.00  0.00     0.048 A 
ENDBRANCH  11  13
ENDBRANCH   8  11
BRANCH   1  20
HETATM   20  C4  UNL     1      27.180   2.106  52.546  1.00  0.00     0.067 C 
BRANCH  20  21
HETATM   21  C3  UNL     1      26.951   0.763  53.116  1.00  0.00     0.002 C 
HETATM   22  C2  UNL     1      27.539  -0.394  52.865  1.00  0.00     0.130 C 
BRANCH  22  23
HETATM   23  O1  UNL     1      27.522  -1.711  53.228  1.00  0.00    -0.368 OA
HETATM   24  C1  UNL     1      28.544  -2.644  53.022  1.00  0.00     0.208 C 
ENDBRANCH  22  23
ENDBRANCH  20  21
ENDBRANCH   1  20
TORSDOF 5
ENDMDL
