MODEL 1
REMARK VINA RESULT:      -8.3      0.000      0.000
REMARK  1 active torsions:
REMARK  status: ('A' for Active; 'I' for Inactive)
REMARK    1  A    between atoms: C3_3  and  C4_4 
ROOT
HETATM    1  C4  UNL     1      21.861  -0.593  53.998  1.00  0.00     0.070 C 
HETATM    2  N1  UNL     1      22.005  -1.258  55.120  1.00  0.00    -0.241 NA
HETATM    3  C5  UNL     1      23.264  -1.642  55.721  1.00  0.00     0.236 C 
HETATM    4  N2  UNL     1      24.506  -1.307  55.433  1.00  0.00    -0.218 NA
HETATM    5  C6  UNL     1      24.932  -0.458  54.378  1.00  0.00     0.170 C 
HETATM    6  C7  UNL     1      24.313  -0.457  53.181  1.00  0.00     0.074 C 
HETATM    7  C8  UNL     1      22.932   0.083  53.231  1.00  0.00     0.019 C 
HETATM    8  C9  UNL     1      22.490   1.174  52.640  1.00  0.00     0.148 C 
HETATM    9  O1  UNL     1      23.526   1.795  51.920  1.00  0.00    -0.359 OA
HETATM   10  C10 UNL     1      24.038   3.036  52.431  1.00  0.00     0.217 C 
HETATM   11  C11 UNL     1      24.808   3.681  51.275  1.00  0.00     0.234 C 
HETATM   12  F1  UNL     1      23.914   3.754  50.252  1.00  0.00    -0.241 F 
HETATM   13  C12 UNL     1      26.094   3.033  50.976  1.00  0.00     0.024 C 
HETATM   14 BR1  UNL     1      26.553   4.022  49.370  1.00  0.00    -0.053 Br
HETATM   15  C13 UNL     1      26.866   2.114  51.500  1.00  0.00     0.019 C 
HETATM   16  C14 UNL     1      27.418   1.091  52.365  1.00  0.00     0.026 C 
HETATM   17  C15 UNL     1      26.904   0.615  53.473  1.00  0.00     0.144 C 
HETATM   18  O2  UNL     1      26.024   0.425  54.532  1.00  0.00    -0.304 OA
ENDROOT
BRANCH   1  19
HETATM   19  C3  UNL     1      20.533  -0.491  53.432  1.00  0.00     0.028 C 
HETATM   20  C2  UNL     1      19.732  -1.476  53.815  1.00  0.00    -0.029 C 
HETATM   21  C1  UNL     1      18.307  -1.664  53.413  1.00  0.00     0.036 C 
ENDBRANCH   1  19
TORSDOF 1
ENDMDL
MODEL 2
REMARK VINA RESULT:      -8.1      2.682      4.978
REMARK  1 active torsions:
REMARK  status: ('A' for Active; 'I' for Inactive)
REMARK    1  A    between atoms: C3_3  and  C4_4 
ROOT
HETATM    1  C4  UNL     1      26.055   0.114  52.738  1.00  0.00     0.070 C 
HETATM    2  N1  UNL     1      25.132  -0.679  53.230  1.00  0.00    -0.241 NA
HETATM    3  C5  UNL     1      23.796  -0.282  53.622  1.00  0.00     0.236 C 
HETATM    4  N2  UNL     1      23.134   0.843  53.443  1.00  0.00    -0.218 NA
HETATM    5  C6  UNL     1      23.614   2.018  52.808  1.00  0.00     0.170 C 
HETATM    6  C7  UNL     1      24.894   2.417  52.941  1.00  0.00     0.074 C 
HETATM    7  C8  UNL     1      25.866   1.510  52.284  1.00  0.00     0.019 C 
HETATM    8  C9  UNL     1      26.650   1.798  51.265  1.00  0.00     0.148 C 
HETATM    9  O1  UNL     1      26.450   3.128  50.854  1.00  0.00    -0.359 OA
HETATM   10  C10 UNL     1      25.789   3.341  49.596  1.00  0.00     0.217 C 
HETATM   11  C11 UNL     1      26.086   4.793  49.207  1.00  0.00     0.234 C 
HETATM   12  F1  UNL     1      27.442   4.891  49.218  1.00  0.00    -0.241 F 
HETATM   13  C12 UNL     1      25.350   5.789  50.001  1.00  0.00     0.024 C 
HETATM   14 BR1  UNL     1      26.201   7.394  49.317  1.00  0.00    -0.053 Br
HETATM   15  C13 UNL     1      24.388   5.807  50.890  1.00  0.00     0.019 C 
HETATM   16  C14 UNL     1      23.338   5.418  51.809  1.00  0.00     0.026 C 
HETATM   17  C15 UNL     1      22.901   4.207  52.061  1.00  0.00     0.144 C 
HETATM   18  O2  UNL     1      22.774   2.824  52.008  1.00  0.00    -0.304 OA
ENDROOT
BRANCH   1  19
HETATM   19  C3  UNL     1      27.401  -0.403  52.614  1.00  0.00     0.028 C 
HETATM   20  C2  UNL     1      28.086  -0.337  53.746  1.00  0.00    -0.029 C 
HETATM   21  C1  UNL     1      29.495  -0.785  53.956  1.00  0.00     0.036 C 
ENDBRANCH   1  19
TORSDOF 1
ENDMDL
MODEL 3
REMARK VINA RESULT:      -7.7      3.640      6.402
REMARK  1 active torsions:
REMARK  status: ('A' for Active; 'I' for Inactive)
REMARK    1  A    between atoms: C3_3  and  C4_4 
ROOT
HETATM    1  C4  UNL     1      26.269   0.450  52.427  1.00  0.00     0.070 C 
HETATM    2  N1  UNL     1      26.965   1.541  52.206  1.00  0.00    -0.241 NA
HETATM    3  C5  UNL     1      26.438   2.796  51.716  1.00  0.00     0.236 C 
HETATM    4  N2  UNL     1      25.200   3.213  51.541  1.00  0.00    -0.218 NA
HETATM    5  C6  UNL     1      24.013   2.472  51.781  1.00  0.00     0.170 C 
HETATM    6  C7  UNL     1      23.946   1.150  51.527  1.00  0.00     0.074 C 
HETATM    7  C8  UNL     1      24.793   0.332  52.429  1.00  0.00     0.019 C 
HETATM    8  C9  UNL     1      24.380  -0.558  53.307  1.00  0.00     0.148 C 
HETATM    9  O1  UNL     1      22.977  -0.650  53.289  1.00  0.00    -0.359 OA
HETATM   10  C10 UNL     1      22.263  -0.128  54.422  1.00  0.00     0.217 C 
HETATM   11  C11 UNL     1      20.855  -0.728  54.343  1.00  0.00     0.234 C 
HETATM   12  F1  UNL     1      21.048  -2.074  54.298  1.00  0.00    -0.241 F 
HETATM   13  C12 UNL     1      20.016  -0.150  53.283  1.00  0.00     0.024 C 
HETATM   14 BR1  UNL     1      18.491  -1.341  53.436  1.00  0.00    -0.053 Br
HETATM   15  C13 UNL     1      20.068   0.847  52.435  1.00  0.00     0.019 C 
HETATM   16  C14 UNL     1      20.491   2.011  51.684  1.00  0.00     0.026 C 
HETATM   17  C15 UNL     1      21.604   2.692  51.819  1.00  0.00     0.144 C 
HETATM   18  O2  UNL     1      22.849   3.084  52.296  1.00  0.00    -0.304 OA
ENDROOT
BRANCH   1  19
HETATM   19  C3  UNL     1      26.991  -0.775  52.701  1.00  0.00     0.028 C 
HETATM   20  C2  UNL     1      28.241  -0.561  53.088  1.00  0.00    -0.029 C 
HETATM   21  C1  UNL     1      29.247  -1.605  53.445  1.00  0.00     0.036 C 
ENDBRANCH   1  19
TORSDOF 1
ENDMDL
MODEL 4
REMARK VINA RESULT:      -7.7      1.186      1.429
REMARK  1 active torsions:
REMARK  status: ('A' for Active; 'I' for Inactive)
REMARK    1  A    between atoms: C3_3  and  C4_4 
ROOT
HETATM    1  C4  UNL     1      20.702  -0.023  52.768  1.00  0.00     0.070 C 
HETATM    2  N1  UNL     1      20.539  -0.740  53.855  1.00  0.00    -0.241 NA
HETATM    3  C5  UNL     1      21.598  -1.329  54.647  1.00  0.00     0.236 C 
HETATM    4  N2  UNL     1      22.906  -1.175  54.606  1.00  0.00    -0.218 NA
HETATM    5  C6  UNL     1      23.637  -0.363  53.698  1.00  0.00     0.170 C 
HETATM    6  C7  UNL     1      23.257  -0.229  52.412  1.00  0.00     0.074 C 
HETATM    7  C8  UNL     1      21.981   0.510  52.247  1.00  0.00     0.019 C 
HETATM    8  C9  UNL     1      21.815   1.674  51.654  1.00  0.00     0.148 C 
HETATM    9  O1  UNL     1      23.044   2.157  51.170  1.00  0.00    -0.359 OA
HETATM   10  C10 UNL     1      23.622   3.290  51.840  1.00  0.00     0.217 C 
HETATM   11  C11 UNL     1      24.677   3.851  50.881  1.00  0.00     0.234 C 
HETATM   12  F1  UNL     1      24.008   4.092  49.722  1.00  0.00    -0.241 F 
HETATM   13  C12 UNL     1      25.891   3.028  50.778  1.00  0.00     0.024 C 
HETATM   14 BR1  UNL     1      26.776   3.990  49.343  1.00  0.00    -0.053 Br
HETATM   15  C13 UNL     1      26.415   1.985  51.375  1.00  0.00     0.019 C 
HETATM   16  C14 UNL     1      26.646   0.863  52.260  1.00  0.00     0.026 C 
HETATM   17  C15 UNL     1      25.873   0.432  53.228  1.00  0.00     0.144 C 
HETATM   18  O2  UNL     1      24.794   0.340  54.099  1.00  0.00    -0.304 OA
ENDROOT
BRANCH   1  19
HETATM   19  C3  UNL     1      19.530   0.296  51.980  1.00  0.00     0.028 C 
HETATM   20  C2  UNL     1      18.471  -0.429  52.314  1.00  0.00    -0.029 C 
HETATM   21  C1  UNL     1      17.113  -0.348  51.699  1.00  0.00     0.036 C 
ENDBRANCH   1  19
TORSDOF 1
ENDMDL
MODEL 5
REMARK VINA RESULT:      -7.6      3.191      6.056
REMARK  1 active torsions:
REMARK  status: ('A' for Active; 'I' for Inactive)
REMARK    1  A    between atoms: C3_3  and  C4_4 
ROOT
HETATM    1  C4  UNL     1      25.407   2.415  51.287  1.00  0.00     0.070 C 
HETATM    2  N1  UNL     1      26.500   1.829  51.715  1.00  0.00    -0.241 NA
HETATM    3  C5  UNL     1      26.565   0.794  52.725  1.00  0.00     0.236 C 
HETATM    4  N2  UNL     1      25.619   0.090  53.314  1.00  0.00    -0.218 NA
HETATM    5  C6  UNL     1      24.220   0.205  53.104  1.00  0.00     0.170 C 
HETATM    6  C7  UNL     1      23.639   1.400  52.881  1.00  0.00     0.074 C 
HETATM    7  C8  UNL     1      24.014   2.006  51.580  1.00  0.00     0.019 C 
HETATM    8  C9  UNL     1      23.214   2.248  50.562  1.00  0.00     0.148 C 
HETATM    9  O1  UNL     1      21.900   1.850  50.866  1.00  0.00    -0.359 OA
HETATM   10  C10 UNL     1      21.383   0.694  50.186  1.00  0.00     0.217 C 
HETATM   11  C11 UNL     1      19.863   0.747  50.366  1.00  0.00     0.234 C 
HETATM   12  F1  UNL     1      19.493   1.965  49.886  1.00  0.00    -0.241 F 
HETATM   13  C12 UNL     1      19.407   0.412  51.723  1.00  0.00     0.024 C 
HETATM   14 BR1  UNL     1      17.523   0.826  51.510  1.00  0.00    -0.053 Br
HETATM   15  C13 UNL     1      19.920  -0.057  52.834  1.00  0.00     0.019 C 
HETATM   16  C14 UNL     1      20.831  -0.579  53.831  1.00  0.00     0.026 C 
HETATM   17  C15 UNL     1      22.112  -0.825  53.697  1.00  0.00     0.144 C 
HETATM   18  O2  UNL     1      23.373  -0.924  53.119  1.00  0.00    -0.304 OA
ENDROOT
BRANCH   1  19
HETATM   19  C3  UNL     1      25.546   3.581  50.440  1.00  0.00     0.028 C 
HETATM   20  C2  UNL     1      26.702   3.612  49.792  1.00  0.00    -0.029 C 
HETATM   21  C1  UNL     1      27.157   4.672  48.844  1.00  0.00     0.036 C 
ENDBRANCH   1  19
TORSDOF 1
ENDMDL
MODEL 6
REMARK VINA RESULT:      -7.6      2.360      3.404
REMARK  1 active torsions:
REMARK  status: ('A' for Active; 'I' for Inactive)
REMARK    1  A    between atoms: C3_3  and  C4_4 
ROOT
HETATM    1  C4  UNL     1      23.863   0.519  53.221  1.00  0.00     0.070 C 
HETATM    2  N1  UNL     1      24.861  -0.248  53.591  1.00  0.00    -0.241 NA
HETATM    3  C5  UNL     1      26.186  -0.253  53.009  1.00  0.00     0.236 C 
HETATM    4  N2  UNL     1      26.762   0.560  52.147  1.00  0.00    -0.218 NA
HETATM    5  C6  UNL     1      26.173   1.691  51.522  1.00  0.00     0.170 C 
HETATM    6  C7  UNL     1      24.877   1.693  51.150  1.00  0.00     0.074 C 
HETATM    7  C8  UNL     1      23.934   1.672  52.294  1.00  0.00     0.019 C 
HETATM    8  C9  UNL     1      23.081   2.617  52.631  1.00  0.00     0.148 C 
HETATM    9  O1  UNL     1      23.170   3.698  51.736  1.00  0.00    -0.359 OA
HETATM   10  C10 UNL     1      23.748   4.919  52.227  1.00  0.00     0.217 C 
HETATM   11  C11 UNL     1      23.335   6.008  51.232  1.00  0.00     0.234 C 
HETATM   12  F1  UNL     1      21.977   5.943  51.180  1.00  0.00    -0.241 F 
HETATM   13  C12 UNL     1      24.044   5.944  49.945  1.00  0.00     0.024 C 
HETATM   14 BR1  UNL     1      23.054   7.319  48.997  1.00  0.00    -0.053 Br
HETATM   15  C13 UNL     1      25.049   5.288  49.418  1.00  0.00     0.019 C 
HETATM   16  C14 UNL     1      26.169   4.393  49.215  1.00  0.00     0.026 C 
HETATM   17  C15 UNL     1      26.698   3.561  50.079  1.00  0.00     0.144 C 
HETATM   18  O2  UNL     1      26.914   2.864  51.262  1.00  0.00    -0.304 OA
ENDROOT
BRANCH   1  19
HETATM   19  C3  UNL     1      22.549   0.234  53.758  1.00  0.00     0.028 C 
HETATM   20  C2  UNL     1      22.275  -1.062  53.791  1.00  0.00    -0.029 C 
HETATM   21  C1  UNL     1      21.012  -1.688  54.285  1.00  0.00     0.036 C 
ENDBRANCH   1  19
TORSDOF 1
ENDMDL
MODEL 7
REMARK VINA RESULT:      -7.5      4.360      7.775
REMARK  1 active torsions:
REMARK  status: ('A' for Active; 'I' for Inactive)
REMARK    1  A    between atoms: C3_3  and  C4_4 
ROOT
HETATM    1  C4  UNL     1      26.373   5.273  49.268  1.00  0.00     0.070 C 
HETATM    2  N1  UNL     1      26.178   6.564  49.146  1.00  0.00    -0.241 NA
HETATM    3  C5  UNL     1      24.958   7.271  49.476  1.00  0.00     0.236 C 
HETATM    4  N2  UNL     1      23.866   6.881  50.101  1.00  0.00    -0.218 NA
HETATM    5  C6  UNL     1      23.598   5.582  50.608  1.00  0.00     0.170 C 
HETATM    6  C7  UNL     1      24.011   4.475  49.961  1.00  0.00     0.074 C 
HETATM    7  C8  UNL     1      25.484   4.308  49.956  1.00  0.00     0.019 C 
HETATM    8  C9  UNL     1      26.171   3.342  50.531  1.00  0.00     0.148 C 
HETATM    9  O1  UNL     1      25.304   2.442  51.176  1.00  0.00    -0.359 OA
HETATM   10  C10 UNL     1      25.302   2.440  52.614  1.00  0.00     0.217 C 
HETATM   11  C11 UNL     1      24.630   1.127  53.030  1.00  0.00     0.234 C 
HETATM   12  F1  UNL     1      25.348   0.152  52.410  1.00  0.00    -0.241 F 
HETATM   13  C12 UNL     1      23.175   1.105  52.818  1.00  0.00     0.024 C 
HETATM   14 BR1  UNL     1      22.845  -0.757  53.260  1.00  0.00    -0.053 Br
HETATM   15  C13 UNL     1      22.227   1.944  52.485  1.00  0.00     0.019 C 
HETATM   16  C14 UNL     1      21.498   3.137  52.106  1.00  0.00     0.026 C 
HETATM   17  C15 UNL     1      21.977   4.342  51.909  1.00  0.00     0.144 C 
HETATM   18  O2  UNL     1      22.886   5.390  51.813  1.00  0.00    -0.304 OA
ENDROOT
BRANCH   1  19
HETATM   19  C3  UNL     1      27.569   4.706  48.683  1.00  0.00     0.028 C 
HETATM   20  C2  UNL     1      28.508   5.612  48.449  1.00  0.00    -0.029 C 
HETATM   21  C1  UNL     1      29.854   5.359  47.854  1.00  0.00     0.036 C 
ENDBRANCH   1  19
TORSDOF 1
ENDMDL
MODEL 8
REMARK VINA RESULT:      -7.5      3.070      4.443
REMARK  1 active torsions:
REMARK  status: ('A' for Active; 'I' for Inactive)
REMARK    1  A    between atoms: C3_3  and  C4_4 
ROOT
HETATM    1  C4  UNL     1      20.765   0.753  50.808  1.00  0.00     0.070 C 
HETATM    2  N1  UNL     1      19.515   0.603  51.178  1.00  0.00    -0.241 NA
HETATM    3  C5  UNL     1      19.060  -0.091  52.363  1.00  0.00     0.236 C 
HETATM    4  N2  UNL     1      19.718  -0.567  53.401  1.00  0.00    -0.218 NA
HETATM    5  C6  UNL     1      21.123  -0.535  53.602  1.00  0.00     0.170 C 
HETATM    6  C7  UNL     1      21.984  -0.689  52.577  1.00  0.00     0.074 C 
HETATM    7  C8  UNL     1      21.966   0.440  51.615  1.00  0.00     0.019 C 
HETATM    8  C9  UNL     1      22.952   1.275  51.360  1.00  0.00     0.148 C 
HETATM    9  O1  UNL     1      24.078   0.955  52.140  1.00  0.00    -0.359 OA
HETATM   10  C10 UNL     1      24.426   1.858  53.203  1.00  0.00     0.217 C 
HETATM   11  C11 UNL     1      25.872   1.520  53.583  1.00  0.00     0.234 C 
HETATM   12  F1  UNL     1      26.575   1.627  52.424  1.00  0.00    -0.241 F 
HETATM   13  C12 UNL     1      26.018   0.258  54.324  1.00  0.00     0.024 C 
HETATM   14 BR1  UNL     1      27.956   0.167  54.368  1.00  0.00    -0.053 Br
HETATM   15  C13 UNL     1      25.242  -0.636  54.886  1.00  0.00     0.019 C 
HETATM   16  C14 UNL     1      24.090  -1.367  55.371  1.00  0.00     0.026 C 
HETATM   17  C15 UNL     1      22.825  -1.046  55.244  1.00  0.00     0.144 C 
HETATM   18  O2  UNL     1      21.683  -0.340  54.883  1.00  0.00    -0.304 OA
ENDROOT
BRANCH   1  19
HETATM   19  C3  UNL     1      21.026   1.278  49.484  1.00  0.00     0.028 C 
HETATM   20  C2  UNL     1      20.065   2.081  49.049  1.00  0.00    -0.029 C 
HETATM   21  C1  UNL     1      20.028   2.782  47.731  1.00  0.00     0.036 C 
ENDBRANCH   1  19
TORSDOF 1
ENDMDL
MODEL 9
REMARK VINA RESULT:      -6.9      3.508      4.816
REMARK  1 active torsions:
REMARK  status: ('A' for Active; 'I' for Inactive)
REMARK    1  A    between atoms: C3_3  and  C4_4 
ROOT
HETATM    1  C4  UNL     1      18.818   0.760  51.814  1.00  0.00     0.070 C 
HETATM    2  N1  UNL     1      17.822   1.484  51.362  1.00  0.00    -0.241 NA
HETATM    3  C5  UNL     1      17.768   2.930  51.340  1.00  0.00     0.236 C 
HETATM    4  N2  UNL     1      18.690   3.841  51.579  1.00  0.00    -0.218 NA
HETATM    5  C6  UNL     1      20.035   3.604  51.967  1.00  0.00     0.170 C 
HETATM    6  C7  UNL     1      20.361   2.591  52.794  1.00  0.00     0.074 C 
HETATM    7  C8  UNL     1      20.163   1.250  52.193  1.00  0.00     0.019 C 
HETATM    8  C9  UNL     1      21.097   0.361  51.923  1.00  0.00     0.148 C 
HETATM    9  O1  UNL     1      22.362   0.852  52.291  1.00  0.00    -0.359 OA
HETATM   10  C10 UNL     1      23.272   1.199  51.234  1.00  0.00     0.217 C 
HETATM   11  C11 UNL     1      24.657   1.280  51.884  1.00  0.00     0.234 C 
HETATM   12  F1  UNL     1      24.836   0.072  52.484  1.00  0.00    -0.241 F 
HETATM   13  C12 UNL     1      24.856   2.467  52.728  1.00  0.00     0.024 C 
HETATM   14 BR1  UNL     1      26.592   2.013  53.468  1.00  0.00    -0.053 Br
HETATM   15  C13 UNL     1      24.225   3.582  53.004  1.00  0.00     0.019 C 
HETATM   16  C14 UNL     1      23.256   4.657  53.038  1.00  0.00     0.026 C 
HETATM   17  C15 UNL     1      22.131   4.745  52.370  1.00  0.00     0.144 C 
HETATM   18  O2  UNL     1      21.093   4.417  51.505  1.00  0.00    -0.304 OA
ENDROOT
BRANCH   1  19
HETATM   19  C3  UNL     1      18.612  -0.665  51.966  1.00  0.00     0.028 C 
HETATM   20  C2  UNL     1      17.996  -0.979  53.097  1.00  0.00    -0.029 C 
HETATM   21  C1  UNL     1      17.634  -2.353  53.556  1.00  0.00     0.036 C 
ENDBRANCH   1  19
TORSDOF 1
ENDMDL
