MODEL 1
REMARK VINA RESULT:      -8.0      0.000      0.000
REMARK  6 active torsions:
REMARK  status: ('A' for Active; 'I' for Inactive)
REMARK    1  A    between atoms: C2_2  and  N1_3 
REMARK    2  A    between atoms: N1_3  and  C4_5 
REMARK    3  A    between atoms: C4_5  and  C5_6 
REMARK    4  A    between atoms: C6_7  and  C7_8 
REMARK    5  A    between atoms: C7_8  and  C8_10 
REMARK    6  A    between atoms: C17_22  and  C18_23 
ROOT
HETATM    1  C8  UNL     1      24.598   1.107  52.451  1.00  0.00     0.042 A 
HETATM    2  C9  UNL     1      24.266   0.269  53.405  1.00  0.00     0.033 A 
HETATM    3  C10 UNL     1      22.920  -0.229  53.604  1.00  0.00     0.011 A 
HETATM    4  C11 UNL     1      22.566  -1.119  54.611  1.00  0.00     0.130 A 
HETATM    5  N2  UNL     1      21.320  -1.575  54.790  1.00  0.00    -0.271 NA
HETATM    6  C12 UNL     1      20.297  -1.207  53.998  1.00  0.00     0.141 A 
HETATM    7  C13 UNL     1      20.573  -0.328  52.979  1.00  0.00     0.089 A 
HETATM    8  C14 UNL     1      19.532   0.121  52.078  1.00  0.00     0.103 C 
HETATM    9  N3  UNL     1      18.682   0.469  51.360  1.00  0.00    -0.191 NA
HETATM   10  C15 UNL     1      21.855   0.145  52.791  1.00  0.00     0.067 A 
HETATM   11  N4  UNL     1      22.164   1.050  51.749  1.00  0.00    -0.353 N 
HETATM   12  C16 UNL     1      23.497   1.504  51.600  1.00  0.00     0.047 A 
HETATM   13  C17 UNL     1      23.731   2.343  50.615  1.00  0.00     0.033 C 
HETATM   14  H16 UNL     1      21.388   1.352  51.122  1.00  0.00     0.166 HD
ENDROOT
BRANCH   1  15
HETATM   15  C7  UNL     1      25.969   1.528  52.359  1.00  0.00     0.184 C 
HETATM   16  O1  UNL     1      26.782   1.604  51.422  1.00  0.00    -0.288 OA
BRANCH  15  17
HETATM   17  C6  UNL     1      26.798   2.005  53.433  1.00  0.00     0.053 C 
HETATM   18  C5  UNL     1      27.615   1.280  54.159  1.00  0.00     0.007 C 
BRANCH  18  19
HETATM   19  C4  UNL     1      28.206  -0.014  54.473  1.00  0.00     0.299 C 
BRANCH  19  20
HETATM   20  N1  UNL     1      28.827  -0.705  53.364  1.00  0.00     0.087 N 
HETATM   21  C3  UNL     1      30.264  -0.720  53.556  1.00  0.00     0.310 C 
BRANCH  20  22
HETATM   22  C2  UNL     1      28.286  -2.024  53.160  1.00  0.00     0.268 C 
HETATM   23  C1  UNL     1      26.972  -2.088  52.473  1.00  0.00     0.037 C 
ENDBRANCH  20  22
ENDBRANCH  19  20
ENDBRANCH  18  19
ENDBRANCH  15  17
ENDBRANCH   1  15
BRANCH  13  24
HETATM   24  C18 UNL     1      23.073   3.034  49.534  1.00  0.00     0.039 C 
HETATM   25  C19 UNL     1      22.312   2.841  48.509  1.00  0.00     0.090 C 
HETATM   26  C20 UNL     1      21.821   1.483  48.132  1.00  0.00     0.082 C 
HETATM   27  F1  UNL     1      21.953   3.908  47.761  1.00  0.00    -0.211 F 
ENDBRANCH  13  24
TORSDOF 6
ENDMDL
MODEL 2
REMARK VINA RESULT:      -7.9      2.927      4.623
REMARK  6 active torsions:
REMARK  status: ('A' for Active; 'I' for Inactive)
REMARK    1  A    between atoms: C2_2  and  N1_3 
REMARK    2  A    between atoms: N1_3  and  C4_5 
REMARK    3  A    between atoms: C4_5  and  C5_6 
REMARK    4  A    between atoms: C6_7  and  C7_8 
REMARK    5  A    between atoms: C7_8  and  C8_10 
REMARK    6  A    between atoms: C17_22  and  C18_23 
ROOT
HETATM    1  C8  UNL     1      23.051   0.680  53.315  1.00  0.00     0.042 A 
HETATM    2  C9  UNL     1      23.589   1.796  52.881  1.00  0.00     0.033 A 
HETATM    3  C10 UNL     1      22.821   2.901  52.345  1.00  0.00     0.011 A 
HETATM    4  C11 UNL     1      23.387   4.086  51.887  1.00  0.00     0.130 A 
HETATM    5  N2  UNL     1      22.673   5.104  51.393  1.00  0.00    -0.271 NA
HETATM    6  C12 UNL     1      21.331   5.064  51.299  1.00  0.00     0.141 A 
HETATM    7  C13 UNL     1      20.702   3.923  51.733  1.00  0.00     0.089 A 
HETATM    8  C14 UNL     1      19.261   3.794  51.670  1.00  0.00     0.103 C 
HETATM    9  N3  UNL     1      18.100   3.711  51.614  1.00  0.00    -0.191 NA
HETATM   10  C15 UNL     1      21.434   2.872  52.243  1.00  0.00     0.067 A 
HETATM   11  N4  UNL     1      20.809   1.687  52.697  1.00  0.00    -0.353 N 
HETATM   12  C16 UNL     1      21.609   0.638  53.213  1.00  0.00     0.047 A 
HETATM   13  C17 UNL     1      20.979  -0.442  53.622  1.00  0.00     0.033 C 
HETATM   14  H16 UNL     1      19.771   1.630  52.634  1.00  0.00     0.166 HD
ENDROOT
BRANCH   1  15
HETATM   15  C7  UNL     1      23.922  -0.344  53.824  1.00  0.00     0.184 C 
HETATM   16  O1  UNL     1      23.860  -1.118  54.794  1.00  0.00    -0.288 OA
BRANCH  15  17
HETATM   17  C6  UNL     1      25.188  -0.749  53.276  1.00  0.00     0.053 C 
HETATM   18  C5  UNL     1      26.370  -0.409  53.730  1.00  0.00     0.007 C 
BRANCH  18  19
HETATM   19  C4  UNL     1      27.186   0.313  54.697  1.00  0.00     0.299 C 
BRANCH  19  20
HETATM   20  N1  UNL     1      28.616   0.129  54.572  1.00  0.00     0.087 N 
HETATM   21  C3  UNL     1      28.883  -0.832  53.520  1.00  0.00     0.310 C 
BRANCH  20  22
HETATM   22  C2  UNL     1      29.320   1.369  54.376  1.00  0.00     0.268 C 
HETATM   23  C1  UNL     1      28.591   2.417  53.620  1.00  0.00     0.037 C 
ENDBRANCH  20  22
ENDBRANCH  19  20
ENDBRANCH  18  19
ENDBRANCH  15  17
ENDBRANCH   1  15
BRANCH  13  24
HETATM   24  C18 UNL     1      19.656  -1.002  53.751  1.00  0.00     0.039 C 
HETATM   25  C19 UNL     1      18.512  -1.073  53.156  1.00  0.00     0.090 C 
HETATM   26  C20 UNL     1      18.257  -0.400  51.848  1.00  0.00     0.082 C 
HETATM   27  F1  UNL     1      17.522  -1.779  53.743  1.00  0.00    -0.211 F 
ENDBRANCH  13  24
TORSDOF 6
ENDMDL
MODEL 3
REMARK VINA RESULT:      -7.9      3.253      6.161
REMARK  6 active torsions:
REMARK  status: ('A' for Active; 'I' for Inactive)
REMARK    1  A    between atoms: C2_2  and  N1_3 
REMARK    2  A    between atoms: N1_3  and  C4_5 
REMARK    3  A    between atoms: C4_5  and  C5_6 
REMARK    4  A    between atoms: C6_7  and  C7_8 
REMARK    5  A    between atoms: C7_8  and  C8_10 
REMARK    6  A    between atoms: C17_22  and  C18_23 
ROOT
HETATM    1  C8  UNL     1      25.014   2.112  51.477  1.00  0.00     0.042 A 
HETATM    2  C9  UNL     1      23.767   2.512  51.548  1.00  0.00     0.033 A 
HETATM    3  C10 UNL     1      22.756   1.852  52.348  1.00  0.00     0.011 A 
HETATM    4  C11 UNL     1      21.434   2.275  52.427  1.00  0.00     0.130 A 
HETATM    5  N2  UNL     1      20.504   1.660  53.169  1.00  0.00    -0.271 NA
HETATM    6  C12 UNL     1      20.777   0.570  53.909  1.00  0.00     0.141 A 
HETATM    7  C13 UNL     1      22.065   0.095  53.880  1.00  0.00     0.089 A 
HETATM    8  C14 UNL     1      22.448  -1.073  54.646  1.00  0.00     0.103 C 
HETATM    9  N3  UNL     1      22.738  -2.011  55.273  1.00  0.00    -0.191 NA
HETATM   10  C15 UNL     1      23.026   0.725  53.117  1.00  0.00     0.067 A 
HETATM   11  N4  UNL     1      24.360   0.254  53.071  1.00  0.00    -0.353 N 
HETATM   12  C16 UNL     1      25.307   0.939  52.272  1.00  0.00     0.047 A 
HETATM   13  C17 UNL     1      26.532   0.462  52.265  1.00  0.00     0.033 C 
HETATM   14  H16 UNL     1      24.597  -0.590  53.635  1.00  0.00     0.166 HD
ENDROOT
BRANCH   1  15
HETATM   15  C7  UNL     1      25.922   2.853  50.645  1.00  0.00     0.184 C 
HETATM   16  O1  UNL     1      27.133   3.123  50.725  1.00  0.00    -0.288 OA
BRANCH  15  17
HETATM   17  C6  UNL     1      25.611   3.518  49.409  1.00  0.00     0.053 C 
HETATM   18  C5  UNL     1      25.556   4.814  49.221  1.00  0.00     0.007 C 
BRANCH  18  19
HETATM   19  C4  UNL     1      25.675   6.167  49.748  1.00  0.00     0.299 C 
BRANCH  19  20
HETATM   20  N1  UNL     1      24.430   6.818  50.093  1.00  0.00     0.087 N 
HETATM   21  C3  UNL     1      23.540   6.781  48.949  1.00  0.00     0.310 C 
BRANCH  20  22
HETATM   22  C2  UNL     1      23.825   6.266  51.278  1.00  0.00     0.268 C 
HETATM   23  C1  UNL     1      22.378   5.951  51.182  1.00  0.00     0.037 C 
ENDBRANCH  20  22
ENDBRANCH  19  20
ENDBRANCH  18  19
ENDBRANCH  15  17
ENDBRANCH   1  15
BRANCH  13  24
HETATM   24  C18 UNL     1      27.340  -0.596  52.819  1.00  0.00     0.039 C 
HETATM   25  C19 UNL     1      28.482  -0.827  53.376  1.00  0.00     0.090 C 
HETATM   26  C20 UNL     1      29.475   0.259  53.628  1.00  0.00     0.082 C 
HETATM   27  F1  UNL     1      28.780  -2.094  53.737  1.00  0.00    -0.211 F 
ENDBRANCH  13  24
TORSDOF 6
ENDMDL
MODEL 4
REMARK VINA RESULT:      -7.8      2.458      6.277
REMARK  6 active torsions:
REMARK  status: ('A' for Active; 'I' for Inactive)
REMARK    1  A    between atoms: C2_2  and  N1_3 
REMARK    2  A    between atoms: N1_3  and  C4_5 
REMARK    3  A    between atoms: C4_5  and  C5_6 
REMARK    4  A    between atoms: C6_7  and  C7_8 
REMARK    5  A    between atoms: C7_8  and  C8_10 
REMARK    6  A    between atoms: C17_22  and  C18_23 
ROOT
HETATM    1  C8  UNL     1      23.419   1.376  51.478  1.00  0.00     0.042 A 
HETATM    2  C9  UNL     1      23.537   0.545  52.486  1.00  0.00     0.033 A 
HETATM    3  C10 UNL     1      24.729   0.435  53.302  1.00  0.00     0.011 A 
HETATM    4  C11 UNL     1      24.856  -0.444  54.372  1.00  0.00     0.130 A 
HETATM    5  N2  UNL     1      25.960  -0.541  55.122  1.00  0.00    -0.271 NA
HETATM    6  C12 UNL     1      27.051   0.215  54.900  1.00  0.00     0.141 A 
HETATM    7  C13 UNL     1      26.998   1.108  53.858  1.00  0.00     0.089 A 
HETATM    8  C14 UNL     1      28.126   1.962  53.547  1.00  0.00     0.103 C 
HETATM    9  N3  UNL     1      29.042   2.643  53.315  1.00  0.00    -0.191 NA
HETATM   10  C15 UNL     1      25.862   1.211  53.082  1.00  0.00     0.067 A 
HETATM   11  N4  UNL     1      25.783   2.123  52.003  1.00  0.00    -0.353 N 
HETATM   12  C16 UNL     1      24.593   2.189  51.240  1.00  0.00     0.047 A 
HETATM   13  C17 UNL     1      24.571   3.053  50.249  1.00  0.00     0.033 C 
HETATM   14  H16 UNL     1      26.616   2.719  51.810  1.00  0.00     0.166 HD
ENDROOT
BRANCH   1  15
HETATM   15  C7  UNL     1      22.184   1.390  50.745  1.00  0.00     0.184 C 
HETATM   16  O1  UNL     1      21.847   0.976  49.623  1.00  0.00    -0.288 OA
BRANCH  15  17
HETATM   17  C6  UNL     1      20.928   1.939  51.182  1.00  0.00     0.053 C 
HETATM   18  C5  UNL     1      19.889   1.257  51.598  1.00  0.00     0.007 C 
BRANCH  18  19
HETATM   19  C4  UNL     1      19.262  -0.025  51.891  1.00  0.00     0.299 C 
BRANCH  19  20
HETATM   20  N1  UNL     1      19.104  -0.340  53.294  1.00  0.00     0.087 N 
HETATM   21  C3  UNL     1      18.449  -1.627  53.422  1.00  0.00     0.310 C 
BRANCH  20  22
HETATM   22  C2  UNL     1      20.347  -0.282  54.019  1.00  0.00     0.268 C 
HETATM   23  C1  UNL     1      21.029  -1.580  54.244  1.00  0.00     0.037 C 
ENDBRANCH  20  22
ENDBRANCH  19  20
ENDBRANCH  18  19
ENDBRANCH  15  17
ENDBRANCH   1  15
BRANCH  13  24
HETATM   24  C18 UNL     1      25.384   4.048  49.594  1.00  0.00     0.039 C 
HETATM   25  C19 UNL     1      25.618   5.317  49.561  1.00  0.00     0.090 C 
HETATM   26  C20 UNL     1      24.892   6.281  50.440  1.00  0.00     0.082 C 
HETATM   27  F1  UNL     1      26.552   5.779  48.700  1.00  0.00    -0.211 F 
ENDBRANCH  13  24
TORSDOF 6
ENDMDL
MODEL 5
REMARK VINA RESULT:      -7.8      3.776      6.271
REMARK  6 active torsions:
REMARK  status: ('A' for Active; 'I' for Inactive)
REMARK    1  A    between atoms: C2_2  and  N1_3 
REMARK    2  A    between atoms: N1_3  and  C4_5 
REMARK    3  A    between atoms: C4_5  and  C5_6 
REMARK    4  A    between atoms: C6_7  and  C7_8 
REMARK    5  A    between atoms: C7_8  and  C8_10 
REMARK    6  A    between atoms: C17_22  and  C18_23 
ROOT
HETATM    1  C8  UNL     1      24.921   2.097  51.465  1.00  0.00     0.042 A 
HETATM    2  C9  UNL     1      23.666   2.470  51.552  1.00  0.00     0.033 A 
HETATM    3  C10 UNL     1      22.686   1.806  52.388  1.00  0.00     0.011 A 
HETATM    4  C11 UNL     1      21.357   2.201  52.483  1.00  0.00     0.130 A 
HETATM    5  N2  UNL     1      20.456   1.583  53.257  1.00  0.00    -0.271 NA
HETATM    6  C12 UNL     1      20.769   0.517  54.017  1.00  0.00     0.141 A 
HETATM    7  C13 UNL     1      22.067   0.070  53.973  1.00  0.00     0.089 A 
HETATM    8  C14 UNL     1      22.492  -1.070  54.758  1.00  0.00     0.103 C 
HETATM    9  N3  UNL     1      22.815  -1.986  55.400  1.00  0.00    -0.191 NA
HETATM   10  C15 UNL     1      22.998   0.704  53.177  1.00  0.00     0.067 A 
HETATM   11  N4  UNL     1      24.341   0.263  53.115  1.00  0.00    -0.353 N 
HETATM   12  C16 UNL     1      25.256   0.950  52.282  1.00  0.00     0.047 A 
HETATM   13  C17 UNL     1      26.492   0.501  52.261  1.00  0.00     0.033 C 
HETATM   14  H16 UNL     1      24.608  -0.562  53.693  1.00  0.00     0.166 HD
ENDROOT
BRANCH   1  15
HETATM   15  C7  UNL     1      25.795   2.838  50.599  1.00  0.00     0.184 C 
HETATM   16  O1  UNL     1      27.009   3.103  50.627  1.00  0.00    -0.288 OA
BRANCH  15  17
HETATM   17  C6  UNL     1      25.433   3.512  49.381  1.00  0.00     0.053 C 
HETATM   18  C5  UNL     1      25.444   4.808  49.182  1.00  0.00     0.007 C 
BRANCH  18  19
HETATM   19  C4  UNL     1      25.686   6.155  49.681  1.00  0.00     0.299 C 
BRANCH  19  20
HETATM   20  N1  UNL     1      26.111   7.122  48.693  1.00  0.00     0.087 N 
HETATM   21  C3  UNL     1      25.271   8.301  48.789  1.00  0.00     0.310 C 
BRANCH  20  22
HETATM   22  C2  UNL     1      27.512   7.437  48.792  1.00  0.00     0.268 C 
HETATM   23  C1  UNL     1      28.432   6.552  48.034  1.00  0.00     0.037 C 
ENDBRANCH  20  22
ENDBRANCH  19  20
ENDBRANCH  18  19
ENDBRANCH  15  17
ENDBRANCH   1  15
BRANCH  13  24
HETATM   24  C18 UNL     1      27.334  -0.525  52.823  1.00  0.00     0.039 C 
HETATM   25  C19 UNL     1      28.474  -0.710  53.402  1.00  0.00     0.090 C 
HETATM   26  C20 UNL     1      29.410   0.417  53.686  1.00  0.00     0.082 C 
HETATM   27  F1  UNL     1      28.821  -1.966  53.759  1.00  0.00    -0.211 F 
ENDBRANCH  13  24
TORSDOF 6
ENDMDL
MODEL 6
REMARK VINA RESULT:      -7.6      2.836      6.586
REMARK  6 active torsions:
REMARK  status: ('A' for Active; 'I' for Inactive)
REMARK    1  A    between atoms: C2_2  and  N1_3 
REMARK    2  A    between atoms: N1_3  and  C4_5 
REMARK    3  A    between atoms: C4_5  and  C5_6 
REMARK    4  A    between atoms: C6_7  and  C7_8 
REMARK    5  A    between atoms: C7_8  and  C8_10 
REMARK    6  A    between atoms: C17_22  and  C18_23 
ROOT
HETATM    1  C8  UNL     1      23.039   1.204  51.614  1.00  0.00     0.042 A 
HETATM    2  C9  UNL     1      23.219   0.393  52.629  1.00  0.00     0.033 A 
HETATM    3  C10 UNL     1      24.457   0.304  53.376  1.00  0.00     0.011 A 
HETATM    4  C11 UNL     1      24.650  -0.552  54.454  1.00  0.00     0.130 A 
HETATM    5  N2  UNL     1      25.798  -0.630  55.139  1.00  0.00    -0.271 NA
HETATM    6  C12 UNL     1      26.870   0.125  54.839  1.00  0.00     0.141 A 
HETATM    7  C13 UNL     1      26.752   0.996  53.784  1.00  0.00     0.089 A 
HETATM    8  C14 UNL     1      27.856   1.848  53.390  1.00  0.00     0.103 C 
HETATM    9  N3  UNL     1      28.753   2.527  53.091  1.00  0.00    -0.191 NA
HETATM   10  C15 UNL     1      25.572   1.079  53.074  1.00  0.00     0.067 A 
HETATM   11  N4  UNL     1      25.426   1.969  51.984  1.00  0.00    -0.353 N 
HETATM   12  C16 UNL     1      24.193   2.015  51.290  1.00  0.00     0.047 A 
HETATM   13  C17 UNL     1      24.108   2.860  50.285  1.00  0.00     0.033 C 
HETATM   14  H16 UNL     1      26.243   2.564  51.730  1.00  0.00     0.166 HD
ENDROOT
BRANCH   1  15
HETATM   15  C7  UNL     1      21.762   1.199  50.954  1.00  0.00     0.184 C 
HETATM   16  O1  UNL     1      20.611   1.504  51.310  1.00  0.00    -0.288 OA
BRANCH  15  17
HETATM   17  C6  UNL     1      21.494   0.800  49.599  1.00  0.00     0.053 C 
HETATM   18  C5  UNL     1      21.033   1.570  48.643  1.00  0.00     0.007 C 
BRANCH  18  19
HETATM   19  C4  UNL     1      20.572   2.877  48.194  1.00  0.00     0.299 C 
BRANCH  19  20
HETATM   20  N1  UNL     1      21.333   4.010  48.673  1.00  0.00     0.087 N 
HETATM   21  C3  UNL     1      21.867   4.739  47.540  1.00  0.00     0.310 C 
BRANCH  20  22
HETATM   22  C2  UNL     1      20.575   4.852  49.561  1.00  0.00     0.268 C 
HETATM   23  C1  UNL     1      21.069   4.936  50.958  1.00  0.00     0.037 C 
ENDBRANCH  20  22
ENDBRANCH  19  20
ENDBRANCH  18  19
ENDBRANCH  15  17
ENDBRANCH   1  15
BRANCH  13  24
HETATM   24  C18 UNL     1      24.877   3.843  49.564  1.00  0.00     0.039 C 
HETATM   25  C19 UNL     1      25.170   5.101  49.547  1.00  0.00     0.090 C 
HETATM   26  C20 UNL     1      24.618   6.057  50.551  1.00  0.00     0.082 C 
HETATM   27  F1  UNL     1      26.003   5.556  48.585  1.00  0.00    -0.211 F 
ENDBRANCH  13  24
TORSDOF 6
ENDMDL
MODEL 7
REMARK VINA RESULT:      -7.4      2.932      6.204
REMARK  6 active torsions:
REMARK  status: ('A' for Active; 'I' for Inactive)
REMARK    1  A    between atoms: C2_2  and  N1_3 
REMARK    2  A    between atoms: N1_3  and  C4_5 
REMARK    3  A    between atoms: C4_5  and  C5_6 
REMARK    4  A    between atoms: C6_7  and  C7_8 
REMARK    5  A    between atoms: C7_8  and  C8_10 
REMARK    6  A    between atoms: C17_22  and  C18_23 
ROOT
HETATM    1  C8  UNL     1      21.892   1.022  51.423  1.00  0.00     0.042 A 
HETATM    2  C9  UNL     1      21.385   0.196  52.308  1.00  0.00     0.033 A 
HETATM    3  C10 UNL     1      22.151  -0.393  53.388  1.00  0.00     0.011 A 
HETATM    4  C11 UNL     1      21.617  -1.266  54.328  1.00  0.00     0.130 A 
HETATM    5  N2  UNL     1      22.330  -1.807  55.324  1.00  0.00    -0.271 NA
HETATM    6  C12 UNL     1      23.638  -1.545  55.498  1.00  0.00     0.141 A 
HETATM    7  C13 UNL     1      24.235  -0.689  54.605  1.00  0.00     0.089 A 
HETATM    8  C14 UNL     1      25.638  -0.350  54.718  1.00  0.00     0.103 C 
HETATM    9  N3  UNL     1      26.768  -0.087  54.827  1.00  0.00    -0.191 NA
HETATM   10  C15 UNL     1      23.504  -0.129  53.578  1.00  0.00     0.067 A 
HETATM   11  N4  UNL     1      24.095   0.756  52.646  1.00  0.00    -0.353 N 
HETATM   12  C16 UNL     1      23.299   1.302  51.611  1.00  0.00     0.047 A 
HETATM   13  C17 UNL     1      23.897   2.119  50.771  1.00  0.00     0.033 C 
HETATM   14  H16 UNL     1      25.108   0.974  52.759  1.00  0.00     0.166 HD
ENDROOT
BRANCH   1  15
HETATM   15  C7  UNL     1      21.028   1.538  50.398  1.00  0.00     0.184 C 
HETATM   16  O1  UNL     1      20.853   1.256  49.200  1.00  0.00    -0.288 OA
BRANCH  15  17
HETATM   17  C6  UNL     1      20.072   2.604  50.533  1.00  0.00     0.053 C 
HETATM   18  C5  UNL     1      20.316   3.884  50.388  1.00  0.00     0.007 C 
BRANCH  18  19
HETATM   19  C4  UNL     1      21.256   4.961  50.105  1.00  0.00     0.299 C 
BRANCH  19  20
HETATM   20  N1  UNL     1      21.592   5.810  51.226  1.00  0.00     0.087 N 
HETATM   21  C3  UNL     1      22.394   5.057  52.171  1.00  0.00     0.310 C 
BRANCH  20  22
HETATM   22  C2  UNL     1      22.228   7.037  50.821  1.00  0.00     0.268 C 
HETATM   23  C1  UNL     1      21.429   7.924  49.940  1.00  0.00     0.037 C 
ENDBRANCH  20  22
ENDBRANCH  19  20
ENDBRANCH  18  19
ENDBRANCH  15  17
ENDBRANCH   1  15
BRANCH  13  24
HETATM   24  C18 UNL     1      25.178   2.718  50.491  1.00  0.00     0.039 C 
HETATM   25  C19 UNL     1      25.729   3.735  49.916  1.00  0.00     0.090 C 
HETATM   26  C20 UNL     1      24.924   4.793  49.238  1.00  0.00     0.082 C 
HETATM   27  F1  UNL     1      27.076   3.836  49.935  1.00  0.00    -0.211 F 
ENDBRANCH  13  24
TORSDOF 6
ENDMDL
MODEL 8
REMARK VINA RESULT:      -7.3      2.963      5.237
REMARK  6 active torsions:
REMARK  status: ('A' for Active; 'I' for Inactive)
REMARK    1  A    between atoms: C2_2  and  N1_3 
REMARK    2  A    between atoms: N1_3  and  C4_5 
REMARK    3  A    between atoms: C4_5  and  C5_6 
REMARK    4  A    between atoms: C6_7  and  C7_8 
REMARK    5  A    between atoms: C7_8  and  C8_10 
REMARK    6  A    between atoms: C17_22  and  C18_23 
ROOT
HETATM    1  C8  UNL     1      24.569   1.887  51.163  1.00  0.00     0.042 A 
HETATM    2  C9  UNL     1      25.490   1.618  52.058  1.00  0.00     0.033 A 
HETATM    3  C10 UNL     1      25.274   0.745  53.194  1.00  0.00     0.011 A 
HETATM    4  C11 UNL     1      26.248   0.456  54.143  1.00  0.00     0.130 A 
HETATM    5  N2  UNL     1      26.043  -0.353  55.190  1.00  0.00    -0.271 NA
HETATM    6  C12 UNL     1      24.863  -0.960  55.411  1.00  0.00     0.141 A 
HETATM    7  C13 UNL     1      23.853  -0.722  54.513  1.00  0.00     0.089 A 
HETATM    8  C14 UNL     1      22.550  -1.335  54.672  1.00  0.00     0.103 C 
HETATM    9  N3  UNL     1      21.511  -1.840  54.815  1.00  0.00    -0.191 NA
HETATM   10  C15 UNL     1      24.059   0.111  53.432  1.00  0.00     0.067 A 
HETATM   11  N4  UNL     1      23.034   0.372  52.493  1.00  0.00    -0.353 N 
HETATM   12  C16 UNL     1      23.301   1.234  51.402  1.00  0.00     0.047 A 
HETATM   13  C17 UNL     1      22.314   1.443  50.557  1.00  0.00     0.033 C 
HETATM   14  H16 UNL     1      22.110  -0.086  52.642  1.00  0.00     0.166 HD
ENDROOT
BRANCH   1  15
HETATM   15  C7  UNL     1      24.907   2.771  50.081  1.00  0.00     0.184 C 
HETATM   16  O1  UNL     1      24.241   3.344  49.202  1.00  0.00    -0.288 OA
BRANCH  15  17
HETATM   17  C6  UNL     1      26.219   3.244  49.732  1.00  0.00     0.053 C 
HETATM   18  C5  UNL     1      26.526   4.459  49.346  1.00  0.00     0.007 C 
BRANCH  18  19
HETATM   19  C4  UNL     1      26.114   5.821  49.036  1.00  0.00     0.299 C 
BRANCH  19  20
HETATM   20  N1  UNL     1      25.686   6.619  50.165  1.00  0.00     0.087 N 
HETATM   21  C3  UNL     1      26.261   7.945  50.056  1.00  0.00     0.310 C 
BRANCH  20  22
HETATM   22  C2  UNL     1      24.254   6.651  50.311  1.00  0.00     0.268 C 
HETATM   23  C1  UNL     1      23.709   5.981  51.517  1.00  0.00     0.037 C 
ENDBRANCH  20  22
ENDBRANCH  19  20
ENDBRANCH  18  19
ENDBRANCH  15  17
ENDBRANCH   1  15
BRANCH  13  24
HETATM   24  C18 UNL     1      20.939   1.087  50.310  1.00  0.00     0.039 C 
HETATM   25  C19 UNL     1      19.838   0.779  50.910  1.00  0.00     0.090 C 
HETATM   26  C20 UNL     1      19.740   0.708  52.398  1.00  0.00     0.082 C 
HETATM   27  F1  UNL     1      18.746   0.512  50.160  1.00  0.00    -0.211 F 
ENDBRANCH  13  24
TORSDOF 6
ENDMDL
MODEL 9
REMARK VINA RESULT:      -7.3      2.916      7.364
REMARK  6 active torsions:
REMARK  status: ('A' for Active; 'I' for Inactive)
REMARK    1  A    between atoms: C2_2  and  N1_3 
REMARK    2  A    between atoms: N1_3  and  C4_5 
REMARK    3  A    between atoms: C4_5  and  C5_6 
REMARK    4  A    between atoms: C6_7  and  C7_8 
REMARK    5  A    between atoms: C7_8  and  C8_10 
REMARK    6  A    between atoms: C17_22  and  C18_23 
ROOT
HETATM    1  C8  UNL     1      23.185   1.872  50.841  1.00  0.00     0.042 A 
HETATM    2  C9  UNL     1      24.378   2.403  50.715  1.00  0.00     0.033 A 
HETATM    3  C10 UNL     1      25.482   2.115  51.608  1.00  0.00     0.011 A 
HETATM    4  C11 UNL     1      26.748   2.674  51.477  1.00  0.00     0.130 A 
HETATM    5  N2  UNL     1      27.765   2.404  52.305  1.00  0.00    -0.271 NA
HETATM    6  C12 UNL     1      27.643   1.557  53.343  1.00  0.00     0.141 A 
HETATM    7  C13 UNL     1      26.419   0.966  53.535  1.00  0.00     0.089 A 
HETATM    8  C14 UNL     1      26.198   0.041  54.627  1.00  0.00     0.103 C 
HETATM    9  N3  UNL     1      26.041  -0.704  55.509  1.00  0.00    -0.191 NA
HETATM   10  C15 UNL     1      25.368   1.242  52.685  1.00  0.00     0.067 A 
HETATM   11  N4  UNL     1      24.098   0.645  52.861  1.00  0.00    -0.353 N 
HETATM   12  C16 UNL     1      23.055   0.962  51.958  1.00  0.00     0.047 A 
HETATM   13  C17 UNL     1      21.893   0.380  52.165  1.00  0.00     0.033 C 
HETATM   14  H16 UNL     1      23.977  -0.014  53.659  1.00  0.00     0.166 HD
ENDROOT
BRANCH   1  15
HETATM   15  C7  UNL     1      22.171   2.239  49.890  1.00  0.00     0.184 C 
HETATM   16  O1  UNL     1      21.756   1.726  48.837  1.00  0.00    -0.288 OA
BRANCH  15  17
HETATM   17  C6  UNL     1      21.321   3.398  49.941  1.00  0.00     0.053 C 
HETATM   18  C5  UNL     1      20.272   3.552  50.712  1.00  0.00     0.007 C 
BRANCH  18  19
HETATM   19  C4  UNL     1      19.374   3.031  51.734  1.00  0.00     0.299 C 
BRANCH  19  20
HETATM   20  N1  UNL     1      18.001   2.838  51.322  1.00  0.00     0.087 N 
HETATM   21  C3  UNL     1      17.490   4.078  50.771  1.00  0.00     0.310 C 
BRANCH  20  22
HETATM   22  C2  UNL     1      17.843   1.728  50.418  1.00  0.00     0.268 C 
HETATM   23  C1  UNL     1      18.322   0.414  50.913  1.00  0.00     0.037 C 
ENDBRANCH  20  22
ENDBRANCH  19  20
ENDBRANCH  18  19
ENDBRANCH  15  17
ENDBRANCH   1  15
BRANCH  13  24
HETATM   24  C18 UNL     1      21.231  -0.545  53.052  1.00  0.00     0.039 C 
HETATM   25  C19 UNL     1      21.354  -1.132  54.196  1.00  0.00     0.090 C 
HETATM   26  C20 UNL     1      22.538  -0.910  55.077  1.00  0.00     0.082 C 
HETATM   27  F1  UNL     1      20.376  -1.972  54.598  1.00  0.00    -0.211 F 
ENDBRANCH  13  24
TORSDOF 6
ENDMDL
