MODEL 1
REMARK VINA RESULT:      -8.8      0.000      0.000
REMARK  3 active torsions:
REMARK  status: ('A' for Active; 'I' for Inactive)
REMARK    1  A    between atoms: N1_1  and  C1_2 
REMARK    2  A    between atoms: C5_7  and  C6_8 
REMARK    3  A    between atoms: N4_10  and  C7_11 
ROOT
HETATM    1  C6  UNL     1      25.971   1.167  53.244  1.00  0.00     0.145 C 
HETATM    2  N3  UNL     1      24.907   0.223  53.361  1.00  0.00    -0.224 NA
HETATM    3  N4  UNL     1      23.640   0.811  53.321  1.00  0.00    -0.306 N 
HETATM    4  C11 UNL     1      23.615   2.253  53.031  1.00  0.00     0.182 C 
HETATM    5  C12 UNL     1      24.542   2.470  51.868  1.00  0.00    -0.031 A 
HETATM    6  C13 UNL     1      24.154   3.201  50.764  1.00  0.00     0.009 A 
HETATM    7  C14 UNL     1      25.056   3.363  49.719  1.00  0.00     0.001 A 
HETATM    8  C15 UNL     1      26.299   2.794  49.815  1.00  0.00     0.001 A 
HETATM    9  C16 UNL     1      26.692   2.062  50.918  1.00  0.00     0.010 A 
HETATM   10  C17 UNL     1      25.807   1.896  51.958  1.00  0.00    -0.026 A 
HETATM   11  H7  UNL     1      24.936  -0.387  52.496  1.00  0.00     0.147 HD
ENDROOT
BRANCH   1  12
HETATM   12  C5  UNL     1      27.266   0.447  53.320  1.00  0.00    -0.005 A 
HETATM   13  C1  UNL     1      28.409   1.103  53.723  1.00  0.00     0.051 A 
HETATM   14  C2  UNL     1      29.607   0.452  53.794  1.00  0.00     0.145 A 
HETATM   15  N2  UNL     1      29.744  -0.846  53.480  1.00  0.00    -0.271 NA
HETATM   16  C3  UNL     1      28.661  -1.521  53.084  1.00  0.00     0.117 A 
HETATM   17  C4  UNL     1      27.438  -0.885  53.004  1.00  0.00     0.030 A 
BRANCH  13  18
HETATM   18  N1  UNL     1      28.412   2.471  54.087  1.00  0.00    -0.397 N 
HETATM   19  H1  UNL     1      28.558   2.966  54.991  1.00  0.00     0.156 HD
HETATM   20  H2  UNL     1      28.250   3.241  53.423  1.00  0.00     0.156 HD
ENDBRANCH  13  18
ENDBRANCH   1  12
BRANCH   3  21
HETATM   21  C7  UNL     1      22.495  -0.001  53.556  1.00  0.00     0.067 A 
HETATM   22  C8  UNL     1      22.194  -0.826  54.556  1.00  0.00     0.034 A 
HETATM   23  C9  UNL     1      20.933  -1.112  53.884  1.00  0.00     0.028 A 
HETATM   24  C10 UNL     1      21.235  -0.284  52.881  1.00  0.00     0.061 A 
HETATM   25 CL1  UNL     1      20.462   0.236  51.400  1.00  0.00    -0.082 Cl
ENDBRANCH   3  21
TORSDOF 3
ENDMDL
MODEL 2
REMARK VINA RESULT:      -8.7      2.096      4.267
REMARK  3 active torsions:
REMARK  status: ('A' for Active; 'I' for Inactive)
REMARK    1  A    between atoms: N1_1  and  C1_2 
REMARK    2  A    between atoms: C5_7  and  C6_8 
REMARK    3  A    between atoms: N4_10  and  C7_11 
ROOT
HETATM    1  C6  UNL     1      25.242   0.220  52.562  1.00  0.00     0.145 C 
HETATM    2  N3  UNL     1      25.244   1.644  52.469  1.00  0.00    -0.224 NA
HETATM    3  N4  UNL     1      24.051   2.164  51.960  1.00  0.00    -0.306 N 
HETATM    4  C11 UNL     1      22.971   1.190  51.743  1.00  0.00     0.182 C 
HETATM    5  C12 UNL     1      22.910   0.338  52.980  1.00  0.00    -0.031 A 
HETATM    6  C13 UNL     1      21.717   0.096  53.629  1.00  0.00     0.009 A 
HETATM    7  C14 UNL     1      21.727  -0.696  54.772  1.00  0.00     0.001 A 
HETATM    8  C15 UNL     1      22.916  -1.212  55.217  1.00  0.00     0.001 A 
HETATM    9  C16 UNL     1      24.113  -0.972  54.570  1.00  0.00     0.010 A 
HETATM   10  C17 UNL     1      24.113  -0.189  53.439  1.00  0.00    -0.026 A 
HETATM   11  H7  UNL     1      25.288   2.020  53.458  1.00  0.00     0.147 HD
ENDROOT
BRANCH   1  12
HETATM   12  C5  UNL     1      26.555  -0.230  53.089  1.00  0.00    -0.005 A 
HETATM   13  C1  UNL     1      27.201   0.492  54.068  1.00  0.00     0.051 A 
HETATM   14  C2  UNL     1      28.410   0.089  54.559  1.00  0.00     0.145 A 
HETATM   15  N2  UNL     1      29.034  -1.017  54.124  1.00  0.00    -0.271 NA
HETATM   16  C3  UNL     1      28.443  -1.748  53.175  1.00  0.00     0.117 A 
HETATM   17  C4  UNL     1      27.221  -1.362  52.663  1.00  0.00     0.030 A 
BRANCH  13  18
HETATM   18  N1  UNL     1      26.659   1.676  54.621  1.00  0.00    -0.397 N 
HETATM   19  H1  UNL     1      26.096   1.870  55.475  1.00  0.00     0.156 HD
HETATM   20  H2  UNL     1      26.766   2.609  54.197  1.00  0.00     0.156 HD
ENDBRANCH  13  18
ENDBRANCH   1  12
BRANCH   3  21
HETATM   21  C7  UNL     1      23.965   3.560  51.695  1.00  0.00     0.067 A 
HETATM   22  C8  UNL     1      23.292   4.531  52.310  1.00  0.00     0.034 A 
HETATM   23  C9  UNL     1      23.842   5.469  51.340  1.00  0.00     0.028 A 
HETATM   24  C10 UNL     1      24.517   4.496  50.723  1.00  0.00     0.061 A 
HETATM   25 CL1  UNL     1      25.595   4.384  49.349  1.00  0.00    -0.082 Cl
ENDBRANCH   3  21
TORSDOF 3
ENDMDL
MODEL 3
REMARK VINA RESULT:      -8.6      2.114      4.423
REMARK  3 active torsions:
REMARK  status: ('A' for Active; 'I' for Inactive)
REMARK    1  A    between atoms: N1_1  and  C1_2 
REMARK    2  A    between atoms: C5_7  and  C6_8 
REMARK    3  A    between atoms: N4_10  and  C7_11 
ROOT
HETATM    1  C6  UNL     1      25.471   0.372  52.726  1.00  0.00     0.145 C 
HETATM    2  N3  UNL     1      25.337   1.790  52.632  1.00  0.00    -0.224 NA
HETATM    3  N4  UNL     1      24.099   2.195  52.125  1.00  0.00    -0.306 N 
HETATM    4  C11 UNL     1      23.117   1.121  51.910  1.00  0.00     0.182 C 
HETATM    5  C12 UNL     1      23.138   0.268  53.147  1.00  0.00    -0.031 A 
HETATM    6  C13 UNL     1      21.975  -0.086  53.798  1.00  0.00     0.009 A 
HETATM    7  C14 UNL     1      22.062  -0.874  54.940  1.00  0.00     0.001 A 
HETATM    8  C15 UNL     1      23.295  -1.274  55.384  1.00  0.00     0.001 A 
HETATM    9  C16 UNL     1      24.463  -0.922  54.735  1.00  0.00     0.010 A 
HETATM   10  C17 UNL     1      24.387  -0.142  53.604  1.00  0.00    -0.026 A 
HETATM   11  H7  UNL     1      25.346   2.169  53.621  1.00  0.00     0.147 HD
ENDROOT
BRANCH   1  12
HETATM   12  C5  UNL     1      26.821   0.049  53.251  1.00  0.00    -0.005 A 
HETATM   13  C1  UNL     1      27.434  -1.140  52.923  1.00  0.00     0.051 A 
HETATM   14  C2  UNL     1      28.674  -1.450  53.403  1.00  0.00     0.145 A 
HETATM   15  N2  UNL     1      29.362  -0.628  54.212  1.00  0.00    -0.271 NA
HETATM   16  C3  UNL     1      28.805   0.536  54.557  1.00  0.00     0.117 A 
HETATM   17  C4  UNL     1      27.552   0.872  54.084  1.00  0.00     0.030 A 
BRANCH  13  18
HETATM   18  N1  UNL     1      26.828  -2.099  52.077  1.00  0.00    -0.397 N 
HETATM   19  H1  UNL     1      25.844  -2.260  51.774  1.00  0.00     0.156 HD
HETATM   20  H2  UNL     1      27.344  -2.849  51.596  1.00  0.00     0.156 HD
ENDBRANCH  13  18
ENDBRANCH   1  12
BRANCH   3  21
HETATM   21  C7  UNL     1      23.880   3.575  51.860  1.00  0.00     0.067 A 
HETATM   22  C8  UNL     1      23.209   4.504  52.539  1.00  0.00     0.034 A 
HETATM   23  C9  UNL     1      23.576   5.464  51.506  1.00  0.00     0.028 A 
HETATM   24  C10 UNL     1      24.249   4.533  50.826  1.00  0.00     0.061 A 
HETATM   25 CL1  UNL     1      25.172   4.478  49.340  1.00  0.00    -0.082 Cl
ENDBRANCH   3  21
TORSDOF 3
ENDMDL
MODEL 4
REMARK VINA RESULT:      -8.4      3.666      5.981
REMARK  3 active torsions:
REMARK  status: ('A' for Active; 'I' for Inactive)
REMARK    1  A    between atoms: N1_1  and  C1_2 
REMARK    2  A    between atoms: C5_7  and  C6_8 
REMARK    3  A    between atoms: N4_10  and  C7_11 
ROOT
HETATM    1  C6  UNL     1      24.900   4.247  50.790  1.00  0.00     0.145 C 
HETATM    2  N3  UNL     1      25.934   3.316  51.106  1.00  0.00    -0.224 NA
HETATM    3  N4  UNL     1      25.470   2.180  51.774  1.00  0.00    -0.306 N 
HETATM    4  C11 UNL     1      24.009   2.074  51.911  1.00  0.00     0.182 C 
HETATM    5  C12 UNL     1      23.430   2.398  50.562  1.00  0.00    -0.031 A 
HETATM    6  C13 UNL     1      22.486   1.585  49.969  1.00  0.00     0.009 A 
HETATM    7  C14 UNL     1      21.991   1.938  48.719  1.00  0.00     0.001 A 
HETATM    8  C15 UNL     1      22.453   3.078  48.115  1.00  0.00     0.001 A 
HETATM    9  C16 UNL     1      23.397   3.895  48.705  1.00  0.00     0.010 A 
HETATM   10  C17 UNL     1      23.893   3.555  49.942  1.00  0.00    -0.026 A 
HETATM   11  H7  UNL     1      26.306   2.942  50.188  1.00  0.00     0.147 HD
ENDROOT
BRANCH   1  12
HETATM   12  C5  UNL     1      25.498   5.420  50.107  1.00  0.00    -0.005 A 
HETATM   13  C1  UNL     1      25.228   6.699  50.545  1.00  0.00     0.051 A 
HETATM   14  C2  UNL     1      25.770   7.786  49.922  1.00  0.00     0.145 A 
HETATM   15  N2  UNL     1      26.586   7.680  48.861  1.00  0.00    -0.271 NA
HETATM   16  C3  UNL     1      26.874   6.458  48.403  1.00  0.00     0.117 A 
HETATM   17  C4  UNL     1      26.339   5.343  49.015  1.00  0.00     0.030 A 
BRANCH  13  18
HETATM   18  N1  UNL     1      24.388   6.960  51.654  1.00  0.00    -0.397 N 
HETATM   19  H1  UNL     1      23.395   7.261  51.739  1.00  0.00     0.156 HD
HETATM   20  H2  UNL     1      24.689   6.875  52.635  1.00  0.00     0.156 HD
ENDBRANCH  13  18
ENDBRANCH   1  12
BRANCH   3  21
HETATM   21  C7  UNL     1      26.413   1.232  52.260  1.00  0.00     0.067 A 
HETATM   22  C8  UNL     1      26.436  -0.098  52.192  1.00  0.00     0.034 A 
HETATM   23  C9  UNL     1      27.698  -0.071  52.921  1.00  0.00     0.028 A 
HETATM   24  C10 UNL     1      27.675   1.262  52.989  1.00  0.00     0.061 A 
HETATM   25 CL1  UNL     1      28.704   2.508  53.659  1.00  0.00    -0.082 Cl
ENDBRANCH   3  21
TORSDOF 3
ENDMDL
MODEL 5
REMARK VINA RESULT:      -8.2      2.621      5.813
REMARK  3 active torsions:
REMARK  status: ('A' for Active; 'I' for Inactive)
REMARK    1  A    between atoms: N1_1  and  C1_2 
REMARK    2  A    between atoms: C5_7  and  C6_8 
REMARK    3  A    between atoms: N4_10  and  C7_11 
ROOT
HETATM    1  C6  UNL     1      25.228   2.198  52.762  1.00  0.00     0.145 C 
HETATM    2  N3  UNL     1      26.492   1.572  52.549  1.00  0.00    -0.224 NA
HETATM    3  N4  UNL     1      26.848   0.687  53.569  1.00  0.00    -0.306 N 
HETATM    4  C11 UNL     1      25.822   0.451  54.596  1.00  0.00     0.182 C 
HETATM    5  C12 UNL     1      24.531   0.215  53.863  1.00  0.00    -0.031 A 
HETATM    6  C13 UNL     1      23.724  -0.864  54.155  1.00  0.00     0.009 A 
HETATM    7  C14 UNL     1      22.544  -1.030  53.438  1.00  0.00     0.001 A 
HETATM    8  C15 UNL     1      22.219  -0.119  52.466  1.00  0.00     0.001 A 
HETATM    9  C16 UNL     1      23.024   0.964  52.171  1.00  0.00     0.010 A 
HETATM   10  C17 UNL     1      24.194   1.135  52.875  1.00  0.00    -0.026 A 
HETATM   11  H7  UNL     1      26.393   0.954  51.694  1.00  0.00     0.147 HD
ENDROOT
BRANCH   1  12
HETATM   12  C5  UNL     1      24.955   3.130  51.639  1.00  0.00    -0.005 A 
HETATM   13  C1  UNL     1      24.267   4.304  51.855  1.00  0.00     0.051 A 
HETATM   14  C2  UNL     1      24.007   5.167  50.829  1.00  0.00     0.145 A 
HETATM   15  N2  UNL     1      24.400   4.930  49.568  1.00  0.00    -0.271 NA
HETATM   16  C3  UNL     1      25.071   3.803  49.313  1.00  0.00     0.117 A 
HETATM   17  C4  UNL     1      25.346   2.914  50.333  1.00  0.00     0.030 A 
BRANCH  13  18
HETATM   18  N1  UNL     1      23.795   4.684  53.134  1.00  0.00    -0.397 N 
HETATM   19  H1  UNL     1      22.989   4.374  53.716  1.00  0.00     0.156 HD
HETATM   20  H2  UNL     1      24.244   5.401  53.722  1.00  0.00     0.156 HD
ENDBRANCH  13  18
ENDBRANCH   1  12
BRANCH   3  21
HETATM   21  C7  UNL     1      28.140   0.091  53.546  1.00  0.00     0.067 A 
HETATM   22  C8  UNL     1      29.345   0.596  53.805  1.00  0.00     0.034 A 
HETATM   23  C9  UNL     1      29.910  -0.716  53.518  1.00  0.00     0.028 A 
HETATM   24  C10 UNL     1      28.703  -1.223  53.259  1.00  0.00     0.061 A 
HETATM   25 CL1  UNL     1      28.065  -2.781  52.780  1.00  0.00    -0.082 Cl
ENDBRANCH   3  21
TORSDOF 3
ENDMDL
MODEL 6
REMARK VINA RESULT:      -8.1      1.837      4.338
REMARK  3 active torsions:
REMARK  status: ('A' for Active; 'I' for Inactive)
REMARK    1  A    between atoms: N1_1  and  C1_2 
REMARK    2  A    between atoms: C5_7  and  C6_8 
REMARK    3  A    between atoms: N4_10  and  C7_11 
ROOT
HETATM    1  C6  UNL     1      25.836   1.353  51.703  1.00  0.00     0.145 C 
HETATM    2  N3  UNL     1      24.618   1.099  52.403  1.00  0.00    -0.224 NA
HETATM    3  N4  UNL     1      24.617  -0.121  53.084  1.00  0.00    -0.306 N 
HETATM    4  C11 UNL     1      25.892  -0.855  53.080  1.00  0.00     0.182 C 
HETATM    5  C12 UNL     1      26.963   0.148  53.409  1.00  0.00    -0.031 A 
HETATM    6  C13 UNL     1      27.908  -0.101  54.382  1.00  0.00     0.009 A 
HETATM    7  C14 UNL     1      28.870   0.869  54.643  1.00  0.00     0.001 A 
HETATM    8  C15 UNL     1      28.851   2.038  53.928  1.00  0.00     0.001 A 
HETATM    9  C16 UNL     1      27.907   2.291  52.952  1.00  0.00     0.010 A 
HETATM   10  C17 UNL     1      26.951   1.338  52.687  1.00  0.00    -0.026 A 
HETATM   11  H7  UNL     1      24.545   1.824  53.172  1.00  0.00     0.147 HD
ENDROOT
BRANCH   1  12
HETATM   12  C5  UNL     1      25.725   2.654  50.999  1.00  0.00    -0.005 A 
HETATM   13  C1  UNL     1      24.820   3.605  51.421  1.00  0.00     0.051 A 
HETATM   14  C2  UNL     1      24.708   4.804  50.779  1.00  0.00     0.145 A 
HETATM   15  N2  UNL     1      25.458   5.127  49.714  1.00  0.00    -0.271 NA
HETATM   16  C3  UNL     1      26.349   4.235  49.271  1.00  0.00     0.117 A 
HETATM   17  C4  UNL     1      26.482   3.015  49.903  1.00  0.00     0.030 A 
BRANCH  13  18
HETATM   18  N1  UNL     1      23.967   3.400  52.531  1.00  0.00    -0.397 N 
HETATM   19  H1  UNL     1      23.323   2.627  52.801  1.00  0.00     0.156 HD
HETATM   20  H2  UNL     1      23.863   4.070  53.306  1.00  0.00     0.156 HD
ENDBRANCH  13  18
ENDBRANCH   1  12
BRANCH   3  21
HETATM   21  C7  UNL     1      23.420  -0.557  53.718  1.00  0.00     0.067 A 
HETATM   22  C8  UNL     1      23.213  -1.149  54.893  1.00  0.00     0.034 A 
HETATM   23  C9  UNL     1      21.788  -1.155  54.591  1.00  0.00     0.028 A 
HETATM   24  C10 UNL     1      21.995  -0.562  53.413  1.00  0.00     0.061 A 
HETATM   25 CL1  UNL     1      20.997  -0.023  52.080  1.00  0.00    -0.082 Cl
ENDBRANCH   3  21
TORSDOF 3
ENDMDL
MODEL 7
REMARK VINA RESULT:      -7.7      2.458      5.489
REMARK  3 active torsions:
REMARK  status: ('A' for Active; 'I' for Inactive)
REMARK    1  A    between atoms: N1_1  and  C1_2 
REMARK    2  A    between atoms: C5_7  and  C6_8 
REMARK    3  A    between atoms: N4_10  and  C7_11 
ROOT
HETATM    1  C6  UNL     1      24.562  -0.034  52.642  1.00  0.00     0.145 C 
HETATM    2  N3  UNL     1      25.808  -0.153  53.328  1.00  0.00    -0.224 NA
HETATM    3  N4  UNL     1      26.887   0.359  52.604  1.00  0.00    -0.306 N 
HETATM    4  C11 UNL     1      26.545   1.043  51.348  1.00  0.00     0.182 C 
HETATM    5  C12 UNL     1      25.395   1.958  51.660  1.00  0.00    -0.031 A 
HETATM    6  C13 UNL     1      25.405   3.284  51.277  1.00  0.00     0.009 A 
HETATM    7  C14 UNL     1      24.312   4.080  51.600  1.00  0.00     0.001 A 
HETATM    8  C15 UNL     1      23.261   3.528  52.284  1.00  0.00     0.001 A 
HETATM    9  C16 UNL     1      23.246   2.201  52.668  1.00  0.00     0.010 A 
HETATM   10  C17 UNL     1      24.323   1.405  52.354  1.00  0.00    -0.026 A 
HETATM   11  H7  UNL     1      25.752   0.470  54.183  1.00  0.00     0.147 HD
ENDROOT
BRANCH   1  12
HETATM   12  C5  UNL     1      23.490  -0.624  53.482  1.00  0.00    -0.005 A 
HETATM   13  C1  UNL     1      23.767  -1.080  54.753  1.00  0.00     0.051 A 
HETATM   14  C2  UNL     1      22.790  -1.627  55.534  1.00  0.00     0.145 A 
HETATM   15  N2  UNL     1      21.520  -1.755  55.119  1.00  0.00    -0.271 NA
HETATM   16  C3  UNL     1      21.207  -1.326  53.892  1.00  0.00     0.117 A 
HETATM   17  C4  UNL     1      22.177  -0.769  53.084  1.00  0.00     0.030 A 
BRANCH  13  18
HETATM   18  N1  UNL     1      25.061  -1.006  55.321  1.00  0.00    -0.397 N 
HETATM   19  H1  UNL     1      25.768  -1.726  55.578  1.00  0.00     0.156 HD
HETATM   20  H2  UNL     1      25.523  -0.124  55.584  1.00  0.00     0.156 HD
ENDBRANCH  13  18
ENDBRANCH   1  12
BRANCH   3  21
HETATM   21  C7  UNL     1      28.204   0.189  53.116  1.00  0.00     0.067 A 
HETATM   22  C8  UNL     1      29.097   1.075  53.555  1.00  0.00     0.034 A 
HETATM   23  C9  UNL     1      30.005  -0.034  53.818  1.00  0.00     0.028 A 
HETATM   24  C10 UNL     1      29.110  -0.922  53.378  1.00  0.00     0.061 A 
HETATM   25 CL1  UNL     1      29.047  -2.661  53.193  1.00  0.00    -0.082 Cl
ENDBRANCH   3  21
TORSDOF 3
ENDMDL
MODEL 8
REMARK VINA RESULT:      -7.6      5.863      7.712
REMARK  3 active torsions:
REMARK  status: ('A' for Active; 'I' for Inactive)
REMARK    1  A    between atoms: N1_1  and  C1_2 
REMARK    2  A    between atoms: C5_7  and  C6_8 
REMARK    3  A    between atoms: N4_10  and  C7_11 
ROOT
HETATM    1  C6  UNL     1      29.357   6.431  48.569  1.00  0.00     0.145 C 
HETATM    2  N3  UNL     1      28.493   5.307  48.734  1.00  0.00    -0.224 NA
HETATM    3  N4  UNL     1      27.153   5.662  48.911  1.00  0.00    -0.306 N 
HETATM    4  C11 UNL     1      26.848   7.094  48.761  1.00  0.00     0.182 C 
HETATM    5  C12 UNL     1      27.551   7.552  47.514  1.00  0.00    -0.031 A 
HETATM    6  C13 UNL     1      26.894   8.277  46.542  1.00  0.00     0.009 A 
HETATM    7  C14 UNL     1      27.599   8.667  45.409  1.00  0.00     0.001 A 
HETATM    8  C15 UNL     1      28.920   8.323  45.292  1.00  0.00     0.001 A 
HETATM    9  C16 UNL     1      29.583   7.598  46.263  1.00  0.00     0.010 A 
HETATM   10  C17 UNL     1      28.894   7.206  47.388  1.00  0.00    -0.026 A 
HETATM   11  H7  UNL     1      28.500   4.773  47.819  1.00  0.00     0.147 HD
ENDROOT
BRANCH   1  12
HETATM   12  C5  UNL     1      30.752   5.948  48.412  1.00  0.00    -0.005 A 
HETATM   13  C1  UNL     1      31.786   6.564  49.083  1.00  0.00     0.051 A 
HETATM   14  C2  UNL     1      33.073   6.131  48.943  1.00  0.00     0.145 A 
HETATM   15  N2  UNL     1      33.406   5.096  48.157  1.00  0.00    -0.271 NA
HETATM   16  C3  UNL     1      32.435   4.468  47.488  1.00  0.00     0.117 A 
HETATM   17  C4  UNL     1      31.125   4.887  47.612  1.00  0.00     0.030 A 
BRANCH  13  18
HETATM   18  N1  UNL     1      31.581   7.666  49.947  1.00  0.00    -0.397 N 
HETATM   19  H1  UNL     1      30.869   7.873  50.679  1.00  0.00     0.156 HD
HETATM   20  H2  UNL     1      32.181   8.503  49.963  1.00  0.00     0.156 HD
ENDBRANCH  13  18
ENDBRANCH   1  12
BRANCH   3  21
HETATM   21  C7  UNL     1      26.204   4.646  49.213  1.00  0.00     0.067 A 
HETATM   22  C8  UNL     1      26.361   3.403  49.664  1.00  0.00     0.034 A 
HETATM   23  C9  UNL     1      24.912   3.252  49.630  1.00  0.00     0.028 A 
HETATM   24  C10 UNL     1      24.754   4.499  49.179  1.00  0.00     0.061 A 
HETATM   25 CL1  UNL     1      23.402   5.518  48.737  1.00  0.00    -0.082 Cl
ENDBRANCH   3  21
TORSDOF 3
ENDMDL
MODEL 9
REMARK VINA RESULT:      -7.1      2.959      4.965
REMARK  3 active torsions:
REMARK  status: ('A' for Active; 'I' for Inactive)
REMARK    1  A    between atoms: N1_1  and  C1_2 
REMARK    2  A    between atoms: C5_7  and  C6_8 
REMARK    3  A    between atoms: N4_10  and  C7_11 
ROOT
HETATM    1  C6  UNL     1      24.894   1.727  51.617  1.00  0.00     0.145 C 
HETATM    2  N3  UNL     1      24.986   3.141  51.784  1.00  0.00    -0.224 NA
HETATM    3  N4  UNL     1      24.481   3.860  50.697  1.00  0.00    -0.306 N 
HETATM    4  C11 UNL     1      23.829   3.058  49.651  1.00  0.00     0.182 C 
HETATM    5  C12 UNL     1      22.917   2.095  50.358  1.00  0.00    -0.031 A 
HETATM    6  C13 UNL     1      21.600   1.938  49.977  1.00  0.00     0.009 A 
HETATM    7  C14 UNL     1      20.806   1.033  50.673  1.00  0.00     0.001 A 
HETATM    8  C15 UNL     1      21.353   0.327  51.713  1.00  0.00     0.001 A 
HETATM    9  C16 UNL     1      22.670   0.481  52.098  1.00  0.00     0.010 A 
HETATM   10  C17 UNL     1      23.464   1.374  51.415  1.00  0.00    -0.026 A 
HETATM   11  H7  UNL     1      24.345   3.402  52.586  1.00  0.00     0.147 HD
ENDROOT
BRANCH   1  12
HETATM   12  C5  UNL     1      25.474   1.061  52.809  1.00  0.00    -0.005 A 
HETATM   13  C1  UNL     1      26.735   1.396  53.254  1.00  0.00     0.051 A 
HETATM   14  C2  UNL     1      27.281   0.787  54.348  1.00  0.00     0.145 A 
HETATM   15  N2  UNL     1      26.634  -0.160  55.046  1.00  0.00    -0.271 NA
HETATM   16  C3  UNL     1      25.408  -0.515  54.650  1.00  0.00     0.117 A 
HETATM   17  C4  UNL     1      24.835   0.086  53.547  1.00  0.00     0.030 A 
BRANCH  13  18
HETATM   18  N1  UNL     1      27.529   2.378  52.617  1.00  0.00    -0.397 N 
HETATM   19  H1  UNL     1      27.684   2.630  51.618  1.00  0.00     0.156 HD
HETATM   20  H2  UNL     1      28.127   3.049  53.120  1.00  0.00     0.156 HD
ENDBRANCH  13  18
ENDBRANCH   1  12
BRANCH   3  21
HETATM   21  C7  UNL     1      24.627   5.275  50.678  1.00  0.00     0.067 A 
HETATM   22  C8  UNL     1      23.986   6.234  51.344  1.00  0.00     0.034 A 
HETATM   23  C9  UNL     1      24.821   7.211  50.657  1.00  0.00     0.028 A 
HETATM   24  C10 UNL     1      25.465   6.250  49.990  1.00  0.00     0.061 A 
HETATM   25 CL1  UNL     1      26.750   6.183  48.805  1.00  0.00    -0.082 Cl
ENDBRANCH   3  21
TORSDOF 3
ENDMDL
