MODEL 1
REMARK VINA RESULT:      -6.8      0.000      0.000
REMARK  8 active torsions:
REMARK  status: ('A' for Active; 'I' for Inactive)
REMARK    1  A    between atoms: C2_2  and  C3_3 
REMARK    2  A    between atoms: C3_3  and  C4_4 
REMARK    3  A    between atoms: C8_9  and  N2_10 
REMARK    4  A    between atoms: N2_10  and  C9_11 
REMARK    5  A    between atoms: C9_11  and  C10_12 
REMARK    6  A    between atoms: C10_12  and  C11_13 
REMARK    7  A    between atoms: C11_13  and  C12_14 
REMARK    8  A    between atoms: C12_14  and  C13_15 
ROOT
HETATM    1  C4  UNL     1      27.214   0.906  54.075  1.00  0.00     0.014 C 
HETATM    2  C5  UNL     1      25.927   0.569  54.143  1.00  0.00    -0.038 C 
HETATM    3  C6  UNL     1      25.229   1.498  53.222  1.00  0.00     0.156 C 
HETATM    4  N1  UNL     1      23.906   1.021  52.853  1.00  0.00    -0.379 N 
HETATM    5  C7  UNL     1      23.041   0.101  53.502  1.00  0.00     0.128 A 
HETATM    6  C8  UNL     1      21.790   0.275  52.917  1.00  0.00     0.160 A 
HETATM    7  N3  UNL     1      20.792  -0.519  53.388  1.00  0.00    -0.222 NA
HETATM    8  C15 UNL     1      21.016  -1.418  54.366  1.00  0.00     0.238 A 
HETATM    9  N4  UNL     1      22.250  -1.560  54.911  1.00  0.00    -0.216 NA
HETATM   10  C16 UNL     1      23.279  -0.801  54.486  1.00  0.00     0.197 A 
HETATM   11  O1  UNL     1      24.459  -1.067  55.139  1.00  0.00    -0.328 OA
HETATM   12  C17 UNL     1      25.748  -0.549  55.071  1.00  0.00     0.213 C 
HETATM   13  H7  UNL     1      23.548   1.442  51.944  1.00  0.00     0.160 HD
ENDROOT
BRANCH   6  14
HETATM   14  N2  UNL     1      21.531   1.237  51.887  1.00  0.00    -0.342 N 
HETATM   15  H8  UNL     1      21.636   2.283  51.798  1.00  0.00     0.167 HD
BRANCH  14  16
HETATM   16  C9  UNL     1      21.026   0.443  50.831  1.00  0.00     0.146 C 
BRANCH  16  17
HETATM   17  C10 UNL     1      21.334   0.938  49.658  1.00  0.00    -0.111 C 
BRANCH  17  18
HETATM   18  C11 UNL     1      21.592   1.332  48.420  1.00  0.00     0.057 C 
BRANCH  18  19
HETATM   19  C12 UNL     1      22.591   2.341  48.289  1.00  0.00     0.004 C 
BRANCH  19  20
HETATM   20  C13 UNL     1      23.006   3.249  49.138  1.00  0.00    -0.030 C 
HETATM   21  C14 UNL     1      24.333   3.192  49.754  1.00  0.00     0.036 C 
ENDBRANCH  19  20
ENDBRANCH  18  19
ENDBRANCH  17  18
ENDBRANCH  16  17
ENDBRANCH  14  16
ENDBRANCH   6  14
BRANCH   1  22
HETATM   22  C3  UNL     1      28.290   0.267  54.812  1.00  0.00     0.051 C 
BRANCH  22  23
HETATM   23  C2  UNL     1      29.106  -0.439  54.066  1.00  0.00    -0.155 C 
HETATM   24  C1  UNL     1      29.846  -1.346  53.441  1.00  0.00     0.096 C 
ENDBRANCH  22  23
ENDBRANCH   1  22
TORSDOF 8
ENDMDL
MODEL 2
REMARK VINA RESULT:      -6.7      2.806      4.098
REMARK  8 active torsions:
REMARK  status: ('A' for Active; 'I' for Inactive)
REMARK    1  A    between atoms: C2_2  and  C3_3 
REMARK    2  A    between atoms: C3_3  and  C4_4 
REMARK    3  A    between atoms: C8_9  and  N2_10 
REMARK    4  A    between atoms: N2_10  and  C9_11 
REMARK    5  A    between atoms: C9_11  and  C10_12 
REMARK    6  A    between atoms: C10_12  and  C11_13 
REMARK    7  A    between atoms: C11_13  and  C12_14 
REMARK    8  A    between atoms: C12_14  and  C13_15 
ROOT
HETATM    1  C4  UNL     1      26.652   0.084  52.838  1.00  0.00     0.014 C 
HETATM    2  C5  UNL     1      25.568   0.858  52.833  1.00  0.00    -0.038 C 
HETATM    3  C6  UNL     1      26.077   2.247  52.927  1.00  0.00     0.156 C 
HETATM    4  N1  UNL     1      25.084   3.229  52.521  1.00  0.00    -0.379 N 
HETATM    5  C7  UNL     1      23.668   3.141  52.462  1.00  0.00     0.128 A 
HETATM    6  C8  UNL     1      23.209   4.450  52.347  1.00  0.00     0.160 A 
HETATM    7  N3  UNL     1      21.861   4.608  52.268  1.00  0.00    -0.222 NA
HETATM    8  C15 UNL     1      21.030   3.548  52.302  1.00  0.00     0.238 A 
HETATM    9  N4  UNL     1      21.515   2.286  52.414  1.00  0.00    -0.216 NA
HETATM   10  C16 UNL     1      22.841   2.067  52.496  1.00  0.00     0.197 A 
HETATM   11  O1  UNL     1      23.169   0.736  52.606  1.00  0.00    -0.328 OA
HETATM   12  C17 UNL     1      24.362   0.034  52.736  1.00  0.00     0.213 C 
HETATM   13  H7  UNL     1      25.511   4.156  52.224  1.00  0.00     0.160 HD
ENDROOT
BRANCH   6  14
HETATM   14  N2  UNL     1      24.078   5.589  52.325  1.00  0.00    -0.342 N 
HETATM   15  H8  UNL     1      24.824   5.972  52.966  1.00  0.00     0.167 HD
BRANCH  14  16
HETATM   16  C9  UNL     1      23.726   6.233  51.117  1.00  0.00     0.146 C 
BRANCH  16  17
HETATM   17  C10 UNL     1      24.437   5.796  50.106  1.00  0.00    -0.111 C 
BRANCH  17  18
HETATM   18  C11 UNL     1      25.177   5.479  49.055  1.00  0.00     0.057 C 
BRANCH  18  19
HETATM   19  C12 UNL     1      26.397   4.800  49.342  1.00  0.00     0.004 C 
BRANCH  19  20
HETATM   20  C13 UNL     1      27.521   4.737  48.670  1.00  0.00    -0.030 C 
HETATM   21  C14 UNL     1      28.288   5.932  48.320  1.00  0.00     0.036 C 
ENDBRANCH  19  20
ENDBRANCH  18  19
ENDBRANCH  17  18
ENDBRANCH  16  17
ENDBRANCH  14  16
ENDBRANCH   6  14
BRANCH   1  22
HETATM   22  C3  UNL     1      26.649  -1.367  52.762  1.00  0.00     0.051 C 
BRANCH  22  23
HETATM   23  C2  UNL     1      27.823  -1.917  52.962  1.00  0.00    -0.155 C 
HETATM   24  C1  UNL     1      29.094  -2.240  53.169  1.00  0.00     0.096 C 
ENDBRANCH  22  23
ENDBRANCH   1  22
TORSDOF 8
ENDMDL
MODEL 3
REMARK VINA RESULT:      -6.7      2.695      5.965
REMARK  8 active torsions:
REMARK  status: ('A' for Active; 'I' for Inactive)
REMARK    1  A    between atoms: C2_2  and  C3_3 
REMARK    2  A    between atoms: C3_3  and  C4_4 
REMARK    3  A    between atoms: C8_9  and  N2_10 
REMARK    4  A    between atoms: N2_10  and  C9_11 
REMARK    5  A    between atoms: C9_11  and  C10_12 
REMARK    6  A    between atoms: C10_12  and  C11_13 
REMARK    7  A    between atoms: C11_13  and  C12_14 
REMARK    8  A    between atoms: C12_14  and  C13_15 
ROOT
HETATM    1  C4  UNL     1      21.324   0.189  52.931  1.00  0.00     0.014 C 
HETATM    2  C5  UNL     1      22.637   0.373  52.811  1.00  0.00    -0.038 C 
HETATM    3  C6  UNL     1      22.792   1.501  51.862  1.00  0.00     0.156 C 
HETATM    4  N1  UNL     1      24.112   2.106  51.930  1.00  0.00    -0.379 N 
HETATM    5  C7  UNL     1      25.345   1.582  52.401  1.00  0.00     0.128 A 
HETATM    6  C8  UNL     1      26.332   2.437  51.920  1.00  0.00     0.160 A 
HETATM    7  N3  UNL     1      27.611   2.127  52.258  1.00  0.00    -0.222 NA
HETATM    8  C15 UNL     1      27.893   1.048  53.016  1.00  0.00     0.238 A 
HETATM    9  N4  UNL     1      26.903   0.238  53.467  1.00  0.00    -0.216 NA
HETATM   10  C16 UNL     1      25.616   0.494  53.165  1.00  0.00     0.197 A 
HETATM   11  O1  UNL     1      24.738  -0.420  53.697  1.00  0.00    -0.328 OA
HETATM   12  C17 UNL     1      23.358  -0.588  53.648  1.00  0.00     0.213 C 
HETATM   13  H7  UNL     1      24.135   3.103  51.563  1.00  0.00     0.160 HD
ENDROOT
BRANCH   6  14
HETATM   14  N2  UNL     1      26.051   3.579  51.101  1.00  0.00    -0.342 N 
HETATM   15  H8  UNL     1      25.663   4.545  51.273  1.00  0.00     0.167 HD
BRANCH  14  16
HETATM   16  C9  UNL     1      26.433   3.145  49.811  1.00  0.00     0.146 C 
BRANCH  16  17
HETATM   17  C10 UNL     1      27.049   4.088  49.141  1.00  0.00    -0.111 C 
BRANCH  17  18
HETATM   18  C11 UNL     1      27.714   5.087  48.580  1.00  0.00     0.057 C 
BRANCH  18  19
HETATM   19  C12 UNL     1      27.029   6.336  48.538  1.00  0.00     0.004 C 
BRANCH  19  20
HETATM   20  C13 UNL     1      26.024   6.786  49.248  1.00  0.00    -0.030 C 
HETATM   21  C14 UNL     1      26.164   7.913  50.171  1.00  0.00     0.036 C 
ENDBRANCH  19  20
ENDBRANCH  18  19
ENDBRANCH  17  18
ENDBRANCH  16  17
ENDBRANCH  14  16
ENDBRANCH   6  14
BRANCH   1  22
HETATM   22  C3  UNL     1      20.689  -0.817  53.763  1.00  0.00     0.051 C 
BRANCH  22  23
HETATM   23  C2  UNL     1      19.410  -0.986  53.521  1.00  0.00    -0.155 C 
HETATM   24  C1  UNL     1      18.169  -1.400  53.297  1.00  0.00     0.096 C 
ENDBRANCH  22  23
ENDBRANCH   1  22
TORSDOF 8
ENDMDL
MODEL 4
REMARK VINA RESULT:      -6.7      2.142      6.855
REMARK  8 active torsions:
REMARK  status: ('A' for Active; 'I' for Inactive)
REMARK    1  A    between atoms: C2_2  and  C3_3 
REMARK    2  A    between atoms: C3_3  and  C4_4 
REMARK    3  A    between atoms: C8_9  and  N2_10 
REMARK    4  A    between atoms: N2_10  and  C9_11 
REMARK    5  A    between atoms: C9_11  and  C10_12 
REMARK    6  A    between atoms: C10_12  and  C11_13 
REMARK    7  A    between atoms: C11_13  and  C12_14 
REMARK    8  A    between atoms: C12_14  and  C13_15 
ROOT
HETATM    1  C4  UNL     1      19.426   0.373  51.566  1.00  0.00     0.014 C 
HETATM    2  C5  UNL     1      20.474  -0.017  52.289  1.00  0.00    -0.038 C 
HETATM    3  C6  UNL     1      21.664   0.464  51.547  1.00  0.00     0.156 C 
HETATM    4  N1  UNL     1      22.858   0.497  52.376  1.00  0.00    -0.379 N 
HETATM    5  C7  UNL     1      23.173  -0.203  53.570  1.00  0.00     0.128 A 
HETATM    6  C8  UNL     1      24.547  -0.065  53.742  1.00  0.00     0.160 A 
HETATM    7  N3  UNL     1      25.076  -0.662  54.843  1.00  0.00    -0.222 NA
HETATM    8  C15 UNL     1      24.302  -1.344  55.710  1.00  0.00     0.238 A 
HETATM    9  N4  UNL     1      22.965  -1.456  55.509  1.00  0.00    -0.216 NA
HETATM   10  C16 UNL     1      22.383  -0.886  54.436  1.00  0.00     0.197 A 
HETATM   11  O1  UNL     1      21.025  -1.092  54.378  1.00  0.00    -0.328 OA
HETATM   12  C17 UNL     1      20.023  -0.734  53.483  1.00  0.00     0.213 C 
HETATM   13  H7  UNL     1      23.603   1.161  52.010  1.00  0.00     0.160 HD
ENDROOT
BRANCH   6  14
HETATM   14  N2  UNL     1      25.387   0.643  52.823  1.00  0.00    -0.342 N 
HETATM   15  H8  UNL     1      25.727   0.475  51.839  1.00  0.00     0.167 HD
BRANCH  14  16
HETATM   16  C9  UNL     1      25.759   1.794  53.557  1.00  0.00     0.146 C 
BRANCH  16  17
HETATM   17  C10 UNL     1      27.046   2.026  53.479  1.00  0.00    -0.111 C 
BRANCH  17  18
HETATM   18  C11 UNL     1      28.355   2.224  53.525  1.00  0.00     0.057 C 
BRANCH  18  19
HETATM   19  C12 UNL     1      29.156   1.046  53.553  1.00  0.00     0.004 C 
BRANCH  19  20
HETATM   20  C13 UNL     1      28.954  -0.113  54.131  1.00  0.00    -0.030 C 
HETATM   21  C14 UNL     1      29.238  -1.381  53.458  1.00  0.00     0.036 C 
ENDBRANCH  19  20
ENDBRANCH  18  19
ENDBRANCH  17  18
ENDBRANCH  16  17
ENDBRANCH  14  16
ENDBRANCH   6  14
BRANCH   1  22
HETATM   22  C3  UNL     1      18.035   0.126  51.902  1.00  0.00     0.051 C 
BRANCH  22  23
HETATM   23  C2  UNL     1      17.261  -0.087  50.864  1.00  0.00    -0.155 C 
HETATM   24  C1  UNL     1      16.684  -0.395  49.709  1.00  0.00     0.096 C 
ENDBRANCH  22  23
ENDBRANCH   1  22
TORSDOF 8
ENDMDL
MODEL 5
REMARK VINA RESULT:      -6.6      2.239      4.149
REMARK  8 active torsions:
REMARK  status: ('A' for Active; 'I' for Inactive)
REMARK    1  A    between atoms: C2_2  and  C3_3 
REMARK    2  A    between atoms: C3_3  and  C4_4 
REMARK    3  A    between atoms: C8_9  and  N2_10 
REMARK    4  A    between atoms: N2_10  and  C9_11 
REMARK    5  A    between atoms: C9_11  and  C10_12 
REMARK    6  A    between atoms: C10_12  and  C11_13 
REMARK    7  A    between atoms: C11_13  and  C12_14 
REMARK    8  A    between atoms: C12_14  and  C13_15 
ROOT
HETATM    1  C4  UNL     1      26.595  -0.083  53.821  1.00  0.00     0.014 C 
HETATM    2  C5  UNL     1      25.729   0.821  53.367  1.00  0.00    -0.038 C 
HETATM    3  C6  UNL     1      24.777   0.063  52.520  1.00  0.00     0.156 C 
HETATM    4  N1  UNL     1      23.544   0.794  52.282  1.00  0.00    -0.379 N 
HETATM    5  C7  UNL     1      23.267   2.185  52.348  1.00  0.00     0.128 A 
HETATM    6  C8  UNL     1      22.050   2.364  51.698  1.00  0.00     0.160 A 
HETATM    7  N3  UNL     1      21.580   3.639  51.645  1.00  0.00    -0.222 NA
HETATM    8  C15 UNL     1      22.266   4.661  52.193  1.00  0.00     0.238 A 
HETATM    9  N4  UNL     1      23.450   4.447  52.819  1.00  0.00    -0.216 NA
HETATM   10  C16 UNL     1      23.966   3.206  52.905  1.00  0.00     0.197 A 
HETATM   11  O1  UNL     1      25.169   3.159  53.568  1.00  0.00    -0.328 OA
HETATM   12  C17 UNL     1      26.070   2.148  53.882  1.00  0.00     0.213 C 
HETATM   13  H7  UNL     1      22.729   0.165  52.017  1.00  0.00     0.160 HD
ENDROOT
BRANCH   6  14
HETATM   14  N2  UNL     1      21.315   1.291  51.097  1.00  0.00    -0.342 N 
HETATM   15  H8  UNL     1      21.514   0.580  50.344  1.00  0.00     0.167 HD
BRANCH  14  16
HETATM   16  C9  UNL     1      20.074   1.339  51.772  1.00  0.00     0.146 C 
BRANCH  16  17
HETATM   17  C10 UNL     1      19.957   0.369  52.646  1.00  0.00    -0.111 C 
BRANCH  17  18
HETATM   18  C11 UNL     1      19.959  -0.580  53.570  1.00  0.00     0.057 C 
BRANCH  18  19
HETATM   19  C12 UNL     1      21.107  -0.616  54.414  1.00  0.00     0.004 C 
BRANCH  19  20
HETATM   20  C13 UNL     1      21.951  -1.586  54.669  1.00  0.00    -0.030 C 
HETATM   21  C14 UNL     1      23.147  -1.383  55.488  1.00  0.00     0.036 C 
ENDBRANCH  19  20
ENDBRANCH  18  19
ENDBRANCH  17  18
ENDBRANCH  16  17
ENDBRANCH  14  16
ENDBRANCH   6  14
BRANCH   1  22
HETATM   22  C3  UNL     1      27.718   0.196  54.699  1.00  0.00     0.051 C 
BRANCH  22  23
HETATM   23  C2  UNL     1      28.864  -0.280  54.272  1.00  0.00    -0.155 C 
HETATM   24  C1  UNL     1      29.946  -0.682  53.617  1.00  0.00     0.096 C 
ENDBRANCH  22  23
ENDBRANCH   1  22
TORSDOF 8
ENDMDL
MODEL 6
REMARK VINA RESULT:      -6.5      2.678      4.922
REMARK  8 active torsions:
REMARK  status: ('A' for Active; 'I' for Inactive)
REMARK    1  A    between atoms: C2_2  and  C3_3 
REMARK    2  A    between atoms: C3_3  and  C4_4 
REMARK    3  A    between atoms: C8_9  and  N2_10 
REMARK    4  A    between atoms: N2_10  and  C9_11 
REMARK    5  A    between atoms: C9_11  and  C10_12 
REMARK    6  A    between atoms: C10_12  and  C11_13 
REMARK    7  A    between atoms: C11_13  and  C12_14 
REMARK    8  A    between atoms: C12_14  and  C13_15 
ROOT
HETATM    1  C4  UNL     1      26.349  -0.165  54.023  1.00  0.00     0.014 C 
HETATM    2  C5  UNL     1      25.260   0.447  53.561  1.00  0.00    -0.038 C 
HETATM    3  C6  UNL     1      24.178  -0.563  53.641  1.00  0.00     0.156 C 
HETATM    4  N1  UNL     1      22.855   0.036  53.576  1.00  0.00    -0.379 N 
HETATM    5  C7  UNL     1      22.431   1.286  53.054  1.00  0.00     0.128 A 
HETATM    6  C8  UNL     1      21.048   1.201  52.932  1.00  0.00     0.160 A 
HETATM    7  N3  UNL     1      20.419   2.305  52.448  1.00  0.00    -0.222 NA
HETATM    8  C15 UNL     1      21.110   3.411  52.110  1.00  0.00     0.238 A 
HETATM    9  N4  UNL     1      22.459   3.458  52.244  1.00  0.00    -0.216 NA
HETATM   10  C16 UNL     1      23.137   2.395  52.718  1.00  0.00     0.197 A 
HETATM   11  O1  UNL     1      24.494   2.602  52.791  1.00  0.00    -0.328 OA
HETATM   12  C17 UNL     1      25.579   1.825  53.181  1.00  0.00     0.213 C 
HETATM   13  H7  UNL     1      22.095  -0.581  53.993  1.00  0.00     0.160 HD
ENDROOT
BRANCH   6  14
HETATM   14  N2  UNL     1      20.300   0.027  53.272  1.00  0.00    -0.342 N 
HETATM   15  H8  UNL     1      20.415  -0.756  53.969  1.00  0.00     0.167 HD
BRANCH  14  16
HETATM   16  C9  UNL     1      19.202   0.082  52.383  1.00  0.00     0.146 C 
BRANCH  16  17
HETATM   17  C10 UNL     1      18.284  -0.803  52.687  1.00  0.00    -0.111 C 
BRANCH  17  18
HETATM   18  C11 UNL     1      17.315  -1.613  53.085  1.00  0.00     0.057 C 
BRANCH  18  19
HETATM   19  C12 UNL     1      17.737  -2.876  53.592  1.00  0.00     0.004 C 
BRANCH  19  20
HETATM   20  C13 UNL     1      17.067  -3.985  53.795  1.00  0.00    -0.030 C 
HETATM   21  C14 UNL     1      16.036  -4.453  52.868  1.00  0.00     0.036 C 
ENDBRANCH  19  20
ENDBRANCH  18  19
ENDBRANCH  17  18
ENDBRANCH  16  17
ENDBRANCH  14  16
ENDBRANCH   6  14
BRANCH   1  22
HETATM   22  C3  UNL     1      27.666   0.437  54.135  1.00  0.00     0.051 C 
BRANCH  22  23
HETATM   23  C2  UNL     1      28.653  -0.372  53.829  1.00  0.00    -0.155 C 
HETATM   24  C1  UNL     1      29.797  -1.010  53.612  1.00  0.00     0.096 C 
ENDBRANCH  22  23
ENDBRANCH   1  22
TORSDOF 8
ENDMDL
MODEL 7
REMARK VINA RESULT:      -6.4      2.657      6.039
REMARK  8 active torsions:
REMARK  status: ('A' for Active; 'I' for Inactive)
REMARK    1  A    between atoms: C2_2  and  C3_3 
REMARK    2  A    between atoms: C3_3  and  C4_4 
REMARK    3  A    between atoms: C8_9  and  N2_10 
REMARK    4  A    between atoms: N2_10  and  C9_11 
REMARK    5  A    between atoms: C9_11  and  C10_12 
REMARK    6  A    between atoms: C10_12  and  C11_13 
REMARK    7  A    between atoms: C11_13  and  C12_14 
REMARK    8  A    between atoms: C12_14  and  C13_15 
ROOT
HETATM    1  C4  UNL     1      19.984   0.082  52.680  1.00  0.00     0.014 C 
HETATM    2  C5  UNL     1      21.310   0.088  52.808  1.00  0.00    -0.038 C 
HETATM    3  C6  UNL     1      21.771   1.285  52.064  1.00  0.00     0.156 C 
HETATM    4  N1  UNL     1      23.119   1.681  52.434  1.00  0.00    -0.379 N 
HETATM    5  C7  UNL     1      24.173   0.935  53.025  1.00  0.00     0.128 A 
HETATM    6  C8  UNL     1      25.327   1.690  52.839  1.00  0.00     0.160 A 
HETATM    7  N3  UNL     1      26.476   1.162  53.338  1.00  0.00    -0.222 NA
HETATM    8  C15 UNL     1      26.481  -0.027  53.974  1.00  0.00     0.238 A 
HETATM    9  N4  UNL     1      25.335  -0.733  54.137  1.00  0.00    -0.216 NA
HETATM   10  C16 UNL     1      24.166  -0.261  53.664  1.00  0.00     0.197 A 
HETATM   11  O1  UNL     1      23.101  -1.095  53.911  1.00  0.00    -0.328 OA
HETATM   12  C17 UNL     1      21.744  -1.057  53.611  1.00  0.00     0.213 C 
HETATM   13  H7  UNL     1      23.330   2.701  52.219  1.00  0.00     0.160 HD
ENDROOT
BRANCH   6  14
HETATM   14  N2  UNL     1      25.342   2.947  52.152  1.00  0.00    -0.342 N 
HETATM   15  H8  UNL     1      24.840   3.868  52.268  1.00  0.00     0.167 HD
BRANCH  14  16
HETATM   16  C9  UNL     1      26.283   2.733  51.119  1.00  0.00     0.146 C 
BRANCH  16  17
HETATM   17  C10 UNL     1      26.126   3.582  50.133  1.00  0.00    -0.111 C 
BRANCH  17  18
HETATM   18  C11 UNL     1      25.841   4.444  49.169  1.00  0.00     0.057 C 
BRANCH  18  19
HETATM   19  C12 UNL     1      26.904   5.312  48.785  1.00  0.00     0.004 C 
BRANCH  19  20
HETATM   20  C13 UNL     1      28.159   5.058  48.505  1.00  0.00    -0.030 C 
HETATM   21  C14 UNL     1      29.097   6.106  48.101  1.00  0.00     0.036 C 
ENDBRANCH  19  20
ENDBRANCH  18  19
ENDBRANCH  17  18
ENDBRANCH  16  17
ENDBRANCH  14  16
ENDBRANCH   6  14
BRANCH   1  22
HETATM   22  C3  UNL     1      19.090  -0.912  53.248  1.00  0.00     0.051 C 
BRANCH  22  23
HETATM   23  C2  UNL     1      17.904  -0.949  52.689  1.00  0.00    -0.155 C 
HETATM   24  C1  UNL     1      16.688  -1.212  52.225  1.00  0.00     0.096 C 
ENDBRANCH  22  23
ENDBRANCH   1  22
TORSDOF 8
ENDMDL
MODEL 8
REMARK VINA RESULT:      -6.4      3.525      4.916
REMARK  8 active torsions:
REMARK  status: ('A' for Active; 'I' for Inactive)
REMARK    1  A    between atoms: C2_2  and  C3_3 
REMARK    2  A    between atoms: C3_3  and  C4_4 
REMARK    3  A    between atoms: C8_9  and  N2_10 
REMARK    4  A    between atoms: N2_10  and  C9_11 
REMARK    5  A    between atoms: C9_11  and  C10_12 
REMARK    6  A    between atoms: C10_12  and  C11_13 
REMARK    7  A    between atoms: C11_13  and  C12_14 
REMARK    8  A    between atoms: C12_14  and  C13_15 
ROOT
HETATM    1  C4  UNL     1      27.468   1.260  52.583  1.00  0.00     0.014 C 
HETATM    2  C5  UNL     1      26.461   2.107  52.380  1.00  0.00    -0.038 C 
HETATM    3  C6  UNL     1      26.552   2.490  50.950  1.00  0.00     0.156 C 
HETATM    4  N1  UNL     1      25.315   3.069  50.452  1.00  0.00    -0.379 N 
HETATM    5  C7  UNL     1      24.242   3.690  51.143  1.00  0.00     0.128 A 
HETATM    6  C8  UNL     1      23.500   4.359  50.173  1.00  0.00     0.160 A 
HETATM    7  N3  UNL     1      22.404   5.031  50.615  1.00  0.00    -0.222 NA
HETATM    8  C15 UNL     1      22.067   5.040  51.920  1.00  0.00     0.238 A 
HETATM    9  N4  UNL     1      22.815   4.375  52.836  1.00  0.00    -0.216 NA
HETATM   10  C16 UNL     1      23.912   3.691  52.458  1.00  0.00     0.197 A 
HETATM   11  O1  UNL     1      24.557   3.074  53.504  1.00  0.00    -0.328 OA
HETATM   12  C17 UNL     1      25.705   2.297  53.619  1.00  0.00     0.213 C 
HETATM   13  H7  UNL     1      25.219   3.005  49.395  1.00  0.00     0.160 HD
ENDROOT
BRANCH   6  14
HETATM   14  N2  UNL     1      23.853   4.373  48.785  1.00  0.00    -0.342 N 
HETATM   15  H8  UNL     1      24.025   3.636  48.051  1.00  0.00     0.167 HD
BRANCH  14  16
HETATM   16  C9  UNL     1      23.957   5.754  48.498  1.00  0.00     0.146 C 
BRANCH  16  17
HETATM   17  C10 UNL     1      25.192   6.180  48.594  1.00  0.00    -0.111 C 
BRANCH  17  18
HETATM   18  C11 UNL     1      26.477   6.485  48.696  1.00  0.00     0.057 C 
BRANCH  18  19
HETATM   19  C12 UNL     1      27.380   5.385  48.617  1.00  0.00     0.004 C 
BRANCH  19  20
HETATM   20  C13 UNL     1      28.651   5.342  48.300  1.00  0.00    -0.030 C 
HETATM   21  C14 UNL     1      29.362   6.504  47.767  1.00  0.00     0.036 C 
ENDBRANCH  19  20
ENDBRANCH  18  19
ENDBRANCH  17  18
ENDBRANCH  16  17
ENDBRANCH  14  16
ENDBRANCH   6  14
BRANCH   1  22
HETATM   22  C3  UNL     1      27.781   0.616  53.846  1.00  0.00     0.051 C 
BRANCH  22  23
HETATM   23  C2  UNL     1      28.857  -0.135  53.814  1.00  0.00    -0.155 C 
HETATM   24  C1  UNL     1      29.806  -1.048  53.642  1.00  0.00     0.096 C 
ENDBRANCH  22  23
ENDBRANCH   1  22
TORSDOF 8
ENDMDL
MODEL 9
REMARK VINA RESULT:      -6.3      1.923      2.560
REMARK  8 active torsions:
REMARK  status: ('A' for Active; 'I' for Inactive)
REMARK    1  A    between atoms: C2_2  and  C3_3 
REMARK    2  A    between atoms: C3_3  and  C4_4 
REMARK    3  A    between atoms: C8_9  and  N2_10 
REMARK    4  A    between atoms: N2_10  and  C9_11 
REMARK    5  A    between atoms: C9_11  and  C10_12 
REMARK    6  A    between atoms: C10_12  and  C11_13 
REMARK    7  A    between atoms: C11_13  and  C12_14 
REMARK    8  A    between atoms: C12_14  and  C13_15 
ROOT
HETATM    1  C4  UNL     1      26.874  -0.120  52.386  1.00  0.00     0.014 C 
HETATM    2  C5  UNL     1      25.612   0.205  52.661  1.00  0.00    -0.038 C 
HETATM    3  C6  UNL     1      25.306   1.365  51.790  1.00  0.00     0.156 C 
HETATM    4  N1  UNL     1      23.877   1.590  51.648  1.00  0.00    -0.379 N 
HETATM    5  C7  UNL     1      22.793   1.195  52.476  1.00  0.00     0.128 A 
HETATM    6  C8  UNL     1      21.703   1.957  52.067  1.00  0.00     0.160 A 
HETATM    7  N3  UNL     1      20.536   1.738  52.730  1.00  0.00    -0.222 NA
HETATM    8  C15 UNL     1      20.455   0.832  53.724  1.00  0.00     0.238 A 
HETATM    9  N4  UNL     1      21.540   0.107  54.094  1.00  0.00    -0.216 NA
HETATM   10  C16 UNL     1      22.723   0.279  53.474  1.00  0.00     0.197 A 
HETATM   11  O1  UNL     1      23.720  -0.530  53.966  1.00  0.00    -0.328 OA
HETATM   12  C17 UNL     1      25.070  -0.698  53.678  1.00  0.00     0.213 C 
HETATM   13  H7  UNL     1      23.624   2.141  50.775  1.00  0.00     0.160 HD
ENDROOT
BRANCH   6  14
HETATM   14  N2  UNL     1      21.775   2.936  51.023  1.00  0.00    -0.342 N 
HETATM   15  H8  UNL     1      21.923   2.905  49.979  1.00  0.00     0.167 HD
BRANCH  14  16
HETATM   16  C9  UNL     1      21.592   4.154  51.717  1.00  0.00     0.146 C 
BRANCH  16  17
HETATM   17  C10 UNL     1      22.504   5.039  51.396  1.00  0.00    -0.111 C 
BRANCH  17  18
HETATM   18  C11 UNL     1      23.446   5.863  50.963  1.00  0.00     0.057 C 
BRANCH  18  19
HETATM   19  C12 UNL     1      24.678   5.249  50.592  1.00  0.00     0.004 C 
BRANCH  19  20
HETATM   20  C13 UNL     1      24.979   4.482  49.572  1.00  0.00    -0.030 C 
HETATM   21  C14 UNL     1      26.311   3.902  49.400  1.00  0.00     0.036 C 
ENDBRANCH  19  20
ENDBRANCH  18  19
ENDBRANCH  17  18
ENDBRANCH  16  17
ENDBRANCH  14  16
ENDBRANCH   6  14
BRANCH   1  22
HETATM   22  C3  UNL     1      27.614  -1.207  53.001  1.00  0.00     0.051 C 
BRANCH  22  23
HETATM   23  C2  UNL     1      28.830  -0.884  53.375  1.00  0.00    -0.155 C 
HETATM   24  C1  UNL     1      30.124  -0.774  53.649  1.00  0.00     0.096 C 
ENDBRANCH  22  23
ENDBRANCH   1  22
TORSDOF 8
ENDMDL
