MODEL 1
REMARK VINA RESULT:      -7.2      0.000      0.000
REMARK  5 active torsions:
REMARK  status: ('A' for Active; 'I' for Inactive)
REMARK    1  A    between atoms: O1_2  and  C2_3 
REMARK    2  A    between atoms: C6_9  and  N3_10 
REMARK    3  A    between atoms: N3_10  and  C7_11 
REMARK    4  A    between atoms: C7_11  and  C8_12 
REMARK    5  A    between atoms: C16_20  and  O2_21 
ROOT
HETATM    1  C2  UNL     1      27.240   0.756  53.711  1.00  0.00     0.102 C 
HETATM    2  C3  UNL     1      27.372   1.411  52.505  1.00  0.00     0.059 C 
HETATM    3  C4  UNL     1      26.466   1.489  51.469  1.00  0.00     0.121 C 
HETATM    4  N1  UNL     1      25.415   2.265  51.289  1.00  0.00    -0.254 NA
HETATM    5  C5  UNL     1      24.752   2.734  52.367  1.00  0.00     0.234 C 
HETATM    6  N2  UNL     1      24.544   1.764  53.307  1.00  0.00    -0.225 NA
HETATM    7  C6  UNL     1      23.711   0.744  52.969  1.00  0.00     0.125 C 
HETATM    8  C14 UNL     1      23.877  -0.381  53.742  1.00  0.00     0.053 C 
HETATM    9  C15 UNL     1      25.100  -0.817  54.198  1.00  0.00     0.043 C 
HETATM   10  C16 UNL     1      26.301  -0.233  53.891  1.00  0.00     0.101 C 
ENDROOT
BRANCH   7  11
HETATM   11  N3  UNL     1      22.777   0.873  51.906  1.00  0.00    -0.371 N 
HETATM   12  H7  UNL     1      23.272   0.159  51.309  1.00  0.00     0.161 HD
BRANCH  11  13
HETATM   13  C7  UNL     1      21.582   1.568  51.505  1.00  0.00     0.160 C 
BRANCH  13  14
HETATM   14  C8  UNL     1      20.431   0.712  51.934  1.00  0.00    -0.041 A 
HETATM   15  C9  UNL     1      20.276   0.018  53.122  1.00  0.00     0.009 A 
HETATM   16  C10 UNL     1      19.132  -0.712  53.312  1.00  0.00     0.001 A 
HETATM   17  C11 UNL     1      18.124  -0.795  52.382  1.00  0.00     0.000 A 
HETATM   18  C12 UNL     1      18.251  -0.107  51.175  1.00  0.00     0.001 A 
HETATM   19  C13 UNL     1      19.395   0.618  50.998  1.00  0.00     0.009 A 
ENDBRANCH  13  14
ENDBRANCH  11  13
ENDBRANCH   7  11
BRANCH  10  20
HETATM   20  O2  UNL     1      27.258  -1.135  53.483  1.00  0.00    -0.353 OA
HETATM   21  C17 UNL     1      27.115  -2.215  52.628  1.00  0.00     0.210 C 
ENDBRANCH  10  20
BRANCH   1  22
HETATM   22  O1  UNL     1      28.075   1.107  54.765  1.00  0.00    -0.353 OA
HETATM   23  C1  UNL     1      29.296   1.737  54.532  1.00  0.00     0.210 C 
ENDBRANCH   1  22
TORSDOF 5
ENDMDL
MODEL 2
REMARK VINA RESULT:      -7.2      3.498      6.859
REMARK  5 active torsions:
REMARK  status: ('A' for Active; 'I' for Inactive)
REMARK    1  A    between atoms: O1_2  and  C2_3 
REMARK    2  A    between atoms: C6_9  and  N3_10 
REMARK    3  A    between atoms: N3_10  and  C7_11 
REMARK    4  A    between atoms: C7_11  and  C8_12 
REMARK    5  A    between atoms: C16_20  and  O2_21 
ROOT
HETATM    1  C2  UNL     1      22.717   0.529  53.298  1.00  0.00     0.102 C 
HETATM    2  C3  UNL     1      23.910  -0.160  53.236  1.00  0.00     0.059 C 
HETATM    3  C4  UNL     1      25.036   0.139  52.501  1.00  0.00     0.121 C 
HETATM    4  N1  UNL     1      26.025   0.981  52.730  1.00  0.00    -0.254 NA
HETATM    5  C5  UNL     1      25.794   2.082  53.476  1.00  0.00     0.234 C 
HETATM    6  N2  UNL     1      24.632   2.708  53.122  1.00  0.00    -0.225 NA
HETATM    7  C6  UNL     1      24.584   3.272  51.887  1.00  0.00     0.125 C 
HETATM    8  C14 UNL     1      23.306   3.490  51.430  1.00  0.00     0.053 C 
HETATM    9  C15 UNL     1      22.256   2.632  51.667  1.00  0.00     0.043 C 
HETATM   10  C16 UNL     1      22.361   1.434  52.324  1.00  0.00     0.101 C 
ENDROOT
BRANCH   7  11
HETATM   11  N3  UNL     1      25.771   3.585  51.169  1.00  0.00    -0.371 N 
HETATM   12  H7  UNL     1      26.137   4.210  51.935  1.00  0.00     0.161 HD
BRANCH  11  13
HETATM   13  C7  UNL     1      26.467   3.331  49.936  1.00  0.00     0.160 C 
BRANCH  13  14
HETATM   14  C8  UNL     1      26.594   4.651  49.242  1.00  0.00    -0.041 A 
HETATM   15  C9  UNL     1      25.616   5.611  49.042  1.00  0.00     0.009 A 
HETATM   16  C10 UNL     1      25.948   6.759  48.374  1.00  0.00     0.001 A 
HETATM   17  C11 UNL     1      27.208   7.014  47.886  1.00  0.00     0.000 A 
HETATM   18  C12 UNL     1      28.215   6.065  48.071  1.00  0.00     0.001 A 
HETATM   19  C13 UNL     1      27.870   4.925  48.739  1.00  0.00     0.009 A 
ENDBRANCH  13  14
ENDBRANCH  11  13
ENDBRANCH   7  11
BRANCH  10  20
HETATM   20  O2  UNL     1      21.750   0.393  51.662  1.00  0.00    -0.353 OA
HETATM   21  C17 UNL     1      20.472   0.343  51.129  1.00  0.00     0.210 C 
ENDBRANCH  10  20
BRANCH   1  22
HETATM   22  O1  UNL     1      21.859   0.302  54.367  1.00  0.00    -0.353 OA
HETATM   23  C1  UNL     1      21.664  -0.984  54.867  1.00  0.00     0.210 C 
ENDBRANCH   1  22
TORSDOF 5
ENDMDL
MODEL 3
REMARK VINA RESULT:      -6.9      1.705      2.857
REMARK  5 active torsions:
REMARK  status: ('A' for Active; 'I' for Inactive)
REMARK    1  A    between atoms: O1_2  and  C2_3 
REMARK    2  A    between atoms: C6_9  and  N3_10 
REMARK    3  A    between atoms: N3_10  and  C7_11 
REMARK    4  A    between atoms: C7_11  and  C8_12 
REMARK    5  A    between atoms: C16_20  and  O2_21 
ROOT
HETATM    1  C2  UNL     1      27.356   0.697  53.806  1.00  0.00     0.102 C 
HETATM    2  C3  UNL     1      27.511   1.360  52.607  1.00  0.00     0.059 C 
HETATM    3  C4  UNL     1      26.616   1.467  51.565  1.00  0.00     0.121 C 
HETATM    4  N1  UNL     1      25.582   2.265  51.384  1.00  0.00    -0.254 NA
HETATM    5  C5  UNL     1      24.920   2.737  52.461  1.00  0.00     0.234 C 
HETATM    6  N2  UNL     1      24.685   1.763  53.389  1.00  0.00    -0.225 NA
HETATM    7  C6  UNL     1      23.834   0.764  53.035  1.00  0.00     0.125 C 
HETATM    8  C14 UNL     1      23.971  -0.372  53.799  1.00  0.00     0.053 C 
HETATM    9  C15 UNL     1      25.181  -0.837  54.260  1.00  0.00     0.043 C 
HETATM   10  C16 UNL     1      26.396  -0.275  53.969  1.00  0.00     0.101 C 
ENDROOT
BRANCH   7  11
HETATM   11  N3  UNL     1      22.911   0.921  51.965  1.00  0.00    -0.371 N 
HETATM   12  H7  UNL     1      23.469   0.303  51.319  1.00  0.00     0.161 HD
BRANCH  11  13
HETATM   13  C7  UNL     1      21.676   1.562  51.600  1.00  0.00     0.160 C 
BRANCH  13  14
HETATM   14  C8  UNL     1      21.912   2.209  50.271  1.00  0.00    -0.041 A 
HETATM   15  C9  UNL     1      22.172   3.541  50.001  1.00  0.00     0.009 A 
HETATM   16  C10 UNL     1      22.357   3.925  48.699  1.00  0.00     0.001 A 
HETATM   17  C11 UNL     1      22.298   3.054  47.638  1.00  0.00     0.000 A 
HETATM   18  C12 UNL     1      22.036   1.704  47.877  1.00  0.00     0.001 A 
HETATM   19  C13 UNL     1      21.854   1.335  49.179  1.00  0.00     0.009 A 
ENDBRANCH  13  14
ENDBRANCH  11  13
ENDBRANCH   7  11
BRANCH  10  20
HETATM   20  O2  UNL     1      27.338  -1.192  53.560  1.00  0.00    -0.353 OA
HETATM   21  C17 UNL     1      27.190  -2.239  52.665  1.00  0.00     0.210 C 
ENDBRANCH  10  20
BRANCH   1  22
HETATM   22  O1  UNL     1      28.189   1.021  54.870  1.00  0.00    -0.353 OA
HETATM   23  C1  UNL     1      29.392   1.692  54.659  1.00  0.00     0.210 C 
ENDBRANCH   1  22
TORSDOF 5
ENDMDL
MODEL 4
REMARK VINA RESULT:      -6.8      4.072      7.608
REMARK  5 active torsions:
REMARK  status: ('A' for Active; 'I' for Inactive)
REMARK    1  A    between atoms: O1_2  and  C2_3 
REMARK    2  A    between atoms: C6_9  and  N3_10 
REMARK    3  A    between atoms: N3_10  and  C7_11 
REMARK    4  A    between atoms: C7_11  and  C8_12 
REMARK    5  A    between atoms: C16_20  and  O2_21 
ROOT
HETATM    1  C2  UNL     1      23.765   1.518  52.416  1.00  0.00     0.102 C 
HETATM    2  C3  UNL     1      23.033   2.650  52.709  1.00  0.00     0.059 C 
HETATM    3  C4  UNL     1      23.374   3.969  52.502  1.00  0.00     0.121 C 
HETATM    4  N1  UNL     1      23.311   4.725  51.423  1.00  0.00    -0.254 NA
HETATM    5  C5  UNL     1      23.408   4.146  50.208  1.00  0.00     0.234 C 
HETATM    6  N2  UNL     1      24.415   3.225  50.155  1.00  0.00    -0.225 NA
HETATM    7  C6  UNL     1      25.686   3.690  50.273  1.00  0.00     0.125 C 
HETATM    8  C14 UNL     1      26.594   2.726  50.643  1.00  0.00     0.053 C 
HETATM    9  C15 UNL     1      26.310   1.715  51.533  1.00  0.00     0.043 C 
HETATM   10  C16 UNL     1      25.124   1.579  52.206  1.00  0.00     0.101 C 
ENDROOT
BRANCH   7  11
HETATM   11  N3  UNL     1      26.000   5.056  50.031  1.00  0.00    -0.371 N 
HETATM   12  H7  UNL     1      26.275   5.228  51.034  1.00  0.00     0.161 HD
BRANCH  11  13
HETATM   13  C7  UNL     1      26.038   6.060  49.001  1.00  0.00     0.160 C 
BRANCH  13  14
HETATM   14  C8  UNL     1      27.468   6.172  48.572  1.00  0.00    -0.041 A 
HETATM   15  C9  UNL     1      28.394   5.157  48.405  1.00  0.00     0.009 A 
HETATM   16  C10 UNL     1      29.662   5.483  48.003  1.00  0.00     0.001 A 
HETATM   17  C11 UNL     1      30.069   6.772  47.754  1.00  0.00     0.000 A 
HETATM   18  C12 UNL     1      29.159   7.818  47.915  1.00  0.00     0.001 A 
HETATM   19  C13 UNL     1      27.898   7.479  48.316  1.00  0.00     0.009 A 
ENDBRANCH  13  14
ENDBRANCH  11  13
ENDBRANCH   7  11
BRANCH  10  20
HETATM   20  O2  UNL     1      25.284   1.359  53.555  1.00  0.00    -0.353 OA
HETATM   21  C17 UNL     1      26.458   1.159  54.262  1.00  0.00     0.210 C 
ENDBRANCH  10  20
BRANCH   1  22
HETATM   22  O1  UNL     1      23.114   0.294  52.333  1.00  0.00    -0.353 OA
HETATM   23  C1  UNL     1      21.761   0.224  52.006  1.00  0.00     0.210 C 
ENDBRANCH   1  22
TORSDOF 5
ENDMDL
MODEL 5
REMARK VINA RESULT:      -6.8      3.028      7.184
REMARK  5 active torsions:
REMARK  status: ('A' for Active; 'I' for Inactive)
REMARK    1  A    between atoms: O1_2  and  C2_3 
REMARK    2  A    between atoms: C6_9  and  N3_10 
REMARK    3  A    between atoms: N3_10  and  C7_11 
REMARK    4  A    between atoms: C7_11  and  C8_12 
REMARK    5  A    between atoms: C16_20  and  O2_21 
ROOT
HETATM    1  C2  UNL     1      20.791   2.827  51.819  1.00  0.00     0.102 C 
HETATM    2  C3  UNL     1      20.582   1.579  51.270  1.00  0.00     0.059 C 
HETATM    3  C4  UNL     1      21.502   0.581  51.034  1.00  0.00     0.121 C 
HETATM    4  N1  UNL     1      22.025  -0.328  51.835  1.00  0.00    -0.254 NA
HETATM    5  C5  UNL     1      22.133  -0.059  53.153  1.00  0.00     0.234 C 
HETATM    6  N2  UNL     1      22.618   1.197  53.385  1.00  0.00    -0.225 NA
HETATM    7  C6  UNL     1      23.901   1.443  53.009  1.00  0.00     0.125 C 
HETATM    8  C14 UNL     1      24.184   2.780  52.862  1.00  0.00     0.053 C 
HETATM    9  C15 UNL     1      23.292   3.696  52.351  1.00  0.00     0.043 C 
HETATM   10  C16 UNL     1      22.047   3.386  51.869  1.00  0.00     0.101 C 
ENDROOT
BRANCH   7  11
HETATM   11  N3  UNL     1      24.826   0.385  52.795  1.00  0.00    -0.371 N 
HETATM   12  H7  UNL     1      25.097   0.740  51.840  1.00  0.00     0.161 HD
BRANCH  11  13
HETATM   13  C7  UNL     1      25.381  -0.795  53.402  1.00  0.00     0.160 C 
BRANCH  13  14
HETATM   14  C8  UNL     1      26.834  -0.514  53.625  1.00  0.00    -0.041 A 
HETATM   15  C9  UNL     1      27.407   0.559  54.286  1.00  0.00     0.009 A 
HETATM   16  C10 UNL     1      28.773   0.624  54.374  1.00  0.00     0.001 A 
HETATM   17  C11 UNL     1      29.612  -0.323  53.838  1.00  0.00     0.000 A 
HETATM   18  C12 UNL     1      29.064  -1.416  53.165  1.00  0.00     0.001 A 
HETATM   19  C13 UNL     1      27.702  -1.470  53.084  1.00  0.00     0.009 A 
ENDBRANCH  13  14
ENDBRANCH  11  13
ENDBRANCH   7  11
BRANCH  10  20
HETATM   20  O2  UNL     1      21.782   3.948  50.641  1.00  0.00    -0.353 OA
HETATM   21  C17 UNL     1      22.654   4.162  49.585  1.00  0.00     0.210 C 
ENDBRANCH  10  20
BRANCH   1  22
HETATM   22  O1  UNL     1      19.708   3.530  52.331  1.00  0.00    -0.353 OA
HETATM   23  C1  UNL     1      18.522   3.645  51.608  1.00  0.00     0.210 C 
ENDBRANCH   1  22
TORSDOF 5
ENDMDL
MODEL 6
REMARK VINA RESULT:      -6.7      3.345      6.490
REMARK  5 active torsions:
REMARK  status: ('A' for Active; 'I' for Inactive)
REMARK    1  A    between atoms: O1_2  and  C2_3 
REMARK    2  A    between atoms: C6_9  and  N3_10 
REMARK    3  A    between atoms: N3_10  and  C7_11 
REMARK    4  A    between atoms: C7_11  and  C8_12 
REMARK    5  A    between atoms: C16_20  and  O2_21 
ROOT
HETATM    1  C2  UNL     1      22.758   4.321  50.328  1.00  0.00     0.102 C 
HETATM    2  C3  UNL     1      23.311   4.863  51.469  1.00  0.00     0.059 C 
HETATM    3  C4  UNL     1      23.471   4.279  52.707  1.00  0.00     0.121 C 
HETATM    4  N1  UNL     1      24.391   3.454  53.167  1.00  0.00    -0.254 NA
HETATM    5  C5  UNL     1      25.021   2.626  52.308  1.00  0.00     0.234 C 
HETATM    6  N2  UNL     1      24.153   2.026  51.440  1.00  0.00    -0.225 NA
HETATM    7  C6  UNL     1      23.260   1.148  51.967  1.00  0.00     0.125 C 
HETATM    8  C14 UNL     1      22.170   0.920  51.160  1.00  0.00     0.053 C 
HETATM    9  C15 UNL     1      21.573   1.895  50.393  1.00  0.00     0.043 C 
HETATM   10  C16 UNL     1      21.941   3.215  50.385  1.00  0.00     0.101 C 
ENDROOT
BRANCH   7  11
HETATM   11  N3  UNL     1      23.471   0.551  53.240  1.00  0.00    -0.371 N 
HETATM   12  H7  UNL     1      23.077   1.380  53.757  1.00  0.00     0.161 HD
BRANCH  11  13
HETATM   13  C7  UNL     1      23.972  -0.635  53.882  1.00  0.00     0.160 C 
BRANCH  13  14
HETATM   14  C8  UNL     1      25.462  -0.597  53.740  1.00  0.00    -0.041 A 
HETATM   15  C9  UNL     1      26.239  -1.137  52.731  1.00  0.00     0.009 A 
HETATM   16  C10 UNL     1      27.600  -0.987  52.797  1.00  0.00     0.001 A 
HETATM   17  C11 UNL     1      28.239  -0.323  53.817  1.00  0.00     0.000 A 
HETATM   18  C12 UNL     1      27.482   0.232  54.849  1.00  0.00     0.001 A 
HETATM   19  C13 UNL     1      26.128   0.075  54.771  1.00  0.00     0.009 A 
ENDBRANCH  13  14
ENDBRANCH  11  13
ENDBRANCH   7  11
BRANCH  10  20
HETATM   20  O2  UNL     1      20.878   4.078  50.514  1.00  0.00    -0.353 OA
HETATM   21  C17 UNL     1      19.728   3.922  51.271  1.00  0.00     0.210 C 
ENDBRANCH  10  20
BRANCH   1  22
HETATM   22  O1  UNL     1      23.034   4.905  49.099  1.00  0.00    -0.353 OA
HETATM   23  C1  UNL     1      24.312   5.373  48.799  1.00  0.00     0.210 C 
ENDBRANCH   1  22
TORSDOF 5
ENDMDL
MODEL 7
REMARK VINA RESULT:      -6.6      3.312      6.855
REMARK  5 active torsions:
REMARK  status: ('A' for Active; 'I' for Inactive)
REMARK    1  A    between atoms: O1_2  and  C2_3 
REMARK    2  A    between atoms: C6_9  and  N3_10 
REMARK    3  A    between atoms: N3_10  and  C7_11 
REMARK    4  A    between atoms: C7_11  and  C8_12 
REMARK    5  A    between atoms: C16_20  and  O2_21 
ROOT
HETATM    1  C2  UNL     1      22.105   4.748  50.580  1.00  0.00     0.102 C 
HETATM    2  C3  UNL     1      22.002   3.797  49.586  1.00  0.00     0.059 C 
HETATM    3  C4  UNL     1      22.624   2.570  49.506  1.00  0.00     0.121 C 
HETATM    4  N1  UNL     1      22.330   1.409  50.058  1.00  0.00    -0.254 NA
HETATM    5  C5  UNL     1      21.669   1.388  51.234  1.00  0.00     0.234 C 
HETATM    6  N2  UNL     1      22.176   2.289  52.127  1.00  0.00    -0.225 NA
HETATM    7  C6  UNL     1      23.436   2.063  52.585  1.00  0.00     0.125 C 
HETATM    8  C14 UNL     1      24.039   3.181  53.111  1.00  0.00     0.053 C 
HETATM    9  C15 UNL     1      23.876   4.447  52.596  1.00  0.00     0.043 C 
HETATM   10  C16 UNL     1      23.154   4.744  51.469  1.00  0.00     0.101 C 
ENDROOT
BRANCH   7  11
HETATM   11  N3  UNL     1      24.034   0.776  52.502  1.00  0.00    -0.371 N 
HETATM   12  H7  UNL     1      24.284   0.896  51.485  1.00  0.00     0.161 HD
BRANCH  11  13
HETATM   13  C7  UNL     1      24.332  -0.403  53.272  1.00  0.00     0.160 C 
BRANCH  13  14
HETATM   14  C8  UNL     1      25.785  -0.321  53.626  1.00  0.00    -0.041 A 
HETATM   15  C9  UNL     1      26.374   0.379  54.664  1.00  0.00     0.009 A 
HETATM   16  C10 UNL     1      27.735   0.318  54.809  1.00  0.00     0.001 A 
HETATM   17  C11 UNL     1      28.554  -0.405  53.974  1.00  0.00     0.000 A 
HETATM   18  C12 UNL     1      27.989  -1.121  52.918  1.00  0.00     0.001 A 
HETATM   19  C13 UNL     1      26.631  -1.052  52.785  1.00  0.00     0.009 A 
ENDBRANCH  13  14
ENDBRANCH  11  13
ENDBRANCH   7  11
BRANCH  10  20
HETATM   20  O2  UNL     1      23.827   5.561  50.590  1.00  0.00    -0.353 OA
HETATM   21  C17 UNL     1      24.534   6.722  50.860  1.00  0.00     0.210 C 
ENDBRANCH  10  20
BRANCH   1  22
HETATM   22  O1  UNL     1      21.126   5.728  50.681  1.00  0.00    -0.353 OA
HETATM   23  C1  UNL     1      20.004   5.708  49.853  1.00  0.00     0.210 C 
ENDBRANCH   1  22
TORSDOF 5
ENDMDL
MODEL 8
REMARK VINA RESULT:      -6.6      8.231     10.316
REMARK  5 active torsions:
REMARK  status: ('A' for Active; 'I' for Inactive)
REMARK    1  A    between atoms: O1_2  and  C2_3 
REMARK    2  A    between atoms: C6_9  and  N3_10 
REMARK    3  A    between atoms: N3_10  and  C7_11 
REMARK    4  A    between atoms: C7_11  and  C8_12 
REMARK    5  A    between atoms: C16_20  and  O2_21 
ROOT
HETATM    1  C2  UNL     1      33.678   7.751  47.368  1.00  0.00     0.102 C 
HETATM    2  C3  UNL     1      33.053   8.980  47.341  1.00  0.00     0.059 C 
HETATM    3  C4  UNL     1      31.705   9.258  47.404  1.00  0.00     0.121 C 
HETATM    4  N1  UNL     1      30.880   9.338  48.429  1.00  0.00    -0.254 NA
HETATM    5  C5  UNL     1      31.138   8.613  49.538  1.00  0.00     0.234 C 
HETATM    6  N2  UNL     1      31.498   7.329  49.243  1.00  0.00    -0.225 NA
HETATM    7  C6  UNL     1      30.549   6.534  48.683  1.00  0.00     0.125 C 
HETATM    8  C14 UNL     1      31.064   5.441  48.026  1.00  0.00     0.053 C 
HETATM    9  C15 UNL     1      32.233   5.471  47.301  1.00  0.00     0.043 C 
HETATM   10  C16 UNL     1      32.991   6.592  47.088  1.00  0.00     0.101 C 
ENDROOT
BRANCH   7  11
HETATM   11  N3  UNL     1      29.166   6.845  48.788  1.00  0.00    -0.371 N 
HETATM   12  H7  UNL     1      29.245   7.114  49.804  1.00  0.00     0.161 HD
BRANCH  11  13
HETATM   13  C7  UNL     1      27.939   6.886  48.038  1.00  0.00     0.160 C 
BRANCH  13  14
HETATM   14  C8  UNL     1      27.074   5.790  48.580  1.00  0.00    -0.041 A 
HETATM   15  C9  UNL     1      27.439   4.496  48.906  1.00  0.00     0.009 A 
HETATM   16  C10 UNL     1      26.480   3.645  49.390  1.00  0.00     0.001 A 
HETATM   17  C11 UNL     1      25.166   4.009  49.571  1.00  0.00     0.000 A 
HETATM   18  C12 UNL     1      24.769   5.307  49.250  1.00  0.00     0.001 A 
HETATM   19  C13 UNL     1      25.734   6.145  48.768  1.00  0.00     0.009 A 
ENDBRANCH  13  14
ENDBRANCH  11  13
ENDBRANCH   7  11
BRANCH  10  20
HETATM   20  O2  UNL     1      33.347   6.767  45.770  1.00  0.00    -0.353 OA
HETATM   21  C17 UNL     1      32.536   6.743  44.647  1.00  0.00     0.210 C 
ENDBRANCH  10  20
BRANCH   1  22
HETATM   22  O1  UNL     1      35.029   7.686  47.684  1.00  0.00    -0.353 OA
HETATM   23  C1  UNL     1      35.507   6.746  48.595  1.00  0.00     0.210 C 
ENDBRANCH   1  22
TORSDOF 5
ENDMDL
MODEL 9
REMARK VINA RESULT:      -6.6      2.998      7.031
REMARK  5 active torsions:
REMARK  status: ('A' for Active; 'I' for Inactive)
REMARK    1  A    between atoms: O1_2  and  C2_3 
REMARK    2  A    between atoms: C6_9  and  N3_10 
REMARK    3  A    between atoms: N3_10  and  C7_11 
REMARK    4  A    between atoms: C7_11  and  C8_12 
REMARK    5  A    between atoms: C16_20  and  O2_21 
ROOT
HETATM    1  C2  UNL     1      20.728   2.911  51.484  1.00  0.00     0.102 C 
HETATM    2  C3  UNL     1      21.089   4.178  51.894  1.00  0.00     0.059 C 
HETATM    3  C4  UNL     1      22.297   4.602  52.404  1.00  0.00     0.121 C 
HETATM    4  N1  UNL     1      23.424   4.937  51.806  1.00  0.00    -0.254 NA
HETATM    5  C5  UNL     1      23.725   4.383  50.613  1.00  0.00     0.234 C 
HETATM    6  N2  UNL     1      23.493   3.037  50.596  1.00  0.00    -0.225 NA
HETATM    7  C6  UNL     1      24.275   2.264  51.395  1.00  0.00     0.125 C 
HETATM    8  C14 UNL     1      23.734   1.030  51.667  1.00  0.00     0.053 C 
HETATM    9  C15 UNL     1      22.389   0.816  51.866  1.00  0.00     0.043 C 
HETATM   10  C16 UNL     1      21.436   1.801  51.884  1.00  0.00     0.101 C 
ENDROOT
BRANCH   7  11
HETATM   11  N3  UNL     1      25.525   2.733  51.884  1.00  0.00    -0.371 N 
HETATM   12  H7  UNL     1      25.080   3.249  52.688  1.00  0.00     0.161 HD
BRANCH  11  13
HETATM   13  C7  UNL     1      26.941   2.699  51.632  1.00  0.00     0.160 C 
BRANCH  13  14
HETATM   14  C8  UNL     1      27.513   1.677  52.565  1.00  0.00    -0.041 A 
HETATM   15  C9  UNL     1      27.211   0.329  52.646  1.00  0.00     0.009 A 
HETATM   16  C10 UNL     1      27.856  -0.434  53.584  1.00  0.00     0.001 A 
HETATM   17  C11 UNL     1      28.794   0.069  54.454  1.00  0.00     0.000 A 
HETATM   18  C12 UNL     1      29.119   1.425  54.396  1.00  0.00     0.001 A 
HETATM   19  C13 UNL     1      28.469   2.174  53.458  1.00  0.00     0.009 A 
ENDBRANCH  13  14
ENDBRANCH  11  13
ENDBRANCH   7  11
BRANCH  10  20
HETATM   20  O2  UNL     1      20.585   1.717  52.962  1.00  0.00    -0.353 OA
HETATM   21  C17 UNL     1      20.490   0.710  53.909  1.00  0.00     0.210 C 
ENDBRANCH  10  20
BRANCH   1  22
HETATM   22  O1  UNL     1      19.627   2.758  50.652  1.00  0.00    -0.353 OA
HETATM   23  C1  UNL     1      19.733   2.072  49.443  1.00  0.00     0.210 C 
ENDBRANCH   1  22
TORSDOF 5
ENDMDL
