MODEL 1
REMARK VINA RESULT:      -8.3      0.000      0.000
REMARK  7 active torsions:
REMARK  status: ('A' for Active; 'I' for Inactive)
REMARK    1  A    between atoms: C3_4  and  N1_5 
REMARK    2  A    between atoms: N1_5  and  C4_6 
REMARK    3  A    between atoms: C11_14  and  N2_15 
REMARK    4  A    between atoms: N2_15  and  C12_16 
REMARK    5  A    between atoms: C12_16  and  C13_17 
REMARK    6  A    between atoms: C13_17  and  O2_18 
REMARK    7  A    between atoms: O2_18  and  C14_19 
ROOT
HETATM    1  O1  UNL     1      29.046   2.866  53.219  1.00  0.00    -0.271 OA
HETATM    2  C1  UNL     1      28.119   2.033  53.510  1.00  0.00     0.249 C 
HETATM    3  C2  UNL     1      26.716   1.963  53.384  1.00  0.00     0.162 C 
HETATM    4  C3  UNL     1      25.557   2.105  52.635  1.00  0.00     0.020 C 
HETATM    5  C10 UNL     1      24.595   1.156  52.706  1.00  0.00     0.056 C 
HETATM    6  C11 UNL     1      24.741  -0.013  53.572  1.00  0.00     0.045 C 
HETATM    7  C20 UNL     1      25.652  -0.447  54.439  1.00  0.00     0.118 C 
HETATM    8  N3  UNL     1      26.893  -0.093  54.992  1.00  0.00    -0.358 N 
HETATM    9  C21 UNL     1      28.267   0.009  54.777  1.00  0.00     0.210 C 
HETATM   10  N4  UNL     1      28.932   0.949  54.110  1.00  0.00    -0.209 NA
HETATM   11  H20 UNL     1      27.031   0.297  55.987  1.00  0.00     0.166 HD
ENDROOT
BRANCH   6  12
HETATM   12  N2  UNL     1      23.847  -1.122  53.686  1.00  0.00    -0.387 N 
HETATM   13  H9  UNL     1      23.631  -1.908  53.032  1.00  0.00     0.159 HD
BRANCH  12  14
HETATM   14  C12 UNL     1      23.209  -0.979  54.985  1.00  0.00     0.146 C 
BRANCH  14  15
HETATM   15  C13 UNL     1      21.736  -1.173  54.820  1.00  0.00     0.195 C 
BRANCH  15  16
HETATM   16  O2  UNL     1      21.023  -0.011  54.539  1.00  0.00    -0.350 OA
BRANCH  16  17
HETATM   17  C14 UNL     1      20.421   0.147  53.265  1.00  0.00     0.068 A 
HETATM   18  C15 UNL     1      21.027   0.822  52.253  1.00  0.00     0.037 A 
HETATM   19  C16 UNL     1      20.345   0.923  51.048  1.00  0.00     0.003 A 
HETATM   20  C17 UNL     1      19.105   0.342  50.933  1.00  0.00     0.000 A 
HETATM   21  C18 UNL     1      18.442  -0.352  51.911  1.00  0.00     0.003 A 
HETATM   22  C19 UNL     1      19.151  -0.436  53.115  1.00  0.00     0.037 A 
ENDBRANCH  16  17
ENDBRANCH  15  16
ENDBRANCH  14  15
ENDBRANCH  12  14
ENDBRANCH   6  12
BRANCH   4  23
HETATM   23  N1  UNL     1      25.401   3.235  51.830  1.00  0.00    -0.359 N 
HETATM   24  H3  UNL     1      26.179   3.865  51.578  1.00  0.00     0.166 HD
BRANCH  23  25
HETATM   25  C4  UNL     1      24.141   3.599  51.293  1.00  0.00     0.033 A 
HETATM   26  C5  UNL     1      23.226   4.445  51.871  1.00  0.00     0.029 A 
HETATM   27  C6  UNL     1      22.050   4.708  51.201  1.00  0.00     0.004 A 
HETATM   28  C7  UNL     1      21.723   4.165  49.958  1.00  0.00     0.019 A 
HETATM   29  C8  UNL     1      22.663   3.317  49.398  1.00  0.00     0.013 A 
HETATM   30 BR1  UNL     1      22.276   2.550  47.700  1.00  0.00    -0.051 Br
HETATM   31  C9  UNL     1      23.847   3.036  50.044  1.00  0.00     0.048 A 
ENDBRANCH  23  25
ENDBRANCH   4  23
TORSDOF 7
ENDMDL
MODEL 2
REMARK VINA RESULT:      -8.3      1.423      1.805
REMARK  7 active torsions:
REMARK  status: ('A' for Active; 'I' for Inactive)
REMARK    1  A    between atoms: C3_4  and  N1_5 
REMARK    2  A    between atoms: N1_5  and  C4_6 
REMARK    3  A    between atoms: C11_14  and  N2_15 
REMARK    4  A    between atoms: N2_15  and  C12_16 
REMARK    5  A    between atoms: C12_16  and  C13_17 
REMARK    6  A    between atoms: C13_17  and  O2_18 
REMARK    7  A    between atoms: O2_18  and  C14_19 
ROOT
HETATM    1  O1  UNL     1      28.661   2.821  53.156  1.00  0.00    -0.271 OA
HETATM    2  C1  UNL     1      27.765   1.941  53.397  1.00  0.00     0.249 C 
HETATM    3  C2  UNL     1      26.364   1.912  53.564  1.00  0.00     0.162 C 
HETATM    4  C3  UNL     1      25.086   2.264  53.155  1.00  0.00     0.020 C 
HETATM    5  C10 UNL     1      24.102   1.336  53.166  1.00  0.00     0.056 C 
HETATM    6  C11 UNL     1      24.350  -0.032  53.617  1.00  0.00     0.045 C 
HETATM    7  C20 UNL     1      25.392  -0.698  54.108  1.00  0.00     0.118 C 
HETATM    8  N3  UNL     1      26.740  -0.519  54.455  1.00  0.00    -0.358 N 
HETATM    9  C21 UNL     1      28.043  -0.361  53.984  1.00  0.00     0.210 C 
HETATM   10  N4  UNL     1      28.614   0.729  53.479  1.00  0.00    -0.209 NA
HETATM   11  H20 UNL     1      27.106  -0.431  55.465  1.00  0.00     0.166 HD
ENDROOT
BRANCH   6  12
HETATM   12  N2  UNL     1      23.430  -1.126  53.608  1.00  0.00    -0.387 N 
HETATM   13  H9  UNL     1      23.360  -1.967  52.991  1.00  0.00     0.159 HD
BRANCH  12  14
HETATM   14  C12 UNL     1      22.503  -0.868  54.698  1.00  0.00     0.146 C 
BRANCH  14  15
HETATM   15  C13 UNL     1      21.106  -0.984  54.178  1.00  0.00     0.195 C 
BRANCH  15  16
HETATM   16  O2  UNL     1      20.432   0.226  54.043  1.00  0.00    -0.350 OA
BRANCH  16  17
HETATM   17  C14 UNL     1      20.541   0.956  52.832  1.00  0.00     0.068 A 
HETATM   18  C15 UNL     1      20.406   2.307  52.783  1.00  0.00     0.037 A 
HETATM   19  C16 UNL     1      20.525   2.921  51.544  1.00  0.00     0.003 A 
HETATM   20  C17 UNL     1      20.773   2.144  50.437  1.00  0.00     0.000 A 
HETATM   21  C18 UNL     1      20.921   0.782  50.419  1.00  0.00     0.003 A 
HETATM   22  C19 UNL     1      20.794   0.190  51.681  1.00  0.00     0.037 A 
ENDBRANCH  16  17
ENDBRANCH  15  16
ENDBRANCH  14  15
ENDBRANCH  12  14
ENDBRANCH   6  12
BRANCH   4  23
HETATM   23  N1  UNL     1      24.839   3.578  52.753  1.00  0.00    -0.359 N 
HETATM   24  H3  UNL     1      25.021   4.399  53.351  1.00  0.00     0.166 HD
BRANCH  23  25
HETATM   25  C4  UNL     1      24.315   3.878  51.471  1.00  0.00     0.033 A 
HETATM   26  C5  UNL     1      24.512   3.150  50.322  1.00  0.00     0.029 A 
HETATM   27  C6  UNL     1      23.912   3.575  49.156  1.00  0.00     0.004 A 
HETATM   28  C7  UNL     1      23.107   4.710  49.063  1.00  0.00     0.019 A 
HETATM   29  C8  UNL     1      22.924   5.425  50.235  1.00  0.00     0.013 A 
HETATM   30 BR1  UNL     1      21.829   6.980  50.172  1.00  0.00    -0.051 Br
HETATM   31  C9  UNL     1      23.511   5.024  51.415  1.00  0.00     0.048 A 
ENDBRANCH  23  25
ENDBRANCH   4  23
TORSDOF 7
ENDMDL
MODEL 3
REMARK VINA RESULT:      -7.8      2.292      4.892
REMARK  7 active torsions:
REMARK  status: ('A' for Active; 'I' for Inactive)
REMARK    1  A    between atoms: C3_4  and  N1_5 
REMARK    2  A    between atoms: N1_5  and  C4_6 
REMARK    3  A    between atoms: C11_14  and  N2_15 
REMARK    4  A    between atoms: N2_15  and  C12_16 
REMARK    5  A    between atoms: C12_16  and  C13_17 
REMARK    6  A    between atoms: C13_17  and  O2_18 
REMARK    7  A    between atoms: O2_18  and  C14_19 
ROOT
HETATM    1  O1  UNL     1      25.140  -1.262  55.448  1.00  0.00    -0.271 OA
HETATM    2  C1  UNL     1      25.652  -0.465  54.588  1.00  0.00     0.249 C 
HETATM    3  C2  UNL     1      25.240   0.175  53.400  1.00  0.00     0.162 C 
HETATM    4  C3  UNL     1      24.315   0.916  52.679  1.00  0.00     0.020 C 
HETATM    5  C10 UNL     1      24.739   1.936  51.897  1.00  0.00     0.056 C 
HETATM    6  C11 UNL     1      26.158   2.265  51.778  1.00  0.00     0.045 C 
HETATM    7  C20 UNL     1      27.294   1.767  52.259  1.00  0.00     0.118 C 
HETATM    8  N3  UNL     1      27.776   0.737  53.083  1.00  0.00    -0.358 N 
HETATM    9  C21 UNL     1      27.918   0.274  54.391  1.00  0.00     0.210 C 
HETATM   10  N4  UNL     1      27.004  -0.296  55.171  1.00  0.00    -0.209 NA
HETATM   11  H20 UNL     1      28.254  -0.160  52.725  1.00  0.00     0.166 HD
ENDROOT
BRANCH   6  12
HETATM   12  N2  UNL     1      26.735   3.354  51.056  1.00  0.00    -0.387 N 
HETATM   13  H9  UNL     1      27.519   4.005  51.292  1.00  0.00     0.159 HD
BRANCH  12  14
HETATM   14  C12 UNL     1      25.989   3.438  49.811  1.00  0.00     0.146 C 
BRANCH  14  15
HETATM   15  C13 UNL     1      25.741   4.878  49.496  1.00  0.00     0.195 C 
BRANCH  15  16
HETATM   16  O2  UNL     1      25.016   5.570  50.462  1.00  0.00    -0.350 OA
BRANCH  16  17
HETATM   17  C14 UNL     1      23.644   5.270  50.653  1.00  0.00     0.068 A 
HETATM   18  C15 UNL     1      22.744   5.301  49.636  1.00  0.00     0.037 A 
HETATM   19  C16 UNL     1      21.423   4.996  49.935  1.00  0.00     0.003 A 
HETATM   20  C17 UNL     1      21.090   4.679  51.231  1.00  0.00     0.000 A 
HETATM   21  C18 UNL     1      21.947   4.629  52.299  1.00  0.00     0.003 A 
HETATM   22  C19 UNL     1      23.270   4.943  51.968  1.00  0.00     0.037 A 
ENDBRANCH  16  17
ENDBRANCH  15  16
ENDBRANCH  14  15
ENDBRANCH  12  14
ENDBRANCH   6  12
BRANCH   4  23
HETATM   23  N1  UNL     1      22.962   0.585  52.766  1.00  0.00    -0.359 N 
HETATM   24  H3  UNL     1      22.529   0.177  53.610  1.00  0.00     0.166 HD
BRANCH  23  25
HETATM   25  C4  UNL     1      22.072   0.793  51.683  1.00  0.00     0.033 A 
HETATM   26  C5  UNL     1      22.404   1.284  50.443  1.00  0.00     0.029 A 
HETATM   27  C6  UNL     1      21.414   1.408  49.492  1.00  0.00     0.004 A 
HETATM   28  C7  UNL     1      20.079   1.063  49.707  1.00  0.00     0.019 A 
HETATM   29  C8  UNL     1      19.773   0.570  50.964  1.00  0.00     0.013 A 
HETATM   30 BR1  UNL     1      17.969   0.075  51.314  1.00  0.00    -0.051 Br
HETATM   31  C9  UNL     1      20.742   0.435  51.934  1.00  0.00     0.048 A 
ENDBRANCH  23  25
ENDBRANCH   4  23
TORSDOF 7
ENDMDL
MODEL 4
REMARK VINA RESULT:      -7.7      3.005      5.735
REMARK  7 active torsions:
REMARK  status: ('A' for Active; 'I' for Inactive)
REMARK    1  A    between atoms: C3_4  and  N1_5 
REMARK    2  A    between atoms: N1_5  and  C4_6 
REMARK    3  A    between atoms: C11_14  and  N2_15 
REMARK    4  A    between atoms: N2_15  and  C12_16 
REMARK    5  A    between atoms: C12_16  and  C13_17 
REMARK    6  A    between atoms: C13_17  and  O2_18 
REMARK    7  A    between atoms: O2_18  and  C14_19 
ROOT
HETATM    1  O1  UNL     1      27.801   5.495  48.452  1.00  0.00    -0.271 OA
HETATM    2  C1  UNL     1      26.675   5.548  49.057  1.00  0.00     0.249 C 
HETATM    3  C2  UNL     1      25.828   4.651  49.741  1.00  0.00     0.162 C 
HETATM    4  C3  UNL     1      25.627   3.643  50.673  1.00  0.00     0.020 C 
HETATM    5  C10 UNL     1      24.572   3.715  51.518  1.00  0.00     0.056 C 
HETATM    6  C11 UNL     1      23.624   4.826  51.460  1.00  0.00     0.045 C 
HETATM    7  C20 UNL     1      23.469   5.906  50.698  1.00  0.00     0.118 C 
HETATM    8  N3  UNL     1      24.053   6.569  49.607  1.00  0.00    -0.358 N 
HETATM    9  C21 UNL     1      25.117   7.359  49.170  1.00  0.00     0.210 C 
HETATM   10  N4  UNL     1      26.361   6.986  48.887  1.00  0.00    -0.209 NA
HETATM   11  H20 UNL     1      23.659   6.564  48.604  1.00  0.00     0.166 HD
ENDROOT
BRANCH   6  12
HETATM   12  N2  UNL     1      22.520   5.067  52.334  1.00  0.00    -0.387 N 
HETATM   13  H9  UNL     1      22.466   5.519  53.275  1.00  0.00     0.159 HD
BRANCH  12  14
HETATM   14  C12 UNL     1      21.354   4.529  51.651  1.00  0.00     0.146 C 
BRANCH  14  15
HETATM   15  C13 UNL     1      20.905   3.296  52.367  1.00  0.00     0.195 C 
BRANCH  15  16
HETATM   16  O2  UNL     1      21.486   2.114  51.915  1.00  0.00    -0.350 OA
BRANCH  16  17
HETATM   17  C14 UNL     1      21.767   1.076  52.839  1.00  0.00     0.068 A 
HETATM   18  C15 UNL     1      20.869   0.672  53.775  1.00  0.00     0.037 A 
HETATM   19  C16 UNL     1      21.251  -0.349  54.634  1.00  0.00     0.003 A 
HETATM   20  C17 UNL     1      22.503  -0.899  54.501  1.00  0.00     0.000 A 
HETATM   21  C18 UNL     1      23.452  -0.540  53.580  1.00  0.00     0.003 A 
HETATM   22  C19 UNL     1      23.041   0.493  52.729  1.00  0.00     0.037 A 
ENDBRANCH  16  17
ENDBRANCH  15  16
ENDBRANCH  14  15
ENDBRANCH  12  14
ENDBRANCH   6  12
BRANCH   4  23
HETATM   23  N1  UNL     1      26.513   2.565  50.711  1.00  0.00    -0.359 N 
HETATM   24  H3  UNL     1      27.081   2.268  49.902  1.00  0.00     0.166 HD
BRANCH  23  25
HETATM   25  C4  UNL     1      26.698   1.794  51.885  1.00  0.00     0.033 A 
HETATM   26  C5  UNL     1      26.792   2.278  53.168  1.00  0.00     0.029 A 
HETATM   27  C6  UNL     1      26.955   1.384  54.204  1.00  0.00     0.004 A 
HETATM   28  C7  UNL     1      27.033   0.001  54.035  1.00  0.00     0.019 A 
HETATM   29  C8  UNL     1      26.934  -0.459  52.733  1.00  0.00     0.013 A 
HETATM   30 BR1  UNL     1      27.025  -2.338  52.440  1.00  0.00    -0.051 Br
HETATM   31  C9  UNL     1      26.770   0.411  51.678  1.00  0.00     0.048 A 
ENDBRANCH  23  25
ENDBRANCH   4  23
TORSDOF 7
ENDMDL
MODEL 5
REMARK VINA RESULT:      -7.6      2.046      2.963
REMARK  7 active torsions:
REMARK  status: ('A' for Active; 'I' for Inactive)
REMARK    1  A    between atoms: C3_4  and  N1_5 
REMARK    2  A    between atoms: N1_5  and  C4_6 
REMARK    3  A    between atoms: C11_14  and  N2_15 
REMARK    4  A    between atoms: N2_15  and  C12_16 
REMARK    5  A    between atoms: C12_16  and  C13_17 
REMARK    6  A    between atoms: C13_17  and  O2_18 
REMARK    7  A    between atoms: O2_18  and  C14_19 
ROOT
HETATM    1  O1  UNL     1      27.823   2.340  52.320  1.00  0.00    -0.271 OA
HETATM    2  C1  UNL     1      26.763   1.669  52.574  1.00  0.00     0.249 C 
HETATM    3  C2  UNL     1      25.427   1.946  52.931  1.00  0.00     0.162 C 
HETATM    4  C3  UNL     1      24.244   2.647  52.752  1.00  0.00     0.020 C 
HETATM    5  C10 UNL     1      23.063   1.986  52.787  1.00  0.00     0.056 C 
HETATM    6  C11 UNL     1      23.004   0.545  53.027  1.00  0.00     0.045 C 
HETATM    7  C20 UNL     1      23.889  -0.414  53.282  1.00  0.00     0.118 C 
HETATM    8  N3  UNL     1      25.268  -0.613  53.456  1.00  0.00    -0.358 N 
HETATM    9  C21 UNL     1      26.512  -0.696  52.829  1.00  0.00     0.210 C 
HETATM   10  N4  UNL     1      27.282   0.294  52.386  1.00  0.00    -0.209 NA
HETATM   11  H20 UNL     1      25.749  -0.770  54.407  1.00  0.00     0.166 HD
ENDROOT
BRANCH   6  12
HETATM   12  N2  UNL     1      21.842  -0.286  53.013  1.00  0.00    -0.387 N 
HETATM   13  H9  UNL     1      21.703  -1.278  52.712  1.00  0.00     0.159 HD
BRANCH  12  14
HETATM   14  C12 UNL     1      20.762   0.539  53.530  1.00  0.00     0.146 C 
BRANCH  14  15
HETATM   15  C13 UNL     1      19.733   0.711  52.460  1.00  0.00     0.195 C 
BRANCH  15  16
HETATM   16  O2  UNL     1      20.113   0.244  51.205  1.00  0.00    -0.350 OA
BRANCH  16  17
HETATM   17  C14 UNL     1      20.538   1.167  50.216  1.00  0.00     0.068 A 
HETATM   18  C15 UNL     1      21.366   0.813  49.199  1.00  0.00     0.037 A 
HETATM   19  C16 UNL     1      21.724   1.798  48.288  1.00  0.00     0.003 A 
HETATM   20  C17 UNL     1      21.229   3.070  48.453  1.00  0.00     0.000 A 
HETATM   21  C18 UNL     1      20.391   3.490  49.452  1.00  0.00     0.003 A 
HETATM   22  C19 UNL     1      20.048   2.477  50.357  1.00  0.00     0.037 A 
ENDBRANCH  16  17
ENDBRANCH  15  16
ENDBRANCH  14  15
ENDBRANCH  12  14
ENDBRANCH   6  12
BRANCH   4  23
HETATM   23  N1  UNL     1      24.295   4.028  52.553  1.00  0.00    -0.359 N 
HETATM   24  H3  UNL     1      24.502   4.703  53.305  1.00  0.00     0.166 HD
BRANCH  23  25
HETATM   25  C4  UNL     1      24.065   4.606  51.280  1.00  0.00     0.033 A 
HETATM   26  C5  UNL     1      24.672   4.241  50.101  1.00  0.00     0.029 A 
HETATM   27  C6  UNL     1      24.318   4.899  48.942  1.00  0.00     0.004 A 
HETATM   28  C7  UNL     1      23.373   5.923  48.885  1.00  0.00     0.019 A 
HETATM   29  C8  UNL     1      22.777   6.269  50.085  1.00  0.00     0.013 A 
HETATM   30 BR1  UNL     1      21.473   7.656  50.069  1.00  0.00    -0.051 Br
HETATM   31  C9  UNL     1      23.110   5.629  51.259  1.00  0.00     0.048 A 
ENDBRANCH  23  25
ENDBRANCH   4  23
TORSDOF 7
ENDMDL
MODEL 6
REMARK VINA RESULT:      -7.6      3.466      7.511
REMARK  7 active torsions:
REMARK  status: ('A' for Active; 'I' for Inactive)
REMARK    1  A    between atoms: C3_4  and  N1_5 
REMARK    2  A    between atoms: N1_5  and  C4_6 
REMARK    3  A    between atoms: C11_14  and  N2_15 
REMARK    4  A    between atoms: N2_15  and  C12_16 
REMARK    5  A    between atoms: C12_16  and  C13_17 
REMARK    6  A    between atoms: C13_17  and  O2_18 
REMARK    7  A    between atoms: O2_18  and  C14_19 
ROOT
HETATM    1  O1  UNL     1      21.175  -1.654  54.971  1.00  0.00    -0.271 OA
HETATM    2  C1  UNL     1      21.224  -0.801  54.019  1.00  0.00     0.249 C 
HETATM    3  C2  UNL     1      22.181   0.076  53.466  1.00  0.00     0.162 C 
HETATM    4  C3  UNL     1      23.457   0.333  52.987  1.00  0.00     0.020 C 
HETATM    5  C10 UNL     1      23.612   1.052  51.851  1.00  0.00     0.056 C 
HETATM    6  C11 UNL     1      22.461   1.584  51.123  1.00  0.00     0.045 C 
HETATM    7  C20 UNL     1      21.143   1.584  51.298  1.00  0.00     0.118 C 
HETATM    8  N3  UNL     1      20.155   1.128  52.185  1.00  0.00    -0.358 N 
HETATM    9  C21 UNL     1      19.442   0.023  52.652  1.00  0.00     0.210 C 
HETATM   10  N4  UNL     1      19.842  -0.922  53.498  1.00  0.00    -0.209 NA
HETATM   11  H20 UNL     1      19.628   1.751  52.889  1.00  0.00     0.166 HD
ENDROOT
BRANCH   6  12
HETATM   12  N2  UNL     1      22.475   2.288  49.880  1.00  0.00    -0.387 N 
HETATM   13  H9  UNL     1      21.717   2.491  49.190  1.00  0.00     0.159 HD
BRANCH  12  14
HETATM   14  C12 UNL     1      23.849   2.725  49.692  1.00  0.00     0.146 C 
BRANCH  14  15
HETATM   15  C13 UNL     1      23.880   4.220  49.677  1.00  0.00     0.195 C 
BRANCH  15  16
HETATM   16  O2  UNL     1      25.004   4.786  50.270  1.00  0.00    -0.350 OA
BRANCH  16  17
HETATM   17  C14 UNL     1      25.982   5.413  49.457  1.00  0.00     0.068 A 
HETATM   18  C15 UNL     1      25.798   6.647  48.920  1.00  0.00     0.037 A 
HETATM   19  C16 UNL     1      26.818   7.165  48.133  1.00  0.00     0.003 A 
HETATM   20  C17 UNL     1      27.954   6.416  47.937  1.00  0.00     0.000 A 
HETATM   21  C18 UNL     1      28.202   5.170  48.450  1.00  0.00     0.003 A 
HETATM   22  C19 UNL     1      27.156   4.672  49.237  1.00  0.00     0.037 A 
ENDBRANCH  16  17
ENDBRANCH  15  16
ENDBRANCH  14  15
ENDBRANCH  12  14
ENDBRANCH   6  12
BRANCH   4  23
HETATM   23  N1  UNL     1      24.559  -0.147  53.697  1.00  0.00    -0.359 N 
HETATM   24  H3  UNL     1      24.525  -0.980  54.305  1.00  0.00     0.166 HD
BRANCH  23  25
HETATM   25  C4  UNL     1      25.824   0.487  53.626  1.00  0.00     0.033 A 
HETATM   26  C5  UNL     1      26.057   1.842  53.654  1.00  0.00     0.029 A 
HETATM   27  C6  UNL     1      27.358   2.292  53.593  1.00  0.00     0.004 A 
HETATM   28  C7  UNL     1      28.470   1.455  53.503  1.00  0.00     0.019 A 
HETATM   29  C8  UNL     1      28.207   0.096  53.479  1.00  0.00     0.013 A 
HETATM   30 BR1  UNL     1      29.685  -1.098  53.365  1.00  0.00    -0.051 Br
HETATM   31  C9  UNL     1      26.917  -0.384  53.538  1.00  0.00     0.048 A 
ENDBRANCH  23  25
ENDBRANCH   4  23
TORSDOF 7
ENDMDL
MODEL 7
REMARK VINA RESULT:      -7.5      3.065      7.072
REMARK  7 active torsions:
REMARK  status: ('A' for Active; 'I' for Inactive)
REMARK    1  A    between atoms: C3_4  and  N1_5 
REMARK    2  A    between atoms: N1_5  and  C4_6 
REMARK    3  A    between atoms: C11_14  and  N2_15 
REMARK    4  A    between atoms: N2_15  and  C12_16 
REMARK    5  A    between atoms: C12_16  and  C13_17 
REMARK    6  A    between atoms: C13_17  and  O2_18 
REMARK    7  A    between atoms: O2_18  and  C14_19 
ROOT
HETATM    1  O1  UNL     1      19.764   2.581  48.974  1.00  0.00    -0.271 OA
HETATM    2  C1  UNL     1      20.892   3.177  49.078  1.00  0.00     0.249 C 
HETATM    3  C2  UNL     1      21.683   3.715  50.113  1.00  0.00     0.162 C 
HETATM    4  C3  UNL     1      22.274   3.618  51.365  1.00  0.00     0.020 C 
HETATM    5  C10 UNL     1      23.554   4.025  51.533  1.00  0.00     0.056 C 
HETATM    6  C11 UNL     1      24.327   4.585  50.426  1.00  0.00     0.045 C 
HETATM    7  C20 UNL     1      24.090   4.869  49.149  1.00  0.00     0.118 C 
HETATM    8  N3  UNL     1      23.071   4.813  48.185  1.00  0.00    -0.358 N 
HETATM    9  C21 UNL     1      22.322   3.992  47.342  1.00  0.00     0.210 C 
HETATM   10  N4  UNL     1      21.298   3.201  47.653  1.00  0.00    -0.209 NA
HETATM   11  H20 UNL     1      22.508   5.664  47.838  1.00  0.00     0.166 HD
ENDROOT
BRANCH   6  12
HETATM   12  N2  UNL     1      25.700   4.979  50.443  1.00  0.00    -0.387 N 
HETATM   13  H9  UNL     1      26.209   5.695  51.010  1.00  0.00     0.159 HD
BRANCH  12  14
HETATM   14  C12 UNL     1      26.358   4.152  49.445  1.00  0.00     0.146 C 
BRANCH  14  15
HETATM   15  C13 UNL     1      26.600   2.796  50.027  1.00  0.00     0.195 C 
BRANCH  15  16
HETATM   16  O2  UNL     1      27.079   2.800  51.334  1.00  0.00    -0.350 OA
BRANCH  16  17
HETATM   17  C14 UNL     1      26.785   1.707  52.188  1.00  0.00     0.068 A 
HETATM   18  C15 UNL     1      26.575   0.451  51.717  1.00  0.00     0.037 A 
HETATM   19  C16 UNL     1      26.288  -0.545  52.641  1.00  0.00     0.003 A 
HETATM   20  C17 UNL     1      26.231  -0.219  53.975  1.00  0.00     0.000 A 
HETATM   21  C18 UNL     1      26.434   1.024  54.515  1.00  0.00     0.003 A 
HETATM   22  C19 UNL     1      26.719   2.008  53.560  1.00  0.00     0.037 A 
ENDBRANCH  16  17
ENDBRANCH  15  16
ENDBRANCH  14  15
ENDBRANCH  12  14
ENDBRANCH   6  12
BRANCH   4  23
HETATM   23  N1  UNL     1      21.529   3.112  52.431  1.00  0.00    -0.359 N 
HETATM   24  H3  UNL     1      20.903   3.692  53.013  1.00  0.00     0.166 HD
BRANCH  23  25
HETATM   25  C4  UNL     1      21.578   1.743  52.792  1.00  0.00     0.033 A 
HETATM   26  C5  UNL     1      22.707   1.030  53.121  1.00  0.00     0.029 A 
HETATM   27  C6  UNL     1      22.574  -0.298  53.467  1.00  0.00     0.004 A 
HETATM   28  C7  UNL     1      21.356  -0.976  53.506  1.00  0.00     0.019 A 
HETATM   29  C8  UNL     1      20.236  -0.234  53.172  1.00  0.00     0.013 A 
HETATM   30 BR1  UNL     1      18.543  -1.103  53.215  1.00  0.00    -0.051 Br
HETATM   31  C9  UNL     1      20.337   1.095  52.822  1.00  0.00     0.048 A 
ENDBRANCH  23  25
ENDBRANCH   4  23
TORSDOF 7
ENDMDL
MODEL 8
REMARK VINA RESULT:      -7.4      3.029      6.471
REMARK  7 active torsions:
REMARK  status: ('A' for Active; 'I' for Inactive)
REMARK    1  A    between atoms: C3_4  and  N1_5 
REMARK    2  A    between atoms: N1_5  and  C4_6 
REMARK    3  A    between atoms: C11_14  and  N2_15 
REMARK    4  A    between atoms: N2_15  and  C12_16 
REMARK    5  A    between atoms: C12_16  and  C13_17 
REMARK    6  A    between atoms: C13_17  and  O2_18 
REMARK    7  A    between atoms: O2_18  and  C14_19 
ROOT
HETATM    1  O1  UNL     1      22.840  -1.354  55.717  1.00  0.00    -0.271 OA
HETATM    2  C1  UNL     1      22.162  -0.897  54.732  1.00  0.00     0.249 C 
HETATM    3  C2  UNL     1      22.239   0.196  53.845  1.00  0.00     0.162 C 
HETATM    4  C3  UNL     1      22.957   1.007  52.977  1.00  0.00     0.020 C 
HETATM    5  C10 UNL     1      22.407   1.373  51.797  1.00  0.00     0.056 C 
HETATM    6  C11 UNL     1      21.060   0.948  51.419  1.00  0.00     0.045 C 
HETATM    7  C20 UNL     1      20.091   0.239  51.991  1.00  0.00     0.118 C 
HETATM    8  N3  UNL     1      19.797  -0.460  53.172  1.00  0.00    -0.358 N 
HETATM    9  C21 UNL     1      20.030  -1.614  53.921  1.00  0.00     0.210 C 
HETATM   10  N4  UNL     1      21.084  -1.913  54.674  1.00  0.00    -0.209 NA
HETATM   11  H20 UNL     1      19.148  -0.098  53.953  1.00  0.00     0.166 HD
ENDROOT
BRANCH   6  12
HETATM   12  N2  UNL     1      20.391   1.195  50.181  1.00  0.00    -0.387 N 
HETATM   13  H9  UNL     1      19.406   1.473  49.969  1.00  0.00     0.159 HD
BRANCH  12  14
HETATM   14  C12 UNL     1      21.388   0.975  49.146  1.00  0.00     0.146 C 
BRANCH  14  15
HETATM   15  C13 UNL     1      21.375   2.142  48.211  1.00  0.00     0.195 C 
BRANCH  15  16
HETATM   16  O2  UNL     1      21.133   3.372  48.816  1.00  0.00    -0.350 OA
BRANCH  16  17
HETATM   17  C14 UNL     1      22.218   4.116  49.345  1.00  0.00     0.068 A 
HETATM   18  C15 UNL     1      23.425   4.181  48.726  1.00  0.00     0.037 A 
HETATM   19  C16 UNL     1      24.421   4.934  49.333  1.00  0.00     0.003 A 
HETATM   20  C17 UNL     1      24.143   5.573  50.518  1.00  0.00     0.000 A 
HETATM   21  C18 UNL     1      22.949   5.550  51.191  1.00  0.00     0.003 A 
HETATM   22  C19 UNL     1      21.965   4.782  50.557  1.00  0.00     0.037 A 
ENDBRANCH  16  17
ENDBRANCH  15  16
ENDBRANCH  14  15
ENDBRANCH  12  14
ENDBRANCH   6  12
BRANCH   4  23
HETATM   23  N1  UNL     1      24.231   1.440  53.348  1.00  0.00    -0.359 N 
HETATM   24  H3  UNL     1      24.426   2.385  53.714  1.00  0.00     0.166 HD
BRANCH  23  25
HETATM   25  C4  UNL     1      25.363   0.594  53.249  1.00  0.00     0.033 A 
HETATM   26  C5  UNL     1      25.379  -0.687  52.750  1.00  0.00     0.029 A 
HETATM   27  C6  UNL     1      26.577  -1.368  52.709  1.00  0.00     0.004 A 
HETATM   28  C7  UNL     1      27.791  -0.837  53.146  1.00  0.00     0.019 A 
HETATM   29  C8  UNL     1      27.746   0.455  53.642  1.00  0.00     0.013 A 
HETATM   30 BR1  UNL     1      29.373   1.236  54.247  1.00  0.00    -0.051 Br
HETATM   31  C9  UNL     1      26.564   1.160  53.696  1.00  0.00     0.048 A 
ENDBRANCH  23  25
ENDBRANCH   4  23
TORSDOF 7
ENDMDL
MODEL 9
REMARK VINA RESULT:      -7.2      3.129      6.359
REMARK  7 active torsions:
REMARK  status: ('A' for Active; 'I' for Inactive)
REMARK    1  A    between atoms: C3_4  and  N1_5 
REMARK    2  A    between atoms: N1_5  and  C4_6 
REMARK    3  A    between atoms: C11_14  and  N2_15 
REMARK    4  A    between atoms: N2_15  and  C12_16 
REMARK    5  A    between atoms: C12_16  and  C13_17 
REMARK    6  A    between atoms: C13_17  and  O2_18 
REMARK    7  A    between atoms: O2_18  and  C14_19 
ROOT
HETATM    1  O1  UNL     1      17.852   2.669  49.141  1.00  0.00    -0.271 OA
HETATM    2  C1  UNL     1      18.290   1.945  50.102  1.00  0.00     0.249 C 
HETATM    3  C2  UNL     1      19.438   1.900  50.919  1.00  0.00     0.162 C 
HETATM    4  C3  UNL     1      20.377   2.524  51.729  1.00  0.00     0.020 C 
HETATM    5  C10 UNL     1      20.752   1.938  52.890  1.00  0.00     0.056 C 
HETATM    6  C11 UNL     1      20.203   0.648  53.305  1.00  0.00     0.045 C 
HETATM    7  C20 UNL     1      19.355  -0.235  52.787  1.00  0.00     0.118 C 
HETATM    8  N3  UNL     1      18.555  -0.451  51.653  1.00  0.00    -0.358 N 
HETATM    9  C21 UNL     1      17.390  -0.091  50.976  1.00  0.00     0.210 C 
HETATM   10  N4  UNL     1      17.165   0.989  50.233  1.00  0.00    -0.209 NA
HETATM   11  H20 UNL     1      18.792  -1.139  50.858  1.00  0.00     0.166 HD
ENDROOT
BRANCH   6  12
HETATM   12  N2  UNL     1      20.450  -0.042  54.531  1.00  0.00    -0.387 N 
HETATM   13  H9  UNL     1      20.101   0.124  55.502  1.00  0.00     0.159 HD
BRANCH  12  14
HETATM   14  C12 UNL     1      21.360  -1.125  54.195  1.00  0.00     0.146 C 
BRANCH  14  15
HETATM   15  C13 UNL     1      22.762  -0.666  54.436  1.00  0.00     0.195 C 
BRANCH  15  16
HETATM   16  O2  UNL     1      23.621  -0.821  53.351  1.00  0.00    -0.350 OA
BRANCH  16  17
HETATM   17  C14 UNL     1      24.490   0.240  52.991  1.00  0.00     0.068 A 
HETATM   18  C15 UNL     1      24.140   1.545  53.129  1.00  0.00     0.037 A 
HETATM   19  C16 UNL     1      25.065   2.505  52.739  1.00  0.00     0.003 A 
HETATM   20  C17 UNL     1      26.277   2.096  52.239  1.00  0.00     0.000 A 
HETATM   21  C18 UNL     1      26.692   0.800  52.076  1.00  0.00     0.003 A 
HETATM   22  C19 UNL     1      25.739  -0.145  52.475  1.00  0.00     0.037 A 
ENDBRANCH  16  17
ENDBRANCH  15  16
ENDBRANCH  14  15
ENDBRANCH  12  14
ENDBRANCH   6  12
BRANCH   4  23
HETATM   23  N1  UNL     1      20.926   3.740  51.320  1.00  0.00    -0.359 N 
HETATM   24  H3  UNL     1      20.469   4.652  51.479  1.00  0.00     0.166 HD
BRANCH  23  25
HETATM   25  C4  UNL     1      22.173   3.807  50.651  1.00  0.00     0.033 A 
HETATM   26  C5  UNL     1      22.718   2.833  49.849  1.00  0.00     0.029 A 
HETATM   27  C6  UNL     1      23.940   3.069  49.256  1.00  0.00     0.004 A 
HETATM   28  C7  UNL     1      24.671   4.246  49.418  1.00  0.00     0.019 A 
HETATM   29  C8  UNL     1      24.098   5.211  50.230  1.00  0.00     0.013 A 
HETATM   30 BR1  UNL     1      25.046   6.842  50.483  1.00  0.00    -0.051 Br
HETATM   31  C9  UNL     1      22.879   5.003  50.835  1.00  0.00     0.048 A 
ENDBRANCH  23  25
ENDBRANCH   4  23
TORSDOF 7
ENDMDL
