MODEL 1
REMARK VINA RESULT:      -7.9      0.000      0.000
REMARK  9 active torsions:
REMARK  status: ('A' for Active; 'I' for Inactive)
REMARK    1  A    between atoms: C5_5  and  S1_6 
REMARK    2  A    between atoms: S1_6  and  O3_9 
REMARK    3  A    between atoms: O3_9  and  C6_10 
REMARK    4  A    between atoms: C9_13  and  C10_14 
REMARK    5  A    between atoms: C10_14  and  C11_15 
REMARK    6  A    between atoms: C11_15  and  C13_17 
REMARK    7  A    between atoms: C13_17  and  N1_18 
REMARK    8  A    between atoms: C18_23  and  C19_24 
REMARK    9  A    between atoms: C19_24  and  O5_26 
ROOT
HETATM    1  O3  UNL     1      24.961   1.236  51.566  1.00  0.00    -0.229 OA
ENDROOT
BRANCH   1   2
HETATM    2  S1  UNL     1      25.545   1.177  53.180  1.00  0.00     0.304 S 
HETATM    3  O1  UNL     1      24.449   0.485  53.984  1.00  0.00    -0.193 OA
HETATM    4  O2  UNL     1      25.781   2.521  53.758  1.00  0.00    -0.193 OA
BRANCH   2   5
HETATM    5  C5  UNL     1      26.980   0.184  53.194  1.00  0.00     0.104 A 
HETATM    6  C4  UNL     1      26.963  -1.250  52.921  1.00  0.00     0.028 A 
HETATM    7  C3  UNL     1      28.165  -1.752  52.994  1.00  0.00     0.013 A 
HETATM    8  C2  UNL     1      28.983  -0.602  53.326  1.00  0.00    -0.027 A 
HETATM    9  C1  UNL     1      30.275  -0.677  53.491  1.00  0.00     0.024 C 
HETATM   10  C18 UNL     1      28.194   0.608  53.444  1.00  0.00     0.070 A 
BRANCH  10  11
HETATM   11  C19 UNL     1      28.729   1.910  53.762  1.00  0.00     0.178 C 
HETATM   12  O4  UNL     1      29.162   2.204  54.894  1.00  0.00    -0.646 OA
BRANCH  11  13
HETATM   13  O5  UNL     1      28.850   2.994  52.925  1.00  0.00    -0.773 OA
HETATM   14  H23 UNL     1      28.195   3.148  52.165  1.00  0.00     0.167 HD
ENDBRANCH  11  13
ENDBRANCH  10  11
ENDBRANCH   2   5
ENDBRANCH   1   2
BRANCH   1  15
HETATM   15  C6  UNL     1      25.238   2.397  50.819  1.00  0.00     0.089 A 
HETATM   16  C7  UNL     1      26.459   2.822  50.346  1.00  0.00     0.039 A 
HETATM   17  C8  UNL     1      26.583   3.975  49.632  1.00  0.00     0.010 A 
HETATM   18  C9  UNL     1      25.496   4.771  49.349  1.00  0.00    -0.058 A 
HETATM   19  C16 UNL     1      24.243   4.358  49.820  1.00  0.00     0.010 A 
HETATM   20  C17 UNL     1      24.110   3.177  50.552  1.00  0.00     0.039 A 
BRANCH  18  21
HETATM   21  C10 UNL     1      25.690   6.017  48.564  1.00  0.00     0.044 C 
BRANCH  21  22
HETATM   22  C11 UNL     1      26.991   6.704  48.925  1.00  0.00     0.003 C 
HETATM   23  C12 UNL     1      27.734   6.959  47.632  1.00  0.00     0.012 C 
BRANCH  22  24
HETATM   24  C13 UNL     1      26.612   7.969  49.622  1.00  0.00     0.120 C 
BRANCH  24  25
HETATM   25  N1  UNL     1      27.218   9.159  49.167  1.00  0.00    -0.420 N 
HETATM   26  C14 UNL     1      28.386   9.645  49.762  1.00  0.00     0.142 C 
HETATM   27  C15 UNL     1      26.309  10.203  48.796  1.00  0.00     0.142 C 
ENDBRANCH  24  25
ENDBRANCH  22  24
ENDBRANCH  21  22
ENDBRANCH  18  21
ENDBRANCH   1  15
TORSDOF 9
ENDMDL
MODEL 2
REMARK VINA RESULT:      -7.8      1.363      2.037
REMARK  9 active torsions:
REMARK  status: ('A' for Active; 'I' for Inactive)
REMARK    1  A    between atoms: C5_5  and  S1_6 
REMARK    2  A    between atoms: S1_6  and  O3_9 
REMARK    3  A    between atoms: O3_9  and  C6_10 
REMARK    4  A    between atoms: C9_13  and  C10_14 
REMARK    5  A    between atoms: C10_14  and  C11_15 
REMARK    6  A    between atoms: C11_15  and  C13_17 
REMARK    7  A    between atoms: C13_17  and  N1_18 
REMARK    8  A    between atoms: C18_23  and  C19_24 
REMARK    9  A    between atoms: C19_24  and  O5_26 
ROOT
HETATM    1  O3  UNL     1      24.895   1.589  51.304  1.00  0.00    -0.229 OA
ENDROOT
BRANCH   1   2
HETATM    2  S1  UNL     1      25.290   1.373  52.961  1.00  0.00     0.304 S 
HETATM    3  O1  UNL     1      24.082   0.678  53.580  1.00  0.00    -0.193 OA
HETATM    4  O2  UNL     1      25.517   2.654  53.673  1.00  0.00    -0.193 OA
BRANCH   2   5
HETATM    5  C5  UNL     1      26.670   0.309  53.048  1.00  0.00     0.104 A 
HETATM    6  C4  UNL     1      26.587  -1.130  52.813  1.00  0.00     0.028 A 
HETATM    7  C3  UNL     1      27.758  -1.690  52.939  1.00  0.00     0.013 A 
HETATM    8  C2  UNL     1      28.624  -0.575  53.267  1.00  0.00    -0.027 A 
HETATM    9  C1  UNL     1      29.905  -0.712  53.475  1.00  0.00     0.024 C 
HETATM   10  C18 UNL     1      27.896   0.677  53.326  1.00  0.00     0.070 A 
BRANCH  10  11
HETATM   11  C19 UNL     1      28.488   1.958  53.626  1.00  0.00     0.178 C 
HETATM   12  O4  UNL     1      29.001   2.222  54.732  1.00  0.00    -0.646 OA
BRANCH  11  13
HETATM   13  O5  UNL     1      28.588   3.050  52.797  1.00  0.00    -0.773 OA
HETATM   14  H23 UNL     1      28.378   3.985  53.132  1.00  0.00     0.167 HD
ENDBRANCH  11  13
ENDBRANCH  10  11
ENDBRANCH   2   5
ENDBRANCH   1   2
BRANCH   1  15
HETATM   15  C6  UNL     1      25.203   2.834  50.722  1.00  0.00     0.089 A 
HETATM   16  C7  UNL     1      24.457   3.990  50.764  1.00  0.00     0.039 A 
HETATM   17  C8  UNL     1      24.878   5.130  50.151  1.00  0.00     0.010 A 
HETATM   18  C9  UNL     1      26.069   5.184  49.461  1.00  0.00    -0.058 A 
HETATM   19  C16 UNL     1      26.845   4.019  49.406  1.00  0.00     0.010 A 
HETATM   20  C17 UNL     1      26.418   2.847  50.032  1.00  0.00     0.039 A 
BRANCH  18  21
HETATM   21  C10 UNL     1      26.480   6.456  48.814  1.00  0.00     0.044 C 
BRANCH  21  22
HETATM   22  C11 UNL     1      25.797   7.649  49.450  1.00  0.00     0.003 C 
HETATM   23  C12 UNL     1      26.884   8.533  50.022  1.00  0.00     0.012 C 
BRANCH  22  24
HETATM   24  C13 UNL     1      25.033   8.321  48.357  1.00  0.00     0.120 C 
BRANCH  24  25
HETATM   25  N1  UNL     1      23.626   8.272  48.434  1.00  0.00    -0.420 N 
HETATM   26  C14 UNL     1      22.968   8.381  49.662  1.00  0.00     0.142 C 
HETATM   27  C15 UNL     1      22.999   7.333  47.551  1.00  0.00     0.142 C 
ENDBRANCH  24  25
ENDBRANCH  22  24
ENDBRANCH  21  22
ENDBRANCH  18  21
ENDBRANCH   1  15
TORSDOF 9
ENDMDL
MODEL 3
REMARK VINA RESULT:      -7.6      2.425      3.567
REMARK  9 active torsions:
REMARK  status: ('A' for Active; 'I' for Inactive)
REMARK    1  A    between atoms: C5_5  and  S1_6 
REMARK    2  A    between atoms: S1_6  and  O3_9 
REMARK    3  A    between atoms: O3_9  and  C6_10 
REMARK    4  A    between atoms: C9_13  and  C10_14 
REMARK    5  A    between atoms: C10_14  and  C11_15 
REMARK    6  A    between atoms: C11_15  and  C13_17 
REMARK    7  A    between atoms: C13_17  and  N1_18 
REMARK    8  A    between atoms: C18_23  and  C19_24 
REMARK    9  A    between atoms: C19_24  and  O5_26 
ROOT
HETATM    1  O3  UNL     1      24.834   3.024  49.868  1.00  0.00    -0.229 OA
ENDROOT
BRANCH   1   2
HETATM    2  S1  UNL     1      23.878   3.173  51.287  1.00  0.00     0.304 S 
HETATM    3  O1  UNL     1      22.432   3.206  50.801  1.00  0.00    -0.193 OA
HETATM    4  O2  UNL     1      24.154   4.420  52.041  1.00  0.00    -0.193 OA
BRANCH   2   5
HETATM    5  C5  UNL     1      24.125   1.742  52.253  1.00  0.00     0.104 A 
HETATM    6  C4  UNL     1      23.080   0.752  52.498  1.00  0.00     0.028 A 
HETATM    7  C3  UNL     1      23.525  -0.218  53.249  1.00  0.00     0.013 A 
HETATM    8  C2  UNL     1      24.902   0.162  53.496  1.00  0.00    -0.027 A 
HETATM    9  C1  UNL     1      25.715  -0.559  54.220  1.00  0.00     0.024 C 
HETATM   10  C18 UNL     1      25.244   1.411  52.847  1.00  0.00     0.070 A 
BRANCH  10  11
HETATM   11  C19 UNL     1      26.542   2.040  52.909  1.00  0.00     0.178 C 
HETATM   12  O4  UNL     1      27.327   2.063  51.940  1.00  0.00    -0.646 OA
BRANCH  11  13
HETATM   13  O5  UNL     1      27.110   2.686  53.980  1.00  0.00    -0.773 OA
HETATM   14  H23 UNL     1      28.032   2.430  54.321  1.00  0.00     0.167 HD
ENDBRANCH  11  13
ENDBRANCH  10  11
ENDBRANCH   2   5
ENDBRANCH   1   2
BRANCH   1  15
HETATM   15  C6  UNL     1      25.431   4.195  49.363  1.00  0.00     0.089 A 
HETATM   16  C7  UNL     1      24.811   5.373  49.016  1.00  0.00     0.039 A 
HETATM   17  C8  UNL     1      25.518   6.434  48.536  1.00  0.00     0.010 A 
HETATM   18  C9  UNL     1      26.884   6.380  48.374  1.00  0.00    -0.058 A 
HETATM   19  C16 UNL     1      27.537   5.190  48.722  1.00  0.00     0.010 A 
HETATM   20  C17 UNL     1      26.817   4.099  49.215  1.00  0.00     0.039 A 
BRANCH  18  21
HETATM   21  C10 UNL     1      27.604   7.568  47.849  1.00  0.00     0.044 C 
BRANCH  21  22
HETATM   22  C11 UNL     1      29.073   7.275  47.627  1.00  0.00     0.003 C 
HETATM   23  C12 UNL     1      29.418   7.748  46.232  1.00  0.00     0.012 C 
BRANCH  22  24
HETATM   24  C13 UNL     1      29.810   8.031  48.683  1.00  0.00     0.120 C 
BRANCH  24  25
HETATM   25  N1  UNL     1      31.060   7.516  49.087  1.00  0.00    -0.420 N 
HETATM   26  C14 UNL     1      32.248   8.181  48.773  1.00  0.00     0.142 C 
HETATM   27  C15 UNL     1      31.186   6.090  49.010  1.00  0.00     0.142 C 
ENDBRANCH  24  25
ENDBRANCH  22  24
ENDBRANCH  21  22
ENDBRANCH  18  21
ENDBRANCH   1  15
TORSDOF 9
ENDMDL
MODEL 4
REMARK VINA RESULT:      -7.3      5.119      8.093
REMARK  9 active torsions:
REMARK  status: ('A' for Active; 'I' for Inactive)
REMARK    1  A    between atoms: C5_5  and  S1_6 
REMARK    2  A    between atoms: S1_6  and  O3_9 
REMARK    3  A    between atoms: O3_9  and  C6_10 
REMARK    4  A    between atoms: C9_13  and  C10_14 
REMARK    5  A    between atoms: C10_14  and  C11_15 
REMARK    6  A    between atoms: C11_15  and  C13_17 
REMARK    7  A    between atoms: C13_17  and  N1_18 
REMARK    8  A    between atoms: C18_23  and  C19_24 
REMARK    9  A    between atoms: C19_24  and  O5_26 
ROOT
HETATM    1  O3  UNL     1      21.421   1.076  51.047  1.00  0.00    -0.229 OA
ENDROOT
BRANCH   1   2
HETATM    2  S1  UNL     1      19.993   1.719  51.751  1.00  0.00     0.304 S 
HETATM    3  O1  UNL     1      19.374   2.607  50.677  1.00  0.00    -0.193 OA
HETATM    4  O2  UNL     1      20.263   2.546  52.953  1.00  0.00    -0.193 OA
BRANCH   2   5
HETATM    5  C5  UNL     1      18.915   0.389  52.087  1.00  0.00     0.104 A 
HETATM    6  C4  UNL     1      17.692   0.140  51.329  1.00  0.00     0.028 A 
HETATM    7  C3  UNL     1      17.071  -0.915  51.781  1.00  0.00     0.013 A 
HETATM    8  C2  UNL     1      17.922  -1.358  52.868  1.00  0.00    -0.027 A 
HETATM    9  C1  UNL     1      17.651  -2.407  53.595  1.00  0.00     0.024 C 
HETATM   10  C18 UNL     1      19.082  -0.505  53.029  1.00  0.00     0.070 A 
BRANCH  10  11
HETATM   11  C19 UNL     1      20.109  -0.696  54.024  1.00  0.00     0.178 C 
HETATM   12  O4  UNL     1      20.776  -1.747  54.113  1.00  0.00    -0.646 OA
BRANCH  11  13
HETATM   13  O5  UNL     1      20.513   0.191  54.994  1.00  0.00    -0.773 OA
HETATM   14  H23 UNL     1      20.917   1.090  54.749  1.00  0.00     0.167 HD
ENDBRANCH  11  13
ENDBRANCH  10  11
ENDBRANCH   2   5
ENDBRANCH   1   2
BRANCH   1  15
HETATM   15  C6  UNL     1      22.616   1.196  51.782  1.00  0.00     0.089 A 
HETATM   16  C7  UNL     1      23.121   0.319  52.715  1.00  0.00     0.039 A 
HETATM   17  C8  UNL     1      24.298   0.563  53.355  1.00  0.00     0.010 A 
HETATM   18  C9  UNL     1      25.039   1.696  53.102  1.00  0.00    -0.058 A 
HETATM   19  C16 UNL     1      24.544   2.602  52.155  1.00  0.00     0.010 A 
HETATM   20  C17 UNL     1      23.338   2.357  51.495  1.00  0.00     0.039 A 
BRANCH  18  21
HETATM   21  C10 UNL     1      26.317   1.910  53.828  1.00  0.00     0.044 C 
BRANCH  21  22
HETATM   22  C11 UNL     1      27.484   2.046  52.871  1.00  0.00     0.003 C 
HETATM   23  C12 UNL     1      28.678   2.494  53.685  1.00  0.00     0.012 C 
BRANCH  22  24
HETATM   24  C13 UNL     1      27.682   0.695  52.265  1.00  0.00     0.120 C 
BRANCH  24  25
HETATM   25  N1  UNL     1      27.908  -0.378  53.152  1.00  0.00    -0.420 N 
HETATM   26  C14 UNL     1      29.200  -0.699  53.580  1.00  0.00     0.142 C 
HETATM   27  C15 UNL     1      27.096  -1.538  52.925  1.00  0.00     0.142 C 
ENDBRANCH  24  25
ENDBRANCH  22  24
ENDBRANCH  21  22
ENDBRANCH  18  21
ENDBRANCH   1  15
TORSDOF 9
ENDMDL
MODEL 5
REMARK VINA RESULT:      -7.3      5.131      7.964
REMARK  9 active torsions:
REMARK  status: ('A' for Active; 'I' for Inactive)
REMARK    1  A    between atoms: C5_5  and  S1_6 
REMARK    2  A    between atoms: S1_6  and  O3_9 
REMARK    3  A    between atoms: O3_9  and  C6_10 
REMARK    4  A    between atoms: C9_13  and  C10_14 
REMARK    5  A    between atoms: C10_14  and  C11_15 
REMARK    6  A    between atoms: C11_15  and  C13_17 
REMARK    7  A    between atoms: C13_17  and  N1_18 
REMARK    8  A    between atoms: C18_23  and  C19_24 
REMARK    9  A    between atoms: C19_24  and  O5_26 
ROOT
HETATM    1  O3  UNL     1      30.252   7.405  47.010  1.00  0.00    -0.229 OA
ENDROOT
BRANCH   1   2
HETATM    2  S1  UNL     1      31.144   8.468  48.022  1.00  0.00     0.304 S 
HETATM    3  O1  UNL     1      30.450   8.416  49.379  1.00  0.00    -0.193 OA
HETATM    4  O2  UNL     1      31.135   9.870  47.538  1.00  0.00    -0.193 OA
BRANCH   2   5
HETATM    5  C5  UNL     1      32.759   7.828  48.180  1.00  0.00     0.104 A 
HETATM    6  C4  UNL     1      33.953   8.559  47.763  1.00  0.00     0.028 A 
HETATM    7  C3  UNL     1      35.030   7.859  47.990  1.00  0.00     0.013 A 
HETATM    8  C2  UNL     1      34.512   6.636  48.571  1.00  0.00    -0.027 A 
HETATM    9  C1  UNL     1      35.281   5.652  48.950  1.00  0.00     0.024 C 
HETATM   10  C18 UNL     1      33.067   6.656  48.675  1.00  0.00     0.070 A 
BRANCH  10  11
HETATM   11  C19 UNL     1      32.268   5.583  49.216  1.00  0.00     0.178 C 
HETATM   12  O4  UNL     1      32.070   4.514  48.604  1.00  0.00    -0.646 OA
BRANCH  11  13
HETATM   13  O5  UNL     1      31.620   5.548  50.427  1.00  0.00    -0.773 OA
HETATM   14  H23 UNL     1      31.572   4.694  50.975  1.00  0.00     0.167 HD
ENDBRANCH  11  13
ENDBRANCH  10  11
ENDBRANCH   2   5
ENDBRANCH   1   2
BRANCH   1  15
HETATM   15  C6  UNL     1      29.026   6.918  47.503  1.00  0.00     0.089 A 
HETATM   16  C7  UNL     1      28.792   5.724  48.145  1.00  0.00     0.039 A 
HETATM   17  C8  UNL     1      27.545   5.378  48.571  1.00  0.00     0.010 A 
HETATM   18  C9  UNL     1      26.460   6.204  48.381  1.00  0.00    -0.058 A 
HETATM   19  C16 UNL     1      26.675   7.426  47.731  1.00  0.00     0.010 A 
HETATM   20  C17 UNL     1      27.951   7.786  47.292  1.00  0.00     0.039 A 
BRANCH  18  21
HETATM   21  C10 UNL     1      25.124   5.777  48.869  1.00  0.00     0.044 C 
BRANCH  21  22
HETATM   22  C11 UNL     1      25.124   5.557  50.368  1.00  0.00     0.003 C 
HETATM   23  C12 UNL     1      24.277   6.651  50.980  1.00  0.00     0.012 C 
BRANCH  22  24
HETATM   24  C13 UNL     1      24.544   4.199  50.587  1.00  0.00     0.120 C 
BRANCH  24  25
HETATM   25  N1  UNL     1      25.264   3.321  51.425  1.00  0.00    -0.420 N 
HETATM   26  C14 UNL     1      26.318   2.552  50.925  1.00  0.00     0.142 C 
HETATM   27  C15 UNL     1      24.475   2.617  52.393  1.00  0.00     0.142 C 
ENDBRANCH  24  25
ENDBRANCH  22  24
ENDBRANCH  21  22
ENDBRANCH  18  21
ENDBRANCH   1  15
TORSDOF 9
ENDMDL
MODEL 6
REMARK VINA RESULT:      -7.2      2.351      3.459
REMARK  9 active torsions:
REMARK  status: ('A' for Active; 'I' for Inactive)
REMARK    1  A    between atoms: C5_5  and  S1_6 
REMARK    2  A    between atoms: S1_6  and  O3_9 
REMARK    3  A    between atoms: O3_9  and  C6_10 
REMARK    4  A    between atoms: C9_13  and  C10_14 
REMARK    5  A    between atoms: C10_14  and  C11_15 
REMARK    6  A    between atoms: C11_15  and  C13_17 
REMARK    7  A    between atoms: C13_17  and  N1_18 
REMARK    8  A    between atoms: C18_23  and  C19_24 
REMARK    9  A    between atoms: C19_24  and  O5_26 
ROOT
HETATM    1  O3  UNL     1      24.291   2.929  49.953  1.00  0.00    -0.229 OA
ENDROOT
BRANCH   1   2
HETATM    2  S1  UNL     1      23.537   3.137  51.482  1.00  0.00     0.304 S 
HETATM    3  O1  UNL     1      22.052   3.311  51.184  1.00  0.00    -0.193 OA
HETATM    4  O2  UNL     1      24.020   4.338  52.206  1.00  0.00    -0.193 OA
BRANCH   2   5
HETATM    5  C5  UNL     1      23.770   1.670  52.398  1.00  0.00     0.104 A 
HETATM    6  C4  UNL     1      22.702   0.707  52.650  1.00  0.00     0.028 A 
HETATM    7  C3  UNL     1      23.140  -0.299  53.357  1.00  0.00     0.013 A 
HETATM    8  C2  UNL     1      24.536   0.030  53.568  1.00  0.00    -0.027 A 
HETATM    9  C1  UNL     1      25.349  -0.737  54.242  1.00  0.00     0.024 C 
HETATM   10  C18 UNL     1      24.897   1.287  52.944  1.00  0.00     0.070 A 
BRANCH  10  11
HETATM   11  C19 UNL     1      26.216   1.872  52.979  1.00  0.00     0.178 C 
HETATM   12  O4  UNL     1      27.068   1.670  52.092  1.00  0.00    -0.646 OA
BRANCH  11  13
HETATM   13  O5  UNL     1      26.737   2.706  53.939  1.00  0.00    -0.773 OA
HETATM   14  H23 UNL     1      27.719   2.963  53.937  1.00  0.00     0.167 HD
ENDBRANCH  11  13
ENDBRANCH  10  11
ENDBRANCH   2   5
ENDBRANCH   1   2
BRANCH   1  15
HETATM   15  C6  UNL     1      25.092   3.985  49.477  1.00  0.00     0.089 A 
HETATM   16  C7  UNL     1      24.686   5.243  49.095  1.00  0.00     0.039 A 
HETATM   17  C8  UNL     1      25.577   6.172  48.650  1.00  0.00     0.010 A 
HETATM   18  C9  UNL     1      26.924   5.900  48.561  1.00  0.00    -0.058 A 
HETATM   19  C16 UNL     1      27.359   4.626  48.945  1.00  0.00     0.010 A 
HETATM   20  C17 UNL     1      26.451   3.669  49.402  1.00  0.00     0.039 A 
BRANCH  18  21
HETATM   21  C10 UNL     1      27.849   6.953  48.071  1.00  0.00     0.044 C 
BRANCH  21  22
HETATM   22  C11 UNL     1      27.293   8.341  48.317  1.00  0.00     0.003 C 
HETATM   23  C12 UNL     1      28.068   8.934  49.473  1.00  0.00     0.012 C 
BRANCH  22  24
HETATM   24  C13 UNL     1      27.495   9.100  47.047  1.00  0.00     0.120 C 
BRANCH  24  25
HETATM   25  N1  UNL     1      26.944   8.544  45.873  1.00  0.00    -0.420 N 
HETATM   26  C14 UNL     1      27.600   8.662  44.645  1.00  0.00     0.142 C 
HETATM   27  C15 UNL     1      25.520   8.659  45.754  1.00  0.00     0.142 C 
ENDBRANCH  24  25
ENDBRANCH  22  24
ENDBRANCH  21  22
ENDBRANCH  18  21
ENDBRANCH   1  15
TORSDOF 9
ENDMDL
MODEL 7
REMARK VINA RESULT:      -7.1      4.659      9.044
REMARK  9 active torsions:
REMARK  status: ('A' for Active; 'I' for Inactive)
REMARK    1  A    between atoms: C5_5  and  S1_6 
REMARK    2  A    between atoms: S1_6  and  O3_9 
REMARK    3  A    between atoms: O3_9  and  C6_10 
REMARK    4  A    between atoms: C9_13  and  C10_14 
REMARK    5  A    between atoms: C10_14  and  C11_15 
REMARK    6  A    between atoms: C11_15  and  C13_17 
REMARK    7  A    between atoms: C13_17  and  N1_18 
REMARK    8  A    between atoms: C18_23  and  C19_24 
REMARK    9  A    between atoms: C19_24  and  O5_26 
ROOT
HETATM    1  O3  UNL     1      27.352   8.612  47.852  1.00  0.00    -0.229 OA
ENDROOT
BRANCH   1   2
HETATM    2  S1  UNL     1      27.407   9.826  49.066  1.00  0.00     0.304 S 
HETATM    3  O1  UNL     1      27.650   9.082  50.375  1.00  0.00    -0.193 OA
HETATM    4  O2  UNL     1      26.139  10.587  49.180  1.00  0.00    -0.193 OA
BRANCH   2   5
HETATM    5  C5  UNL     1      28.774  10.858  48.731  1.00  0.00     0.104 A 
HETATM    6  C4  UNL     1      28.664  12.305  48.573  1.00  0.00     0.028 A 
HETATM    7  C3  UNL     1      29.830  12.837  48.330  1.00  0.00     0.013 A 
HETATM    8  C2  UNL     1      30.720  11.693  48.331  1.00  0.00    -0.027 A 
HETATM    9  C1  UNL     1      32.005  11.796  48.123  1.00  0.00     0.024 C 
HETATM   10  C18 UNL     1      30.012  10.456  48.590  1.00  0.00     0.070 A 
BRANCH  10  11
HETATM   11  C19 UNL     1      30.631   9.153  48.655  1.00  0.00     0.178 C 
HETATM   12  O4  UNL     1      31.189   8.621  47.675  1.00  0.00    -0.646 OA
BRANCH  11  13
HETATM   13  O5  UNL     1      30.712   8.317  49.743  1.00  0.00    -0.773 OA
HETATM   14  H23 UNL     1      31.082   7.376  49.657  1.00  0.00     0.167 HD
ENDBRANCH  11  13
ENDBRANCH  10  11
ENDBRANCH   2   5
ENDBRANCH   1   2
BRANCH   1  15
HETATM   15  C6  UNL     1      27.036   7.302  48.260  1.00  0.00     0.089 A 
HETATM   16  C7  UNL     1      25.820   6.827  48.694  1.00  0.00     0.039 A 
HETATM   17  C8  UNL     1      25.655   5.526  49.061  1.00  0.00     0.010 A 
HETATM   18  C9  UNL     1      26.695   4.624  49.017  1.00  0.00    -0.058 A 
HETATM   19  C16 UNL     1      27.942   5.086  48.578  1.00  0.00     0.010 A 
HETATM   20  C17 UNL     1      28.117   6.419  48.200  1.00  0.00     0.039 A 
BRANCH  18  21
HETATM   21  C10 UNL     1      26.457   3.216  49.427  1.00  0.00     0.044 C 
BRANCH  21  22
HETATM   22  C11 UNL     1      25.931   3.132  50.845  1.00  0.00     0.003 C 
HETATM   23  C12 UNL     1      24.498   2.654  50.761  1.00  0.00     0.012 C 
BRANCH  22  24
HETATM   24  C13 UNL     1      26.814   2.162  51.558  1.00  0.00     0.120 C 
BRANCH  24  25
HETATM   25  N1  UNL     1      26.231   1.407  52.596  1.00  0.00    -0.420 N 
HETATM   26  C14 UNL     1      26.179   1.899  53.903  1.00  0.00     0.142 C 
HETATM   27  C15 UNL     1      26.489  -0.003  52.545  1.00  0.00     0.142 C 
ENDBRANCH  24  25
ENDBRANCH  22  24
ENDBRANCH  21  22
ENDBRANCH  18  21
ENDBRANCH   1  15
TORSDOF 9
ENDMDL
MODEL 8
REMARK VINA RESULT:      -7.0      1.582      2.590
REMARK  9 active torsions:
REMARK  status: ('A' for Active; 'I' for Inactive)
REMARK    1  A    between atoms: C5_5  and  S1_6 
REMARK    2  A    between atoms: S1_6  and  O3_9 
REMARK    3  A    between atoms: O3_9  and  C6_10 
REMARK    4  A    between atoms: C9_13  and  C10_14 
REMARK    5  A    between atoms: C10_14  and  C11_15 
REMARK    6  A    between atoms: C11_15  and  C13_17 
REMARK    7  A    between atoms: C13_17  and  N1_18 
REMARK    8  A    between atoms: C18_23  and  C19_24 
REMARK    9  A    between atoms: C19_24  and  O5_26 
ROOT
HETATM    1  O3  UNL     1      24.939   1.894  51.168  1.00  0.00    -0.229 OA
ENDROOT
BRANCH   1   2
HETATM    2  S1  UNL     1      25.140   1.918  52.874  1.00  0.00     0.304 S 
HETATM    3  O1  UNL     1      24.212   0.832  53.408  1.00  0.00    -0.193 OA
HETATM    4  O2  UNL     1      24.755   3.214  53.483  1.00  0.00    -0.193 OA
BRANCH   2   5
HETATM    5  C5  UNL     1      26.793   1.483  53.225  1.00  0.00     0.104 A 
HETATM    6  C4  UNL     1      27.854   2.467  53.423  1.00  0.00     0.028 A 
HETATM    7  C3  UNL     1      28.992   1.879  53.672  1.00  0.00     0.013 A 
HETATM    8  C2  UNL     1      28.652   0.471  53.632  1.00  0.00    -0.027 A 
HETATM    9  C1  UNL     1      29.529  -0.474  53.836  1.00  0.00     0.024 C 
HETATM   10  C18 UNL     1      27.247   0.261  53.346  1.00  0.00     0.070 A 
BRANCH  10  11
HETATM   11  C19 UNL     1      26.614  -1.032  53.246  1.00  0.00     0.178 C 
HETATM   12  O4  UNL     1      26.730  -1.765  52.244  1.00  0.00    -0.646 OA
BRANCH  11  13
HETATM   13  O5  UNL     1      25.818  -1.650  54.180  1.00  0.00    -0.773 OA
HETATM   14  H23 UNL     1      25.314  -2.504  53.961  1.00  0.00     0.167 HD
ENDBRANCH  11  13
ENDBRANCH  10  11
ENDBRANCH   2   5
ENDBRANCH   1   2
BRANCH   1  15
HETATM   15  C6  UNL     1      25.194   3.090  50.469  1.00  0.00     0.089 A 
HETATM   16  C7  UNL     1      24.313   4.112  50.202  1.00  0.00     0.039 A 
HETATM   17  C8  UNL     1      24.699   5.219  49.509  1.00  0.00     0.010 A 
HETATM   18  C9  UNL     1      25.985   5.370  49.042  1.00  0.00    -0.058 A 
HETATM   19  C16 UNL     1      26.900   4.341  49.303  1.00  0.00     0.010 A 
HETATM   20  C17 UNL     1      26.510   3.204  50.014  1.00  0.00     0.039 A 
BRANCH  18  21
HETATM   21  C10 UNL     1      26.350   6.600  48.294  1.00  0.00     0.044 C 
BRANCH  21  22
HETATM   22  C11 UNL     1      25.706   7.831  48.900  1.00  0.00     0.003 C 
HETATM   23  C12 UNL     1      26.595   8.285  50.037  1.00  0.00     0.012 C 
BRANCH  22  24
HETATM   24  C13 UNL     1      25.626   8.839  47.802  1.00  0.00     0.120 C 
BRANCH  24  25
HETATM   25  N1  UNL     1      26.461   9.971  47.909  1.00  0.00    -0.420 N 
HETATM   26  C14 UNL     1      25.930  11.235  48.178  1.00  0.00     0.142 C 
HETATM   27  C15 UNL     1      27.551  10.016  46.978  1.00  0.00     0.142 C 
ENDBRANCH  24  25
ENDBRANCH  22  24
ENDBRANCH  21  22
ENDBRANCH  18  21
ENDBRANCH   1  15
TORSDOF 9
ENDMDL
MODEL 9
REMARK VINA RESULT:      -7.0      2.619      3.846
REMARK  9 active torsions:
REMARK  status: ('A' for Active; 'I' for Inactive)
REMARK    1  A    between atoms: C5_5  and  S1_6 
REMARK    2  A    between atoms: S1_6  and  O3_9 
REMARK    3  A    between atoms: O3_9  and  C6_10 
REMARK    4  A    between atoms: C9_13  and  C10_14 
REMARK    5  A    between atoms: C10_14  and  C11_15 
REMARK    6  A    between atoms: C11_15  and  C13_17 
REMARK    7  A    between atoms: C13_17  and  N1_18 
REMARK    8  A    between atoms: C18_23  and  C19_24 
REMARK    9  A    between atoms: C19_24  and  O5_26 
ROOT
HETATM    1  O3  UNL     1      23.844   2.751  51.276  1.00  0.00    -0.229 OA
ENDROOT
BRANCH   1   2
HETATM    2  S1  UNL     1      24.721   1.742  52.355  1.00  0.00     0.304 S 
HETATM    3  O1  UNL     1      25.323   2.683  53.394  1.00  0.00    -0.193 OA
HETATM    4  O2  UNL     1      25.822   1.004  51.690  1.00  0.00    -0.193 OA
BRANCH   2   5
HETATM    5  C5  UNL     1      23.583   0.677  53.138  1.00  0.00     0.104 A 
HETATM    6  C4  UNL     1      22.138   0.766  52.942  1.00  0.00     0.028 A 
HETATM    7  C3  UNL     1      21.517  -0.144  53.639  1.00  0.00     0.013 A 
HETATM    8  C2  UNL     1      22.597  -0.842  54.307  1.00  0.00    -0.027 A 
HETATM    9  C1  UNL     1      22.396  -1.847  55.116  1.00  0.00     0.024 C 
HETATM   10  C18 UNL     1      23.892  -0.292  53.962  1.00  0.00     0.070 A 
BRANCH  10  11
HETATM   11  C19 UNL     1      25.153  -0.780  54.468  1.00  0.00     0.178 C 
HETATM   12  O4  UNL     1      25.418  -0.830  55.686  1.00  0.00    -0.646 OA
BRANCH  11  13
HETATM   13  O5  UNL     1      26.222  -1.250  53.743  1.00  0.00    -0.773 OA
HETATM   14  H23 UNL     1      26.905  -1.876  54.158  1.00  0.00     0.167 HD
ENDBRANCH  11  13
ENDBRANCH  10  11
ENDBRANCH   2   5
ENDBRANCH   1   2
BRANCH   1  15
HETATM   15  C6  UNL     1      24.507   3.883  50.765  1.00  0.00     0.089 A 
HETATM   16  C7  UNL     1      25.567   3.913  49.888  1.00  0.00     0.039 A 
HETATM   17  C8  UNL     1      26.115   5.089  49.475  1.00  0.00     0.010 A 
HETATM   18  C9  UNL     1      25.637   6.304  49.913  1.00  0.00    -0.058 A 
HETATM   19  C16 UNL     1      24.558   6.297  50.806  1.00  0.00     0.010 A 
HETATM   20  C17 UNL     1      23.992   5.094  51.233  1.00  0.00     0.039 A 
BRANCH  18  21
HETATM   21  C10 UNL     1      26.271   7.555  49.427  1.00  0.00     0.044 C 
BRANCH  21  22
HETATM   22  C11 UNL     1      27.103   7.310  48.184  1.00  0.00     0.003 C 
HETATM   23  C12 UNL     1      26.387   7.978  47.030  1.00  0.00     0.012 C 
BRANCH  22  24
HETATM   24  C13 UNL     1      28.439   7.919  48.453  1.00  0.00     0.120 C 
BRANCH  24  25
HETATM   25  N1  UNL     1      29.536   7.038  48.559  1.00  0.00    -0.420 N 
HETATM   26  C14 UNL     1      30.840   7.480  48.320  1.00  0.00     0.142 C 
HETATM   27  C15 UNL     1      29.302   5.711  48.069  1.00  0.00     0.142 C 
ENDBRANCH  24  25
ENDBRANCH  22  24
ENDBRANCH  21  22
ENDBRANCH  18  21
ENDBRANCH   1  15
TORSDOF 9
ENDMDL
