MODEL 1
REMARK VINA RESULT:      -8.4      0.000      0.000
REMARK  4 active torsions:
REMARK  status: ('A' for Active; 'I' for Inactive)
REMARK    1  A    between atoms: O1_2  and  C2_3 
REMARK    2  A    between atoms: C6_9  and  C7_10 
REMARK    3  A    between atoms: C11_14  and  N3_15 
REMARK    4  A    between atoms: C15_19  and  O2_20 
ROOT
HETATM    1  C2  UNL     1      22.181   0.683  53.069  1.00  0.00     0.103 A 
HETATM    2  C3  UNL     1      22.569   1.681  52.197  1.00  0.00     0.072 A 
HETATM    3  C4  UNL     1      23.908   1.831  51.857  1.00  0.00     0.073 A 
HETATM    4  N1  UNL     1      24.328   2.796  51.020  1.00  0.00    -0.241 NA
HETATM    5  C5  UNL     1      25.669   2.851  50.767  1.00  0.00     0.234 A 
HETATM    6  N2  UNL     1      26.541   1.966  51.336  1.00  0.00    -0.240 NA
HETATM    7  C6  UNL     1      26.130   0.990  52.180  1.00  0.00     0.081 A 
HETATM    8  C13 UNL     1      24.794   0.943  52.427  1.00  0.00     0.025 A 
HETATM    9  C14 UNL     1      24.398  -0.050  53.297  1.00  0.00     0.055 A 
HETATM   10  C15 UNL     1      23.089  -0.210  53.640  1.00  0.00     0.102 A 
ENDROOT
BRANCH   7  11
HETATM   11  C7  UNL     1      27.216   0.164  52.671  1.00  0.00    -0.004 A 
HETATM   12  C8  UNL     1      28.293   0.885  53.205  1.00  0.00     0.014 A 
HETATM   13  C9  UNL     1      29.452   0.295  53.720  1.00  0.00     0.003 A 
HETATM   14  C10 UNL     1      29.543  -1.080  53.700  1.00  0.00     0.029 A 
HETATM   15  C11 UNL     1      28.496  -1.810  53.180  1.00  0.00     0.026 A 
HETATM   16  C12 UNL     1      27.363  -1.206  52.679  1.00  0.00     0.042 A 
BRANCH  15  17
HETATM   17  N3  UNL     1      28.538  -3.237  53.137  1.00  0.00    -0.399 N 
HETATM   18  H9  UNL     1      28.538  -3.911  52.327  1.00  0.00     0.156 HD
HETATM   19  H10 UNL     1      28.580  -3.903  53.945  1.00  0.00     0.156 HD
ENDBRANCH  15  17
ENDBRANCH   7  11
BRANCH  10  20
HETATM   20  O2  UNL     1      22.634  -1.191  54.508  1.00  0.00    -0.353 OA
HETATM   21  C16 UNL     1      23.421  -1.464  55.653  1.00  0.00     0.210 C 
ENDBRANCH  10  20
BRANCH   1  22
HETATM   22  O1  UNL     1      20.833   0.514  53.426  1.00  0.00    -0.353 OA
HETATM   23  C1  UNL     1      19.858   0.160  52.471  1.00  0.00     0.210 C 
ENDBRANCH   1  22
TORSDOF 4
ENDMDL
MODEL 2
REMARK VINA RESULT:      -8.0      2.383      3.714
REMARK  4 active torsions:
REMARK  status: ('A' for Active; 'I' for Inactive)
REMARK    1  A    between atoms: O1_2  and  C2_3 
REMARK    2  A    between atoms: C6_9  and  C7_10 
REMARK    3  A    between atoms: C11_14  and  N3_15 
REMARK    4  A    between atoms: C15_19  and  O2_20 
ROOT
HETATM    1  C2  UNL     1      22.055   0.939  52.136  1.00  0.00     0.103 A 
HETATM    2  C3  UNL     1      21.776   0.140  53.228  1.00  0.00     0.072 A 
HETATM    3  C4  UNL     1      22.809  -0.361  54.010  1.00  0.00     0.073 A 
HETATM    4  N1  UNL     1      22.580  -1.151  55.074  1.00  0.00    -0.241 NA
HETATM    5  C5  UNL     1      23.675  -1.591  55.762  1.00  0.00     0.234 A 
HETATM    6  N2  UNL     1      24.942  -1.244  55.386  1.00  0.00    -0.240 NA
HETATM    7  C6  UNL     1      25.185  -0.449  54.317  1.00  0.00     0.081 A 
HETATM    8  C13 UNL     1      24.090  -0.017  53.638  1.00  0.00     0.025 A 
HETATM    9  C14 UNL     1      24.359   0.781  52.547  1.00  0.00     0.055 A 
HETATM   10  C15 UNL     1      23.358   1.280  51.769  1.00  0.00     0.102 A 
ENDROOT
BRANCH   7  11
HETATM   11  C7  UNL     1      26.598  -0.208  54.093  1.00  0.00    -0.004 A 
HETATM   12  C8  UNL     1      27.263  -1.248  53.428  1.00  0.00     0.014 A 
HETATM   13  C9  UNL     1      28.628  -1.236  53.124  1.00  0.00     0.003 A 
HETATM   14  C10 UNL     1      29.366  -0.136  53.502  1.00  0.00     0.029 A 
HETATM   15  C11 UNL     1      28.734   0.899  54.158  1.00  0.00     0.026 A 
HETATM   16  C12 UNL     1      27.387   0.865  54.446  1.00  0.00     0.042 A 
BRANCH  15  17
HETATM   17  N3  UNL     1      29.452   2.063  54.571  1.00  0.00    -0.399 N 
HETATM   18  H9  UNL     1      29.302   2.726  55.375  1.00  0.00     0.156 HD
HETATM   19  H10 UNL     1      30.302   2.484  54.125  1.00  0.00     0.156 HD
ENDBRANCH  15  17
ENDBRANCH   7  11
BRANCH  10  20
HETATM   20  O2  UNL     1      23.570   2.087  50.662  1.00  0.00    -0.353 OA
HETATM   21  C16 UNL     1      24.236   3.320  50.873  1.00  0.00     0.210 C 
ENDBRANCH  10  20
BRANCH   1  22
HETATM   22  O1  UNL     1      21.026   1.456  51.332  1.00  0.00    -0.353 OA
HETATM   23  C1  UNL     1      20.195   2.501  51.784  1.00  0.00     0.210 C 
ENDBRANCH   1  22
TORSDOF 4
ENDMDL
MODEL 3
REMARK VINA RESULT:      -7.8      2.779      4.170
REMARK  4 active torsions:
REMARK  status: ('A' for Active; 'I' for Inactive)
REMARK    1  A    between atoms: O1_2  and  C2_3 
REMARK    2  A    between atoms: C6_9  and  C7_10 
REMARK    3  A    between atoms: C11_14  and  N3_15 
REMARK    4  A    between atoms: C15_19  and  O2_20 
ROOT
HETATM    1  C2  UNL     1      23.529   3.106  50.533  1.00  0.00     0.103 A 
HETATM    2  C3  UNL     1      22.764   2.119  51.124  1.00  0.00     0.072 A 
HETATM    3  C4  UNL     1      23.358   1.181  51.960  1.00  0.00     0.073 A 
HETATM    4  N1  UNL     1      22.652   0.199  52.546  1.00  0.00    -0.241 NA
HETATM    5  C5  UNL     1      23.346  -0.670  53.340  1.00  0.00     0.234 A 
HETATM    6  N2  UNL     1      24.693  -0.545  53.528  1.00  0.00    -0.240 NA
HETATM    7  C6  UNL     1      25.415   0.440  52.944  1.00  0.00     0.081 A 
HETATM    8  C13 UNL     1      24.718   1.300  52.156  1.00  0.00     0.025 A 
HETATM    9  C14 UNL     1      25.472   2.288  51.561  1.00  0.00     0.055 A 
HETATM   10  C15 UNL     1      24.905   3.214  50.739  1.00  0.00     0.102 A 
ENDROOT
BRANCH   7  11
HETATM   11  C7  UNL     1      26.826   0.388  53.276  1.00  0.00    -0.004 A 
HETATM   12  C8  UNL     1      27.440  -0.841  52.995  1.00  0.00     0.014 A 
HETATM   13  C9  UNL     1      28.787  -1.119  53.250  1.00  0.00     0.003 A 
HETATM   14  C10 UNL     1      29.559  -0.126  53.812  1.00  0.00     0.029 A 
HETATM   15  C11 UNL     1      28.977   1.091  54.096  1.00  0.00     0.026 A 
HETATM   16  C12 UNL     1      27.648   1.342  53.836  1.00  0.00     0.042 A 
BRANCH  15  17
HETATM   17  N3  UNL     1      29.732   2.155  54.678  1.00  0.00    -0.399 N 
HETATM   18  H9  UNL     1      30.157   2.266  55.635  1.00  0.00     0.156 HD
HETATM   19  H10 UNL     1      30.013   3.061  54.232  1.00  0.00     0.156 HD
ENDBRANCH  15  17
ENDBRANCH   7  11
BRANCH  10  20
HETATM   20  O2  UNL     1      25.615   4.230  50.117  1.00  0.00    -0.353 OA
HETATM   21  C16 UNL     1      26.765   3.861  49.377  1.00  0.00     0.210 C 
ENDBRANCH  10  20
BRANCH   1  22
HETATM   22  O1  UNL     1      22.949   4.064  49.685  1.00  0.00    -0.353 OA
HETATM   23  C1  UNL     1      22.630   3.763  48.345  1.00  0.00     0.210 C 
ENDBRANCH   1  22
TORSDOF 4
ENDMDL
MODEL 4
REMARK VINA RESULT:      -7.6      2.930      6.298
REMARK  4 active torsions:
REMARK  status: ('A' for Active; 'I' for Inactive)
REMARK    1  A    between atoms: O1_2  and  C2_3 
REMARK    2  A    between atoms: C6_9  and  C7_10 
REMARK    3  A    between atoms: C11_14  and  N3_15 
REMARK    4  A    between atoms: C15_19  and  O2_20 
ROOT
HETATM    1  C2  UNL     1      27.148  -0.293  53.652  1.00  0.00     0.103 A 
HETATM    2  C3  UNL     1      25.911  -0.886  53.816  1.00  0.00     0.072 A 
HETATM    3  C4  UNL     1      24.764  -0.248  53.362  1.00  0.00     0.073 A 
HETATM    4  N1  UNL     1      23.541  -0.786  53.511  1.00  0.00    -0.241 NA
HETATM    5  C5  UNL     1      22.486  -0.061  53.033  1.00  0.00     0.234 A 
HETATM    6  N2  UNL     1      22.666   1.151  52.432  1.00  0.00    -0.240 NA
HETATM    7  C6  UNL     1      23.893   1.704  52.275  1.00  0.00     0.081 A 
HETATM    8  C13 UNL     1      24.937   0.977  52.754  1.00  0.00     0.025 A 
HETATM    9  C14 UNL     1      26.174   1.561  52.595  1.00  0.00     0.055 A 
HETATM   10  C15 UNL     1      27.309   0.948  53.035  1.00  0.00     0.102 A 
ENDROOT
BRANCH   7  11
HETATM   11  C7  UNL     1      23.858   2.994  51.614  1.00  0.00    -0.004 A 
HETATM   12  C8  UNL     1      23.635   2.929  50.231  1.00  0.00     0.014 A 
HETATM   13  C9  UNL     1      23.580   4.048  49.394  1.00  0.00     0.003 A 
HETATM   14  C10 UNL     1      23.758   5.291  49.960  1.00  0.00     0.029 A 
HETATM   15  C11 UNL     1      23.978   5.380  51.319  1.00  0.00     0.026 A 
HETATM   16  C12 UNL     1      24.027   4.264  52.124  1.00  0.00     0.042 A 
BRANCH  15  17
HETATM   17  N3  UNL     1      24.168   6.644  51.957  1.00  0.00    -0.399 N 
HETATM   18  H9  UNL     1      24.878   6.969  52.663  1.00  0.00     0.156 HD
HETATM   19  H10 UNL     1      23.604   7.518  51.829  1.00  0.00     0.156 HD
ENDBRANCH  15  17
ENDBRANCH   7  11
BRANCH  10  20
HETATM   20  O2  UNL     1      28.579   1.489  52.900  1.00  0.00    -0.353 OA
HETATM   21  C16 UNL     1      28.966   2.482  53.833  1.00  0.00     0.210 C 
ENDBRANCH  10  20
BRANCH   1  22
HETATM   22  O1  UNL     1      28.321  -0.921  54.103  1.00  0.00    -0.353 OA
HETATM   23  C1  UNL     1      29.043  -1.808  53.280  1.00  0.00     0.210 C 
ENDBRANCH   1  22
TORSDOF 4
ENDMDL
MODEL 5
REMARK VINA RESULT:      -7.4      2.273      5.716
REMARK  4 active torsions:
REMARK  status: ('A' for Active; 'I' for Inactive)
REMARK    1  A    between atoms: O1_2  and  C2_3 
REMARK    2  A    between atoms: C6_9  and  C7_10 
REMARK    3  A    between atoms: C11_14  and  N3_15 
REMARK    4  A    between atoms: C15_19  and  O2_20 
ROOT
HETATM    1  C2  UNL     1      27.277   0.600  53.943  1.00  0.00     0.103 A 
HETATM    2  C3  UNL     1      27.441   1.515  52.922  1.00  0.00     0.072 A 
HETATM    3  C4  UNL     1      26.356   1.893  52.141  1.00  0.00     0.073 A 
HETATM    4  N1  UNL     1      26.475   2.773  51.131  1.00  0.00    -0.241 NA
HETATM    5  C5  UNL     1      25.340   3.061  50.427  1.00  0.00     0.234 A 
HETATM    6  N2  UNL     1      24.142   2.482  50.736  1.00  0.00    -0.240 NA
HETATM    7  C6  UNL     1      24.009   1.595  51.751  1.00  0.00     0.081 A 
HETATM    8  C13 UNL     1      25.143   1.314  52.445  1.00  0.00     0.025 A 
HETATM    9  C14 UNL     1      24.989   0.401  53.466  1.00  0.00     0.055 A 
HETATM   10  C15 UNL     1      26.043   0.020  54.241  1.00  0.00     0.102 A 
ENDROOT
BRANCH   7  11
HETATM   11  C7  UNL     1      22.654   1.102  51.905  1.00  0.00    -0.004 A 
HETATM   12  C8  UNL     1      21.918   1.055  50.713  1.00  0.00     0.014 A 
HETATM   13  C9  UNL     1      20.588   0.629  50.630  1.00  0.00     0.003 A 
HETATM   14  C10 UNL     1      19.961   0.232  51.791  1.00  0.00     0.029 A 
HETATM   15  C11 UNL     1      20.666   0.270  52.976  1.00  0.00     0.026 A 
HETATM   16  C12 UNL     1      21.975   0.692  53.032  1.00  0.00     0.042 A 
BRANCH  15  17
HETATM   17  N3  UNL     1      20.064  -0.131  54.208  1.00  0.00    -0.399 N 
HETATM   18  H9  UNL     1      19.230  -0.742  54.411  1.00  0.00     0.156 HD
HETATM   19  H10 UNL     1      20.363   0.123  55.180  1.00  0.00     0.156 HD
ENDBRANCH  15  17
ENDBRANCH   7  11
BRANCH  10  20
HETATM   20  O2  UNL     1      25.946  -0.893  55.280  1.00  0.00    -0.353 OA
HETATM   21  C16 UNL     1      24.645  -1.268  55.698  1.00  0.00     0.210 C 
ENDBRANCH  10  20
BRANCH   1  22
HETATM   22  O1  UNL     1      28.361   0.204  54.745  1.00  0.00    -0.353 OA
HETATM   23  C1  UNL     1      29.449  -0.513  54.207  1.00  0.00     0.210 C 
ENDBRANCH   1  22
TORSDOF 4
ENDMDL
MODEL 6
REMARK VINA RESULT:      -7.4      2.924      6.709
REMARK  4 active torsions:
REMARK  status: ('A' for Active; 'I' for Inactive)
REMARK    1  A    between atoms: O1_2  and  C2_3 
REMARK    2  A    between atoms: C6_9  and  C7_10 
REMARK    3  A    between atoms: C11_14  and  N3_15 
REMARK    4  A    between atoms: C15_19  and  O2_20 
ROOT
HETATM    1  C2  UNL     1      27.445   0.781  53.435  1.00  0.00     0.103 A 
HETATM    2  C3  UNL     1      26.900  -0.108  54.341  1.00  0.00     0.072 A 
HETATM    3  C4  UNL     1      25.526  -0.319  54.372  1.00  0.00     0.073 A 
HETATM    4  N1  UNL     1      24.955  -1.167  55.245  1.00  0.00    -0.241 NA
HETATM    5  C5  UNL     1      23.595  -1.286  55.187  1.00  0.00     0.234 A 
HETATM    6  N2  UNL     1      22.853  -0.577  54.286  1.00  0.00    -0.240 NA
HETATM    7  C6  UNL     1      23.417   0.279  53.402  1.00  0.00     0.081 A 
HETATM    8  C13 UNL     1      24.770   0.392  53.466  1.00  0.00     0.025 A 
HETATM    9  C14 UNL     1      25.324   1.277  52.566  1.00  0.00     0.055 A 
HETATM   10  C15 UNL     1      26.668   1.496  52.523  1.00  0.00     0.102 A 
ENDROOT
BRANCH   7  11
HETATM   11  C7  UNL     1      22.450   0.929  52.538  1.00  0.00    -0.004 A 
HETATM   12  C8  UNL     1      21.933   0.106  51.528  1.00  0.00     0.014 A 
HETATM   13  C9  UNL     1      21.002   0.528  50.574  1.00  0.00     0.003 A 
HETATM   14  C10 UNL     1      20.566   1.834  50.627  1.00  0.00     0.029 A 
HETATM   15  C11 UNL     1      21.060   2.663  51.613  1.00  0.00     0.026 A 
HETATM   16  C12 UNL     1      21.977   2.224  52.543  1.00  0.00     0.042 A 
BRANCH  15  17
HETATM   17  N3  UNL     1      20.641   4.025  51.715  1.00  0.00    -0.399 N 
HETATM   18  H9  UNL     1      20.186   4.557  52.501  1.00  0.00     0.156 HD
HETATM   19  H10 UNL     1      20.717   4.775  50.987  1.00  0.00     0.156 HD
ENDBRANCH  15  17
ENDBRANCH   7  11
BRANCH  10  20
HETATM   20  O2  UNL     1      27.279   2.372  51.639  1.00  0.00    -0.353 OA
HETATM   21  C16 UNL     1      26.469   2.947  50.629  1.00  0.00     0.210 C 
ENDBRANCH  10  20
BRANCH   1  22
HETATM   22  O1  UNL     1      28.831   1.009  53.387  1.00  0.00    -0.353 OA
HETATM   23  C1  UNL     1      29.756  -0.031  53.608  1.00  0.00     0.210 C 
ENDBRANCH   1  22
TORSDOF 4
ENDMDL
MODEL 7
REMARK VINA RESULT:      -7.1      2.977      5.911
REMARK  4 active torsions:
REMARK  status: ('A' for Active; 'I' for Inactive)
REMARK    1  A    between atoms: O1_2  and  C2_3 
REMARK    2  A    between atoms: C6_9  and  C7_10 
REMARK    3  A    between atoms: C11_14  and  N3_15 
REMARK    4  A    between atoms: C15_19  and  O2_20 
ROOT
HETATM    1  C2  UNL     1      25.252   0.288  53.896  1.00  0.00     0.103 A 
HETATM    2  C3  UNL     1      24.078  -0.075  53.264  1.00  0.00     0.072 A 
HETATM    3  C4  UNL     1      23.492   0.776  52.335  1.00  0.00     0.073 A 
HETATM    4  N1  UNL     1      22.345   0.465  51.706  1.00  0.00    -0.241 NA
HETATM    5  C5  UNL     1      21.859   1.384  50.820  1.00  0.00     0.234 A 
HETATM    6  N2  UNL     1      22.509   2.562  50.584  1.00  0.00    -0.240 NA
HETATM    7  C6  UNL     1      23.665   2.886  51.211  1.00  0.00     0.081 A 
HETATM    8  C13 UNL     1      24.141   1.967  52.091  1.00  0.00     0.025 A 
HETATM    9  C14 UNL     1      25.312   2.321  52.727  1.00  0.00     0.055 A 
HETATM   10  C15 UNL     1      25.899   1.498  53.640  1.00  0.00     0.102 A 
ENDROOT
BRANCH   7  11
HETATM   11  C7  UNL     1      24.184   4.182  50.817  1.00  0.00    -0.004 A 
HETATM   12  C8  UNL     1      25.110   4.137  49.765  1.00  0.00     0.014 A 
HETATM   13  C9  UNL     1      25.750   5.263  49.236  1.00  0.00     0.003 A 
HETATM   14  C10 UNL     1      25.453   6.493  49.783  1.00  0.00     0.029 A 
HETATM   15  C11 UNL     1      24.545   6.562  50.818  1.00  0.00     0.026 A 
HETATM   16  C12 UNL     1      23.927   5.438  51.322  1.00  0.00     0.042 A 
BRANCH  15  17
HETATM   17  N3  UNL     1      24.201   7.811  51.420  1.00  0.00    -0.399 N 
HETATM   18  H9  UNL     1      24.753   8.465  52.032  1.00  0.00     0.156 HD
HETATM   19  H10 UNL     1      23.290   8.326  51.353  1.00  0.00     0.156 HD
ENDBRANCH  15  17
ENDBRANCH   7  11
BRANCH  10  20
HETATM   20  O2  UNL     1      27.075   1.802  54.308  1.00  0.00    -0.353 OA
HETATM   21  C16 UNL     1      28.182   2.211  53.524  1.00  0.00     0.210 C 
ENDBRANCH  10  20
BRANCH   1  22
HETATM   22  O1  UNL     1      25.861  -0.557  54.838  1.00  0.00    -0.353 OA
HETATM   23  C1  UNL     1      25.171  -0.995  55.987  1.00  0.00     0.210 C 
ENDBRANCH   1  22
TORSDOF 4
ENDMDL
MODEL 8
REMARK VINA RESULT:      -7.1      2.834      6.033
REMARK  4 active torsions:
REMARK  status: ('A' for Active; 'I' for Inactive)
REMARK    1  A    between atoms: O1_2  and  C2_3 
REMARK    2  A    between atoms: C6_9  and  C7_10 
REMARK    3  A    between atoms: C11_14  and  N3_15 
REMARK    4  A    between atoms: C15_19  and  O2_20 
ROOT
HETATM    1  C2  UNL     1      25.748   3.401  50.622  1.00  0.00     0.103 A 
HETATM    2  C3  UNL     1      26.685   2.519  51.125  1.00  0.00     0.072 A 
HETATM    3  C4  UNL     1      26.279   1.416  51.866  1.00  0.00     0.073 A 
HETATM    4  N1  UNL     1      27.159   0.540  52.382  1.00  0.00    -0.241 NA
HETATM    5  C5  UNL     1      26.643  -0.501  53.100  1.00  0.00     0.234 A 
HETATM    6  N2  UNL     1      25.297  -0.644  53.285  1.00  0.00    -0.240 NA
HETATM    7  C6  UNL     1      24.401   0.231  52.770  1.00  0.00     0.081 A 
HETATM    8  C13 UNL     1      24.923   1.264  52.057  1.00  0.00     0.025 A 
HETATM    9  C14 UNL     1      23.996   2.149  51.552  1.00  0.00     0.055 A 
HETATM   10  C15 UNL     1      24.377   3.236  50.824  1.00  0.00     0.102 A 
ENDROOT
BRANCH   7  11
HETATM   11  C7  UNL     1      23.026  -0.106  53.087  1.00  0.00    -0.004 A 
HETATM   12  C8  UNL     1      22.872  -0.867  54.253  1.00  0.00     0.014 A 
HETATM   13  C9  UNL     1      21.640  -1.318  54.737  1.00  0.00     0.003 A 
HETATM   14  C10 UNL     1      20.506  -0.995  54.024  1.00  0.00     0.029 A 
HETATM   15  C11 UNL     1      20.633  -0.247  52.873  1.00  0.00     0.026 A 
HETATM   16  C12 UNL     1      21.858   0.186  52.416  1.00  0.00     0.042 A 
BRANCH  15  17
HETATM   17  N3  UNL     1      19.491   0.116  52.096  1.00  0.00    -0.399 N 
HETATM   18  H9  UNL     1      19.003  -0.374  51.302  1.00  0.00     0.156 HD
HETATM   19  H10 UNL     1      18.903   0.980  52.184  1.00  0.00     0.156 HD
ENDBRANCH  15  17
ENDBRANCH   7  11
BRANCH  10  20
HETATM   20  O2  UNL     1      23.489   4.157  50.291  1.00  0.00    -0.353 OA
HETATM   21  C16 UNL     1      22.389   4.542  51.096  1.00  0.00     0.210 C 
ENDBRANCH  10  20
BRANCH   1  22
HETATM   22  O1  UNL     1      26.137   4.522  49.870  1.00  0.00    -0.353 OA
HETATM   23  C1  UNL     1      27.204   4.457  48.951  1.00  0.00     0.210 C 
ENDBRANCH   1  22
TORSDOF 4
ENDMDL
MODEL 9
REMARK VINA RESULT:      -7.0      3.506      6.067
REMARK  4 active torsions:
REMARK  status: ('A' for Active; 'I' for Inactive)
REMARK    1  A    between atoms: O1_2  and  C2_3 
REMARK    2  A    between atoms: C6_9  and  C7_10 
REMARK    3  A    between atoms: C11_14  and  N3_15 
REMARK    4  A    between atoms: C15_19  and  O2_20 
ROOT
HETATM    1  C2  UNL     1      25.366   1.391  51.940  1.00  0.00     0.103 A 
HETATM    2  C3  UNL     1      24.171   1.785  51.369  1.00  0.00     0.072 A 
HETATM    3  C4  UNL     1      24.141   2.849  50.476  1.00  0.00     0.073 A 
HETATM    4  N1  UNL     1      22.998   3.271  49.907  1.00  0.00    -0.241 NA
HETATM    5  C5  UNL     1      23.090   4.333  49.053  1.00  0.00     0.234 A 
HETATM    6  N2  UNL     1      24.286   4.937  48.790  1.00  0.00    -0.240 NA
HETATM    7  C6  UNL     1      25.444   4.521  49.357  1.00  0.00     0.081 A 
HETATM    8  C13 UNL     1      25.344   3.465  50.206  1.00  0.00     0.025 A 
HETATM    9  C14 UNL     1      26.531   3.065  50.781  1.00  0.00     0.055 A 
HETATM   10  C15 UNL     1      26.577   2.023  51.657  1.00  0.00     0.102 A 
ENDROOT
BRANCH   7  11
HETATM   11  C7  UNL     1      26.595   5.301  48.943  1.00  0.00    -0.004 A 
HETATM   12  C8  UNL     1      26.365   6.683  48.885  1.00  0.00     0.014 A 
HETATM   13  C9  UNL     1      27.327   7.621  48.495  1.00  0.00     0.003 A 
HETATM   14  C10 UNL     1      28.578   7.159  48.146  1.00  0.00     0.029 A 
HETATM   15  C11 UNL     1      28.827   5.804  48.196  1.00  0.00     0.026 A 
HETATM   16  C12 UNL     1      27.863   4.899  48.583  1.00  0.00     0.042 A 
BRANCH  15  17
HETATM   17  N3  UNL     1      30.106   5.273  47.845  1.00  0.00    -0.399 N 
HETATM   18  H9  UNL     1      30.492   4.294  47.895  1.00  0.00     0.156 HD
HETATM   19  H10 UNL     1      30.929   5.789  47.452  1.00  0.00     0.156 HD
ENDBRANCH  15  17
ENDBRANCH   7  11
BRANCH  10  20
HETATM   20  O2  UNL     1      27.742   1.578  52.264  1.00  0.00    -0.353 OA
HETATM   21  C16 UNL     1      28.227   2.321  53.368  1.00  0.00     0.210 C 
ENDBRANCH  10  20
BRANCH   1  22
HETATM   22  O1  UNL     1      25.419   0.317  52.844  1.00  0.00    -0.353 OA
HETATM   23  C1  UNL     1      24.255  -0.180  53.465  1.00  0.00     0.210 C 
ENDBRANCH   1  22
TORSDOF 4
ENDMDL
