MODEL 1
REMARK VINA RESULT:      -8.4      0.000      0.000
REMARK  1 active torsions:
REMARK  status: ('A' for Active; 'I' for Inactive)
REMARK    1  A    between atoms: C18_22  and  O2_23 
ROOT
HETATM    1  C1  UNL     1      21.651   5.409  47.627  1.00  0.00     0.037 C 
HETATM    2  C2  UNL     1      23.019   5.459  48.148  1.00  0.00    -0.018 C 
HETATM    3  C3  UNL     1      23.969   4.721  48.625  1.00  0.00    -0.005 C 
HETATM    4  C4  UNL     1      25.278   5.128  49.068  1.00  0.00     0.011 C 
HETATM    5  C5  UNL     1      26.256   4.397  49.528  1.00  0.00     0.000 C 
HETATM    6  C6  UNL     1      26.359   2.908  49.743  1.00  0.00     0.195 C 
HETATM    7  O1  UNL     1      26.568   2.383  50.829  1.00  0.00    -0.385 OA
HETATM    8  C7  UNL     1      26.762   1.866  51.915  1.00  0.00     0.213 C 
HETATM    9  C8  UNL     1      25.650   0.971  52.495  1.00  0.00     0.227 A 
HETATM   10  C9  UNL     1      24.660   0.228  52.921  1.00  0.00     0.262 A 
HETATM   11  C10 UNL     1      23.455  -0.500  53.173  1.00  0.00     0.009 C 
HETATM   12  C11 UNL     1      22.281  -0.535  52.645  1.00  0.00    -0.002 C 
HETATM   13  C12 UNL     1      21.498   0.087  51.625  1.00  0.00    -0.000 C 
HETATM   14  C13 UNL     1      21.523   1.045  50.732  1.00  0.00     0.030 C 
HETATM   15  C14 UNL     1      21.625   2.128  49.762  1.00  0.00     0.361 A 
HETATM   16  C15 UNL     1      22.608   2.123  48.683  1.00  0.00     0.366 A 
HETATM   17  C16 UNL     1      23.307   3.429  48.648  1.00  0.00     0.183 A 
HETATM   18  N1  UNL     1      22.163   3.430  49.211  1.00  0.00     0.085 N 
HETATM   19  N2  UNL     1      22.152   3.321  50.567  1.00  0.00    -0.134 N 
HETATM   20  S1  UNL     1      22.385   3.722  52.322  1.00  0.00     0.007 SA
HETATM   21  C17 UNL     1      23.635   2.662  53.018  1.00  0.00     0.133 C 
HETATM   22  C18 UNL     1      24.926   2.461  53.372  1.00  0.00     0.249 C 
HETATM   23  N3  UNL     1      25.437   1.185  53.971  1.00  0.00     0.006 N 
HETATM   24  H21 UNL     1      25.211   1.542  54.967  1.00  0.00     0.291 HD
ENDROOT
BRANCH  22  25
HETATM   25  O2  UNL     1      24.921   3.760  52.864  1.00  0.00    -0.340 OA
HETATM   26  H20 UNL     1      25.733   4.114  52.376  1.00  0.00     0.219 HD
ENDBRANCH  22  25
TORSDOF 1
ENDMDL
MODEL 2
REMARK VINA RESULT:      -7.8      1.840      5.989
REMARK  1 active torsions:
REMARK  status: ('A' for Active; 'I' for Inactive)
REMARK    1  A    between atoms: C18_22  and  O2_23 
ROOT
HETATM    1  C1  UNL     1      23.621  -1.258  55.708  1.00  0.00     0.037 C 
HETATM    2  C2  UNL     1      22.469  -0.819  54.916  1.00  0.00    -0.018 C 
HETATM    3  C3  UNL     1      22.113  -0.464  53.723  1.00  0.00    -0.005 C 
HETATM    4  C4  UNL     1      20.805  -0.069  53.265  1.00  0.00     0.011 C 
HETATM    5  C5  UNL     1      20.422   0.268  52.063  1.00  0.00     0.000 C 
HETATM    6  C6  UNL     1      21.190   0.349  50.768  1.00  0.00     0.195 C 
HETATM    7  O1  UNL     1      21.317   1.373  50.109  1.00  0.00    -0.385 OA
HETATM    8  C7  UNL     1      21.452   2.398  49.464  1.00  0.00     0.213 C 
HETATM    9  C8  UNL     1      22.875   2.967  49.307  1.00  0.00     0.227 A 
HETATM   10  C9  UNL     1      24.112   3.388  49.221  1.00  0.00     0.262 A 
HETATM   11  C10 UNL     1      25.516   3.651  49.287  1.00  0.00     0.009 C 
HETATM   12  C11 UNL     1      26.500   3.195  49.982  1.00  0.00    -0.002 C 
HETATM   13  C12 UNL     1      26.787   2.280  51.041  1.00  0.00    -0.000 C 
HETATM   14  C13 UNL     1      26.219   1.471  51.900  1.00  0.00     0.030 C 
HETATM   15  C14 UNL     1      25.517   0.591  52.826  1.00  0.00     0.361 A 
HETATM   16  C15 UNL     1      24.716  -0.542  52.374  1.00  0.00     0.366 A 
HETATM   17  C16 UNL     1      23.396  -0.510  53.045  1.00  0.00     0.183 A 
HETATM   18  N1  UNL     1      24.331   0.120  53.639  1.00  0.00     0.085 N 
HETATM   19  N2  UNL     1      24.401   1.460  53.415  1.00  0.00    -0.134 N 
HETATM   20  S1  UNL     1      23.977   3.225  53.427  1.00  0.00     0.007 SA
HETATM   21  C17 UNL     1      23.557   3.752  51.779  1.00  0.00     0.133 C 
HETATM   22  C18 UNL     1      22.614   4.008  50.844  1.00  0.00     0.249 C 
HETATM   23  N3  UNL     1      22.925   4.466  49.450  1.00  0.00     0.006 N 
HETATM   24  H21 UNL     1      22.904   5.500  49.766  1.00  0.00     0.291 HD
ENDROOT
BRANCH  22  25
HETATM   25  O2  UNL     1      21.876   3.613  51.958  1.00  0.00    -0.340 OA
HETATM   26  H20 UNL     1      20.970   3.179  51.835  1.00  0.00     0.219 HD
ENDBRANCH  22  25
TORSDOF 1
ENDMDL
MODEL 3
REMARK VINA RESULT:      -7.6      2.428      5.651
REMARK  1 active torsions:
REMARK  status: ('A' for Active; 'I' for Inactive)
REMARK    1  A    between atoms: C18_22  and  O2_23 
ROOT
HETATM    1  C1  UNL     1      21.193   0.261  54.172  1.00  0.00     0.037 C 
HETATM    2  C2  UNL     1      20.447   1.315  53.482  1.00  0.00    -0.018 C 
HETATM    3  C3  UNL     1      20.428   2.027  52.401  1.00  0.00    -0.005 C 
HETATM    4  C4  UNL     1      19.482   3.044  52.020  1.00  0.00     0.011 C 
HETATM    5  C5  UNL     1      19.432   3.754  50.926  1.00  0.00     0.000 C 
HETATM    6  C6  UNL     1      20.320   3.752  49.706  1.00  0.00     0.195 C 
HETATM    7  O1  UNL     1      20.951   4.724  49.315  1.00  0.00    -0.385 OA
HETATM    8  C7  UNL     1      21.589   5.692  48.938  1.00  0.00     0.213 C 
HETATM    9  C8  UNL     1      23.126   5.591  48.955  1.00  0.00     0.227 A 
HETATM   10  C9  UNL     1      24.425   5.430  49.001  1.00  0.00     0.262 A 
HETATM   11  C10 UNL     1      25.787   5.025  49.162  1.00  0.00     0.009 C 
HETATM   12  C11 UNL     1      26.388   4.049  49.750  1.00  0.00    -0.002 C 
HETATM   13  C12 UNL     1      26.123   2.907  50.565  1.00  0.00    -0.000 C 
HETATM   14  C13 UNL     1      25.162   2.275  51.191  1.00  0.00     0.030 C 
HETATM   15  C14 UNL     1      24.042   1.627  51.863  1.00  0.00     0.361 A 
HETATM   16  C15 UNL     1      22.900   1.084  51.134  1.00  0.00     0.366 A 
HETATM   17  C16 UNL     1      21.645   1.559  51.762  1.00  0.00     0.183 A 
HETATM   18  N1  UNL     1      22.676   1.573  52.511  1.00  0.00     0.085 N 
HETATM   19  N2  UNL     1      23.335   2.758  52.617  1.00  0.00    -0.134 N 
HETATM   20  S1  UNL     1      23.702   4.485  53.042  1.00  0.00     0.007 SA
HETATM   21  C17 UNL     1      23.759   5.469  51.559  1.00  0.00     0.133 C 
HETATM   22  C18 UNL     1      23.140   6.301  50.690  1.00  0.00     0.249 C 
HETATM   23  N3  UNL     1      23.789   6.849  49.454  1.00  0.00     0.006 N 
HETATM   24  H21 UNL     1      24.169   7.697  50.008  1.00  0.00     0.291 HD
ENDROOT
BRANCH  22  25
HETATM   25  O2  UNL     1      22.169   6.054  51.660  1.00  0.00    -0.340 OA
HETATM   26  H20 UNL     1      22.322   6.352  52.615  1.00  0.00     0.219 HD
ENDBRANCH  22  25
TORSDOF 1
ENDMDL
MODEL 4
REMARK VINA RESULT:      -7.6      1.891      6.035
REMARK  1 active torsions:
REMARK  status: ('A' for Active; 'I' for Inactive)
REMARK    1  A    between atoms: C18_22  and  O2_23 
ROOT
HETATM    1  C1  UNL     1      27.746   0.227  55.030  1.00  0.00     0.037 C 
HETATM    2  C2  UNL     1      26.337  -0.170  55.065  1.00  0.00    -0.018 C 
HETATM    3  C3  UNL     1      25.304  -0.375  54.311  1.00  0.00    -0.005 C 
HETATM    4  C4  UNL     1      23.982  -0.789  54.705  1.00  0.00     0.011 C 
HETATM    5  C5  UNL     1      22.937  -1.025  53.959  1.00  0.00     0.000 C 
HETATM    6  C6  UNL     1      22.755  -0.957  52.464  1.00  0.00     0.195 C 
HETATM    7  O1  UNL     1      21.951  -0.225  51.902  1.00  0.00    -0.385 OA
HETATM    8  C7  UNL     1      21.157   0.515  51.348  1.00  0.00     0.213 C 
HETATM    9  C8  UNL     1      21.722   1.617  50.431  1.00  0.00     0.227 A 
HETATM   10  C9  UNL     1      22.277   2.528  49.673  1.00  0.00     0.262 A 
HETATM   11  C10 UNL     1      23.108   3.429  48.935  1.00  0.00     0.009 C 
HETATM   12  C11 UNL     1      24.366   3.705  48.916  1.00  0.00    -0.002 C 
HETATM   13  C12 UNL     1      25.590   3.371  49.573  1.00  0.00    -0.000 C 
HETATM   14  C13 UNL     1      26.083   2.668  50.561  1.00  0.00     0.030 C 
HETATM   15  C14 UNL     1      26.559   1.860  51.677  1.00  0.00     0.361 A 
HETATM   16  C15 UNL     1      26.413   0.408  51.711  1.00  0.00     0.366 A 
HETATM   17  C16 UNL     1      25.848   0.001  53.018  1.00  0.00     0.183 A 
HETATM   18  N1  UNL     1      26.430   1.135  52.998  1.00  0.00     0.085 N 
HETATM   19  N2  UNL     1      25.633   2.226  52.842  1.00  0.00    -0.134 N 
HETATM   20  S1  UNL     1      24.391   3.506  53.182  1.00  0.00     0.007 SA
HETATM   21  C17 UNL     1      22.994   3.288  52.100  1.00  0.00     0.133 C 
HETATM   22  C18 UNL     1      21.751   2.796  51.889  1.00  0.00     0.249 C 
HETATM   23  N3  UNL     1      21.009   2.935  50.594  1.00  0.00     0.006 N 
HETATM   24  H21 UNL     1      20.589   3.879  50.915  1.00  0.00     0.291 HD
ENDROOT
BRANCH  22  25
HETATM   25  O2  UNL     1      22.032   2.429  53.204  1.00  0.00    -0.340 OA
HETATM   26  H20 UNL     1      21.318   2.513  53.916  1.00  0.00     0.219 HD
ENDBRANCH  22  25
TORSDOF 1
ENDMDL
MODEL 5
REMARK VINA RESULT:      -7.4      2.367      5.096
REMARK  1 active torsions:
REMARK  status: ('A' for Active; 'I' for Inactive)
REMARK    1  A    between atoms: C18_22  and  O2_23 
ROOT
HETATM    1  C1  UNL     1      26.471   0.548  51.995  1.00  0.00     0.037 C 
HETATM    2  C2  UNL     1      26.574   1.685  51.078  1.00  0.00    -0.018 C 
HETATM    3  C3  UNL     1      26.060   2.842  50.808  1.00  0.00    -0.005 C 
HETATM    4  C4  UNL     1      26.431   3.760  49.761  1.00  0.00     0.011 C 
HETATM    5  C5  UNL     1      25.943   4.939  49.489  1.00  0.00     0.000 C 
HETATM    6  C6  UNL     1      24.856   5.737  50.164  1.00  0.00     0.195 C 
HETATM    7  O1  UNL     1      23.830   6.107  49.608  1.00  0.00    -0.385 OA
HETATM    8  C7  UNL     1      22.804   6.460  49.053  1.00  0.00     0.213 C 
HETATM    9  C8  UNL     1      21.471   5.888  49.573  1.00  0.00     0.227 A 
HETATM   10  C9  UNL     1      20.382   5.358  50.070  1.00  0.00     0.262 A 
HETATM   11  C10 UNL     1      19.356   4.643  50.763  1.00  0.00     0.009 C 
HETATM   12  C11 UNL     1      19.328   3.668  51.604  1.00  0.00    -0.002 C 
HETATM   13  C12 UNL     1      20.193   2.746  52.270  1.00  0.00    -0.000 C 
HETATM   14  C13 UNL     1      21.442   2.359  52.347  1.00  0.00     0.030 C 
HETATM   15  C14 UNL     1      22.850   1.983  52.377  1.00  0.00     0.361 A 
HETATM   16  C15 UNL     1      23.899   2.910  52.790  1.00  0.00     0.366 A 
HETATM   17  C16 UNL     1      24.994   2.889  51.793  1.00  0.00     0.183 A 
HETATM   18  N1  UNL     1      24.248   1.856  51.814  1.00  0.00     0.085 N 
HETATM   19  N2  UNL     1      23.237   1.815  50.904  1.00  0.00    -0.134 N 
HETATM   20  S1  UNL     1      22.362   1.717  49.317  1.00  0.00     0.007 SA
HETATM   21  C17 UNL     1      21.582   3.278  48.965  1.00  0.00     0.133 C 
HETATM   22  C18 UNL     1      21.611   4.479  48.344  1.00  0.00     0.249 C 
HETATM   23  N3  UNL     1      20.526   5.507  48.464  1.00  0.00     0.006 N 
HETATM   24  H21 UNL     1      20.000   5.076  47.622  1.00  0.00     0.291 HD
ENDROOT
BRANCH  22  25
HETATM   25  O2  UNL     1      22.807   3.877  47.955  1.00  0.00    -0.340 OA
HETATM   26  H20 UNL     1      23.022   2.937  48.262  1.00  0.00     0.219 HD
ENDBRANCH  22  25
TORSDOF 1
ENDMDL
MODEL 6
REMARK VINA RESULT:      -7.3      2.083      2.895
REMARK  1 active torsions:
REMARK  status: ('A' for Active; 'I' for Inactive)
REMARK    1  A    between atoms: C18_22  and  O2_23 
ROOT
HETATM    1  C1  UNL     1      18.470   3.224  46.768  1.00  0.00     0.037 C 
HETATM    2  C2  UNL     1      19.504   4.228  47.027  1.00  0.00    -0.018 C 
HETATM    3  C3  UNL     1      20.706   4.378  47.483  1.00  0.00    -0.005 C 
HETATM    4  C4  UNL     1      21.470   5.594  47.602  1.00  0.00     0.011 C 
HETATM    5  C5  UNL     1      22.690   5.760  48.035  1.00  0.00     0.000 C 
HETATM    6  C6  UNL     1      23.704   4.764  48.539  1.00  0.00     0.195 C 
HETATM    7  O1  UNL     1      24.193   4.791  49.660  1.00  0.00    -0.385 OA
HETATM    8  C7  UNL     1      24.668   4.814  50.783  1.00  0.00     0.213 C 
HETATM    9  C8  UNL     1      24.362   3.629  51.718  1.00  0.00     0.227 A 
HETATM   10  C9  UNL     1      24.056   2.589  52.452  1.00  0.00     0.262 A 
HETATM   11  C10 UNL     1      23.573   1.384  53.052  1.00  0.00     0.009 C 
HETATM   12  C11 UNL     1      22.681   0.506  52.750  1.00  0.00    -0.002 C 
HETATM   13  C12 UNL     1      21.682   0.224  51.768  1.00  0.00    -0.000 C 
HETATM   14  C13 UNL     1      21.103   0.715  50.702  1.00  0.00     0.030 C 
HETATM   15  C14 UNL     1      20.504   1.326  49.522  1.00  0.00     0.361 A 
HETATM   16  C15 UNL     1      21.274   1.624  48.318  1.00  0.00     0.366 A 
HETATM   17  C16 UNL     1      21.000   3.015  47.890  1.00  0.00     0.183 A 
HETATM   18  N1  UNL     1      20.108   2.478  48.625  1.00  0.00     0.085 N 
HETATM   19  N2  UNL     1      20.166   2.756  49.955  1.00  0.00    -0.134 N 
HETATM   20  S1  UNL     1      20.094   3.673  51.520  1.00  0.00     0.007 SA
HETATM   21  C17 UNL     1      21.731   3.822  52.204  1.00  0.00     0.133 C 
HETATM   22  C18 UNL     1      22.862   4.546  52.369  1.00  0.00     0.249 C 
HETATM   23  N3  UNL     1      24.060   4.060  53.130  1.00  0.00     0.006 N 
HETATM   24  H21 UNL     1      23.659   4.461  54.051  1.00  0.00     0.291 HD
ENDROOT
BRANCH  22  25
HETATM   25  O2  UNL     1      22.045   5.379  51.606  1.00  0.00    -0.340 OA
HETATM   26  H20 UNL     1      22.169   5.427  50.603  1.00  0.00     0.219 HD
ENDBRANCH  22  25
TORSDOF 1
ENDMDL
MODEL 7
REMARK VINA RESULT:      -7.1      3.683      5.519
REMARK  1 active torsions:
REMARK  status: ('A' for Active; 'I' for Inactive)
REMARK    1  A    between atoms: C18_22  and  O2_23 
ROOT
HETATM    1  C1  UNL     1      19.129   6.015  49.376  1.00  0.00     0.037 C 
HETATM    2  C2  UNL     1      19.931   7.160  48.940  1.00  0.00    -0.018 C 
HETATM    3  C3  UNL     1      21.033   7.478  48.340  1.00  0.00    -0.005 C 
HETATM    4  C4  UNL     1      21.548   8.795  48.061  1.00  0.00     0.011 C 
HETATM    5  C5  UNL     1      22.642   9.136  47.437  1.00  0.00     0.000 C 
HETATM    6  C6  UNL     1      23.718   8.293  46.798  1.00  0.00     0.195 C 
HETATM    7  O1  UNL     1      24.895   8.314  47.132  1.00  0.00    -0.385 OA
HETATM    8  C7  UNL     1      26.064   8.330  47.478  1.00  0.00     0.213 C 
HETATM    9  C8  UNL     1      26.654   7.037  48.073  1.00  0.00     0.227 A 
HETATM   10  C9  UNL     1      27.082   5.905  48.572  1.00  0.00     0.262 A 
HETATM   11  C10 UNL     1      27.302   4.590  49.090  1.00  0.00     0.009 C 
HETATM   12  C11 UNL     1      26.548   3.597  49.414  1.00  0.00    -0.002 C 
HETATM   13  C12 UNL     1      25.172   3.226  49.507  1.00  0.00    -0.000 C 
HETATM   14  C13 UNL     1      23.956   3.693  49.371  1.00  0.00     0.030 C 
HETATM   15  C14 UNL     1      22.635   4.284  49.201  1.00  0.00     0.361 A 
HETATM   16  C15 UNL     1      22.169   4.807  47.920  1.00  0.00     0.366 A 
HETATM   17  C16 UNL     1      21.598   6.159  48.119  1.00  0.00     0.183 A 
HETATM   18  N1  UNL     1      21.634   5.418  49.155  1.00  0.00     0.085 N 
HETATM   19  N2  UNL     1      22.691   5.594  49.994  1.00  0.00    -0.134 N 
HETATM   20  S1  UNL     1      23.818   6.356  51.196  1.00  0.00     0.007 SA
HETATM   21  C17 UNL     1      25.370   6.731  50.408  1.00  0.00     0.133 C 
HETATM   22  C18 UNL     1      26.174   7.625  49.788  1.00  0.00     0.249 C 
HETATM   23  N3  UNL     1      27.541   7.295  49.265  1.00  0.00     0.006 N 
HETATM   24  H21 UNL     1      27.986   7.544  50.218  1.00  0.00     0.291 HD
ENDROOT
BRANCH  22  25
HETATM   25  O2  UNL     1      25.029   8.362  50.086  1.00  0.00    -0.340 OA
HETATM   26  H20 UNL     1      24.262   7.926  50.582  1.00  0.00     0.219 HD
ENDBRANCH  22  25
TORSDOF 1
ENDMDL
MODEL 8
REMARK VINA RESULT:      -7.1      1.867      2.703
REMARK  1 active torsions:
REMARK  status: ('A' for Active; 'I' for Inactive)
REMARK    1  A    between atoms: C18_22  and  O2_23 
ROOT
HETATM    1  C1  UNL     1      18.013   2.776  48.242  1.00  0.00     0.037 C 
HETATM    2  C2  UNL     1      19.127   3.725  48.224  1.00  0.00    -0.018 C 
HETATM    3  C3  UNL     1      20.411   3.812  48.373  1.00  0.00    -0.005 C 
HETATM    4  C4  UNL     1      21.241   4.986  48.279  1.00  0.00     0.011 C 
HETATM    5  C5  UNL     1      22.536   5.090  48.402  1.00  0.00     0.000 C 
HETATM    6  C6  UNL     1      23.590   4.044  48.667  1.00  0.00     0.195 C 
HETATM    7  O1  UNL     1      24.337   4.052  49.636  1.00  0.00    -0.385 OA
HETATM    8  C7  UNL     1      25.070   4.059  50.610  1.00  0.00     0.213 C 
HETATM    9  C8  UNL     1      24.940   2.899  51.615  1.00  0.00     0.227 A 
HETATM   10  C9  UNL     1      24.768   1.883  52.423  1.00  0.00     0.262 A 
HETATM   11  C10 UNL     1      24.384   0.710  53.147  1.00  0.00     0.009 C 
HETATM   12  C11 UNL     1      23.402  -0.121  53.087  1.00  0.00    -0.002 C 
HETATM   13  C12 UNL     1      22.182  -0.355  52.381  1.00  0.00    -0.000 C 
HETATM   14  C13 UNL     1      21.388   0.158  51.476  1.00  0.00     0.030 C 
HETATM   15  C14 UNL     1      20.553   0.792  50.463  1.00  0.00     0.361 A 
HETATM   16  C15 UNL     1      21.023   1.038  49.103  1.00  0.00     0.366 A 
HETATM   17  C16 UNL     1      20.724   2.439  48.725  1.00  0.00     0.183 A 
HETATM   18  N1  UNL     1      20.010   1.957  49.664  1.00  0.00     0.085 N 
HETATM   19  N2  UNL     1      20.403   2.242  50.935  1.00  0.00    -0.134 N 
HETATM   20  S1  UNL     1      20.758   3.173  52.452  1.00  0.00     0.007 SA
HETATM   21  C17 UNL     1      22.518   3.238  52.718  1.00  0.00     0.133 C 
HETATM   22  C18 UNL     1      23.690   3.901  52.590  1.00  0.00     0.249 C 
HETATM   23  N3  UNL     1      25.010   3.357  53.050  1.00  0.00     0.006 N 
HETATM   24  H21 UNL     1      24.865   3.785  54.032  1.00  0.00     0.291 HD
ENDROOT
BRANCH  22  25
HETATM   25  O2  UNL     1      22.756   4.771  52.030  1.00  0.00    -0.340 OA
HETATM   26  H20 UNL     1      22.251   4.501  51.196  1.00  0.00     0.219 HD
ENDBRANCH  22  25
TORSDOF 1
ENDMDL
MODEL 9
REMARK VINA RESULT:      -7.0      2.917      5.083
REMARK  1 active torsions:
REMARK  status: ('A' for Active; 'I' for Inactive)
REMARK    1  A    between atoms: C18_22  and  O2_23 
ROOT
HETATM    1  C1  UNL     1      26.417   3.752  49.703  1.00  0.00     0.037 C 
HETATM    2  C2  UNL     1      25.339   4.671  49.333  1.00  0.00    -0.018 C 
HETATM    3  C3  UNL     1      24.137   5.032  49.649  1.00  0.00    -0.005 C 
HETATM    4  C4  UNL     1      23.316   6.041  49.029  1.00  0.00     0.011 C 
HETATM    5  C5  UNL     1      22.114   6.435  49.349  1.00  0.00     0.000 C 
HETATM    6  C6  UNL     1      21.191   5.990  50.455  1.00  0.00     0.195 C 
HETATM    7  O1  UNL     1      20.081   5.510  50.272  1.00  0.00    -0.385 OA
HETATM    8  C7  UNL     1      18.981   5.019  50.082  1.00  0.00     0.213 C 
HETATM    9  C8  UNL     1      18.758   3.560  50.525  1.00  0.00     0.227 A 
HETATM   10  C9  UNL     1      18.648   2.319  50.924  1.00  0.00     0.262 A 
HETATM   11  C10 UNL     1      18.782   0.982  51.415  1.00  0.00     0.009 C 
HETATM   12  C11 UNL     1      19.767   0.233  51.771  1.00  0.00    -0.002 C 
HETATM   13  C12 UNL     1      21.193   0.230  51.852  1.00  0.00    -0.000 C 
HETATM   14  C13 UNL     1      22.253   0.943  51.563  1.00  0.00     0.030 C 
HETATM   15  C14 UNL     1      23.385   1.791  51.211  1.00  0.00     0.361 A 
HETATM   16  C15 UNL     1      23.584   3.113  51.798  1.00  0.00     0.366 A 
HETATM   17  C16 UNL     1      23.859   4.093  50.721  1.00  0.00     0.183 A 
HETATM   18  N1  UNL     1      24.098   2.874  50.432  1.00  0.00     0.085 N 
HETATM   19  N2  UNL     1      23.123   2.205  49.760  1.00  0.00    -0.134 N 
HETATM   20  S1  UNL     1      21.989   1.703  48.434  1.00  0.00     0.007 SA
HETATM   21  C17 UNL     1      20.318   2.120  48.885  1.00  0.00     0.133 C 
HETATM   22  C18 UNL     1      19.275   2.979  48.819  1.00  0.00     0.249 C 
HETATM   23  N3  UNL     1      17.968   2.760  49.522  1.00  0.00     0.006 N 
HETATM   24  H21 UNL     1      17.582   2.212  48.673  1.00  0.00     0.291 HD
ENDROOT
BRANCH  22  25
HETATM   25  O2  UNL     1      20.252   3.586  48.032  1.00  0.00    -0.340 OA
HETATM   26  H20 UNL     1      20.053   3.817  47.067  1.00  0.00     0.219 HD
ENDBRANCH  22  25
TORSDOF 1
ENDMDL
