MODEL 1
REMARK VINA RESULT:      -9.1      0.000      0.000
REMARK  0 active torsions:
REMARK  status: ('A' for Active; 'I' for Inactive)
ROOT
HETATM    1  O1  UNL     1      26.710   1.455  51.256  1.00  0.00    -0.272 OA
HETATM    2  C1  UNL     1      26.173   1.877  52.280  1.00  0.00     0.235 C 
HETATM    3  C2  UNL     1      24.884   2.421  52.786  1.00  0.00     0.142 C 
HETATM    4  C3  UNL     1      23.915   1.344  52.979  1.00  0.00    -0.043 A 
HETATM    5  C4  UNL     1      22.625   1.888  52.812  1.00  0.00     0.010 A 
HETATM    6  C5  UNL     1      21.417   1.232  52.936  1.00  0.00     0.024 A 
HETATM    7  C6  UNL     1      21.353  -0.103  53.253  1.00  0.00     0.034 A 
HETATM    8 CL1  UNL     1      19.980  -1.116  53.459  1.00  0.00    -0.084 Cl
HETATM    9  C7  UNL     1      22.561  -0.737  53.437  1.00  0.00     0.031 A 
HETATM   10  C8  UNL     1      23.694  -0.005  53.293  1.00  0.00    -0.045 A 
HETATM   11  C9  UNL     1      25.060  -0.374  53.389  1.00  0.00     0.035 C 
HETATM   12  C10 UNL     1      26.222  -0.928  53.218  1.00  0.00     0.052 C 
HETATM   13  C11 UNL     1      27.409  -1.679  52.851  1.00  0.00     0.110 C 
HETATM   14  F1  UNL     1      26.485  -2.214  52.049  1.00  0.00    -0.207 F 
HETATM   15  C12 UNL     1      28.446  -1.293  53.543  1.00  0.00     0.032 C 
HETATM   16  C13 UNL     1      28.550  -0.293  54.574  1.00  0.00     0.193 C 
HETATM   17  S1  UNL     1      28.924   1.335  53.882  1.00  0.00     0.236 S 
HETATM   18  O2  UNL     1      29.254   2.348  54.872  1.00  0.00    -0.205 OA
HETATM   19  O3  UNL     1      30.033   1.148  52.922  1.00  0.00    -0.205 OA
HETATM   20  N1  UNL     1      27.412   1.634  53.002  1.00  0.00    -0.254 N 
HETATM   21  H11 UNL     1      26.959   1.977  53.875  1.00  0.00     0.181 HD
ENDROOT
TORSDOF 0
ENDMDL
MODEL 2
REMARK VINA RESULT:      -8.1      2.295      3.260
REMARK  0 active torsions:
REMARK  status: ('A' for Active; 'I' for Inactive)
ROOT
HETATM    1  O1  UNL     1      25.662   0.322  56.001  1.00  0.00    -0.272 OA
HETATM    2  C1  UNL     1      25.331  -0.645  55.315  1.00  0.00     0.235 C 
HETATM    3  C2  UNL     1      24.207  -1.594  55.096  1.00  0.00     0.142 C 
HETATM    4  C3  UNL     1      23.141  -0.955  54.327  1.00  0.00    -0.043 A 
HETATM    5  C4  UNL     1      21.923  -1.569  54.685  1.00  0.00     0.010 A 
HETATM    6  C5  UNL     1      20.667  -1.296  54.179  1.00  0.00     0.024 A 
HETATM    7  C6  UNL     1      20.473  -0.336  53.216  1.00  0.00     0.034 A 
HETATM    8 CL1  UNL     1      19.021   0.169  52.447  1.00  0.00    -0.084 Cl
HETATM    9  C7  UNL     1      21.601   0.330  52.793  1.00  0.00     0.031 A 
HETATM   10  C8  UNL     1      22.790  -0.010  53.352  1.00  0.00    -0.045 A 
HETATM   11  C9  UNL     1      24.096   0.504  53.149  1.00  0.00     0.035 C 
HETATM   12  C10 UNL     1      25.141   1.271  53.069  1.00  0.00     0.052 C 
HETATM   13  C11 UNL     1      26.158   2.307  53.057  1.00  0.00     0.110 C 
HETATM   14  F1  UNL     1      25.070   2.992  53.419  1.00  0.00    -0.207 F 
HETATM   15  C12 UNL     1      27.322   1.824  52.716  1.00  0.00     0.032 C 
HETATM   16  C13 UNL     1      27.697   0.482  52.355  1.00  0.00     0.193 C 
HETATM   17  S1  UNL     1      28.181  -0.483  53.805  1.00  0.00     0.236 S 
HETATM   18  O2  UNL     1      28.774  -1.775  53.498  1.00  0.00    -0.205 OA
HETATM   19  O3  UNL     1      29.114   0.357  54.587  1.00  0.00    -0.205 OA
HETATM   20  N1  UNL     1      26.615  -0.573  54.635  1.00  0.00    -0.254 N 
HETATM   21  H11 UNL     1      26.335  -1.382  54.042  1.00  0.00     0.181 HD
ENDROOT
TORSDOF 0
ENDMDL
MODEL 3
REMARK VINA RESULT:      -8.1      2.563      3.380
REMARK  0 active torsions:
REMARK  status: ('A' for Active; 'I' for Inactive)
ROOT
HETATM    1  O1  UNL     1      26.655   0.284  51.138  1.00  0.00    -0.272 OA
HETATM    2  C1  UNL     1      26.722   1.439  51.557  1.00  0.00     0.235 C 
HETATM    3  C2  UNL     1      26.462   2.847  51.153  1.00  0.00     0.142 C 
HETATM    4  C3  UNL     1      25.030   3.138  51.207  1.00  0.00    -0.043 A 
HETATM    5  C4  UNL     1      24.759   4.147  50.260  1.00  0.00     0.010 A 
HETATM    6  C5  UNL     1      23.542   4.744  49.998  1.00  0.00     0.024 A 
HETATM    7  C6  UNL     1      22.404   4.387  50.680  1.00  0.00     0.034 A 
HETATM    8 CL1  UNL     1      20.800   4.986  50.527  1.00  0.00    -0.084 Cl
HETATM    9  C7  UNL     1      22.556   3.404  51.632  1.00  0.00     0.031 A 
HETATM   10  C8  UNL     1      23.793   2.878  51.815  1.00  0.00    -0.045 A 
HETATM   11  C9  UNL     1      24.252   1.854  52.681  1.00  0.00     0.035 C 
HETATM   12  C10 UNL     1      24.439   0.726  53.297  1.00  0.00     0.052 C 
HETATM   13  C11 UNL     1      24.473  -0.622  53.835  1.00  0.00     0.110 C 
HETATM   14  F1  UNL     1      23.499  -0.713  52.925  1.00  0.00    -0.207 F 
HETATM   15  C12 UNL     1      25.384  -0.738  54.763  1.00  0.00     0.032 C 
HETATM   16  C13 UNL     1      26.288   0.245  55.300  1.00  0.00     0.193 C 
HETATM   17  S1  UNL     1      27.835   0.301  54.366  1.00  0.00     0.236 S 
HETATM   18  O2  UNL     1      28.876   1.114  54.975  1.00  0.00    -0.205 OA
HETATM   19  O3  UNL     1      28.284  -1.098  54.196  1.00  0.00    -0.205 OA
HETATM   20  N1  UNL     1      27.224   0.927  52.822  1.00  0.00    -0.254 N 
HETATM   21  H11 UNL     1      27.270   1.902  53.187  1.00  0.00     0.181 HD
ENDROOT
TORSDOF 0
ENDMDL
MODEL 4
REMARK VINA RESULT:      -8.1      2.865      3.859
REMARK  0 active torsions:
REMARK  status: ('A' for Active; 'I' for Inactive)
ROOT
HETATM    1  O1  UNL     1      24.129  -0.531  54.925  1.00  0.00    -0.272 OA
HETATM    2  C1  UNL     1      23.664  -0.884  53.842  1.00  0.00     0.235 C 
HETATM    3  C2  UNL     1      22.371  -1.098  53.137  1.00  0.00     0.142 C 
HETATM    4  C3  UNL     1      21.797   0.181  52.723  1.00  0.00    -0.043 A 
HETATM    5  C4  UNL     1      20.395   0.032  52.680  1.00  0.00     0.010 A 
HETATM    6  C5  UNL     1      19.463   0.980  52.311  1.00  0.00     0.024 A 
HETATM    7  C6  UNL     1      19.838   2.245  51.925  1.00  0.00     0.034 A 
HETATM    8 CL1  UNL     1      18.866   3.572  51.429  1.00  0.00    -0.084 Cl
HETATM    9  C7  UNL     1      21.190   2.500  51.932  1.00  0.00     0.031 A 
HETATM   10  C8  UNL     1      22.027   1.502  52.312  1.00  0.00    -0.045 A 
HETATM   11  C9  UNL     1      23.438   1.470  52.447  1.00  0.00     0.035 C 
HETATM   12  C10 UNL     1      24.667   1.696  52.799  1.00  0.00     0.052 C 
HETATM   13  C11 UNL     1      25.946   2.122  53.339  1.00  0.00     0.110 C 
HETATM   14  F1  UNL     1      25.099   2.965  53.935  1.00  0.00    -0.207 F 
HETATM   15  C12 UNL     1      26.925   1.401  52.863  1.00  0.00     0.032 C 
HETATM   16  C13 UNL     1      26.900   0.318  51.915  1.00  0.00     0.193 C 
HETATM   17  S1  UNL     1      26.673  -1.277  52.737  1.00  0.00     0.236 S 
HETATM   18  O2  UNL     1      26.851  -2.431  51.872  1.00  0.00    -0.205 OA
HETATM   19  O3  UNL     1      27.621  -1.312  53.872  1.00  0.00    -0.205 OA
HETATM   20  N1  UNL     1      25.019  -1.061  53.344  1.00  0.00    -0.254 N 
HETATM   21  H11 UNL     1      24.631  -1.349  52.421  1.00  0.00     0.181 HD
ENDROOT
TORSDOF 0
ENDMDL
MODEL 5
REMARK VINA RESULT:      -8.0      4.352      6.127
REMARK  0 active torsions:
REMARK  status: ('A' for Active; 'I' for Inactive)
ROOT
HETATM    1  O1  UNL     1      23.332   2.087  49.637  1.00  0.00    -0.272 OA
HETATM    2  C1  UNL     1      23.362   2.180  50.864  1.00  0.00     0.235 C 
HETATM    3  C2  UNL     1      23.527   1.362  52.096  1.00  0.00     0.142 C 
HETATM    4  C3  UNL     1      24.935   1.025  52.301  1.00  0.00    -0.043 A 
HETATM    5  C4  UNL     1      24.988  -0.196  53.005  1.00  0.00     0.010 A 
HETATM    6  C5  UNL     1      26.116  -0.867  53.434  1.00  0.00     0.024 A 
HETATM    7  C6  UNL     1      27.377  -0.375  53.200  1.00  0.00     0.034 A 
HETATM    8 CL1  UNL     1      28.906  -1.028  53.635  1.00  0.00    -0.084 Cl
HETATM    9  C7  UNL     1      27.441   0.817  52.515  1.00  0.00     0.031 A 
HETATM   10  C8  UNL     1      26.276   1.399  52.135  1.00  0.00    -0.045 A 
HETATM   11  C9  UNL     1      26.023   2.589  51.407  1.00  0.00     0.035 C 
HETATM   12  C10 UNL     1      25.977   3.513  50.496  1.00  0.00     0.052 C 
HETATM   13  C11 UNL     1      26.063   4.391  49.343  1.00  0.00     0.110 C 
HETATM   14  F1  UNL     1      26.807   3.353  48.955  1.00  0.00    -0.207 F 
HETATM   15  C12 UNL     1      25.384   5.490  49.534  1.00  0.00     0.032 C 
HETATM   16  C13 UNL     1      24.625   5.922  50.678  1.00  0.00     0.193 C 
HETATM   17  S1  UNL     1      22.907   5.365  50.582  1.00  0.00     0.236 S 
HETATM   18  O2  UNL     1      22.031   5.939  51.590  1.00  0.00    -0.205 OA
HETATM   19  O3  UNL     1      22.430   5.682  49.219  1.00  0.00    -0.205 OA
HETATM   20  N1  UNL     1      23.157   3.614  50.738  1.00  0.00    -0.254 N 
HETATM   21  H11 UNL     1      23.195   3.701  51.775  1.00  0.00     0.181 HD
ENDROOT
TORSDOF 0
ENDMDL
MODEL 6
REMARK VINA RESULT:      -7.7      4.649      6.576
REMARK  0 active torsions:
REMARK  status: ('A' for Active; 'I' for Inactive)
ROOT
HETATM    1  O1  UNL     1      22.259   1.057  50.288  1.00  0.00    -0.272 OA
HETATM    2  C1  UNL     1      22.106   1.048  51.509  1.00  0.00     0.235 C 
HETATM    3  C2  UNL     1      22.477   0.281  52.729  1.00  0.00     0.142 C 
HETATM    4  C3  UNL     1      23.855   0.576  53.119  1.00  0.00    -0.043 A 
HETATM    5  C4  UNL     1      24.365  -0.555  53.789  1.00  0.00     0.010 A 
HETATM    6  C5  UNL     1      25.617  -0.700  54.353  1.00  0.00     0.024 A 
HETATM    7  C6  UNL     1      26.547   0.311  54.310  1.00  0.00     0.034 A 
HETATM    8 CL1  UNL     1      28.146   0.357  54.936  1.00  0.00    -0.084 Cl
HETATM    9  C7  UNL     1      26.151   1.466  53.674  1.00  0.00     0.031 A 
HETATM   10  C8  UNL     1      24.900   1.511  53.151  1.00  0.00    -0.045 A 
HETATM   11  C9  UNL     1      24.227   2.529  52.428  1.00  0.00     0.035 C 
HETATM   12  C10 UNL     1      23.879   3.415  51.546  1.00  0.00     0.052 C 
HETATM   13  C11 UNL     1      23.695   4.339  50.441  1.00  0.00     0.110 C 
HETATM   14  F1  UNL     1      24.861   3.768  50.132  1.00  0.00    -0.207 F 
HETATM   15  C12 UNL     1      22.581   5.010  50.566  1.00  0.00     0.032 C 
HETATM   16  C13 UNL     1      21.586   4.966  51.605  1.00  0.00     0.193 C 
HETATM   17  S1  UNL     1      20.318   3.725  51.255  1.00  0.00     0.236 S 
HETATM   18  O2  UNL     1      19.170   3.769  52.146  1.00  0.00    -0.205 OA
HETATM   19  O3  UNL     1      19.906   3.919  49.848  1.00  0.00    -0.205 OA
HETATM   20  N1  UNL     1      21.301   2.253  51.395  1.00  0.00    -0.254 N 
HETATM   21  H11 UNL     1      21.179   2.258  52.430  1.00  0.00     0.181 HD
ENDROOT
TORSDOF 0
ENDMDL
MODEL 7
REMARK VINA RESULT:      -7.7      4.687      6.712
REMARK  0 active torsions:
REMARK  status: ('A' for Active; 'I' for Inactive)
ROOT
HETATM    1  O1  UNL     1      21.778   3.329  52.683  1.00  0.00    -0.272 OA
HETATM    2  C1  UNL     1      22.290   2.781  51.707  1.00  0.00     0.235 C 
HETATM    3  C2  UNL     1      23.596   2.602  51.017  1.00  0.00     0.142 C 
HETATM    4  C3  UNL     1      24.420   1.626  51.728  1.00  0.00    -0.043 A 
HETATM    5  C4  UNL     1      25.772   1.946  51.488  1.00  0.00     0.010 A 
HETATM    6  C5  UNL     1      26.886   1.269  51.942  1.00  0.00     0.024 A 
HETATM    7  C6  UNL     1      26.775   0.144  52.724  1.00  0.00     0.034 A 
HETATM    8 CL1  UNL     1      28.006  -0.850  53.395  1.00  0.00    -0.084 Cl
HETATM    9  C7  UNL     1      25.493  -0.258  53.021  1.00  0.00     0.031 A 
HETATM   10  C8  UNL     1      24.463   0.475  52.529  1.00  0.00    -0.045 A 
HETATM   11  C9  UNL     1      23.061   0.333  52.682  1.00  0.00     0.035 C 
HETATM   12  C10 UNL     1      21.857   0.241  53.160  1.00  0.00     0.052 C 
HETATM   13  C11 UNL     1      20.619   0.167  53.915  1.00  0.00     0.110 C 
HETATM   14  F1  UNL     1      21.527   0.291  54.886  1.00  0.00    -0.207 F 
HETATM   15  C12 UNL     1      19.589   0.040  53.123  1.00  0.00     0.032 C 
HETATM   16  C13 UNL     1      19.532  -0.051  51.687  1.00  0.00     0.193 C 
HETATM   17  S1  UNL     1      19.394   1.583  50.925  1.00  0.00     0.236 S 
HETATM   18  O2  UNL     1      19.118   1.561  49.498  1.00  0.00    -0.205 OA
HETATM   19  O3  UNL     1      18.338   2.311  51.660  1.00  0.00    -0.205 OA
HETATM   20  N1  UNL     1      20.986   2.242  51.354  1.00  0.00    -0.254 N 
HETATM   21  H11 UNL     1      21.416   1.765  50.534  1.00  0.00     0.181 HD
ENDROOT
TORSDOF 0
ENDMDL
MODEL 8
REMARK VINA RESULT:      -7.6      4.304      5.595
REMARK  0 active torsions:
REMARK  status: ('A' for Active; 'I' for Inactive)
ROOT
HETATM    1  O1  UNL     1      24.677   3.020  53.762  1.00  0.00    -0.272 OA
HETATM    2  C1  UNL     1      24.241   2.802  52.632  1.00  0.00     0.235 C 
HETATM    3  C2  UNL     1      23.807   3.499  51.391  1.00  0.00     0.142 C 
HETATM    4  C3  UNL     1      24.967   3.948  50.624  1.00  0.00    -0.043 A 
HETATM    5  C4  UNL     1      24.584   5.088  49.888  1.00  0.00     0.010 A 
HETATM    6  C5  UNL     1      25.359   5.817  49.008  1.00  0.00     0.024 A 
HETATM    7  C6  UNL     1      26.665   5.477  48.749  1.00  0.00     0.034 A 
HETATM    8 CL1  UNL     1      27.806   6.226  47.705  1.00  0.00    -0.084 Cl
HETATM    9  C7  UNL     1      27.144   4.375  49.420  1.00  0.00     0.031 A 
HETATM   10  C8  UNL     1      26.305   3.726  50.265  1.00  0.00    -0.045 A 
HETATM   11  C9  UNL     1      26.511   2.599  51.101  1.00  0.00     0.035 C 
HETATM   12  C10 UNL     1      26.944   1.775  52.007  1.00  0.00     0.052 C 
HETATM   13  C11 UNL     1      27.584   1.035  53.079  1.00  0.00     0.110 C 
HETATM   14  F1  UNL     1      28.278   2.176  53.079  1.00  0.00    -0.207 F 
HETATM   15  C12 UNL     1      27.034  -0.138  53.238  1.00  0.00     0.032 C 
HETATM   16  C13 UNL     1      25.954  -0.759  52.516  1.00  0.00     0.193 C 
HETATM   17  S1  UNL     1      24.351  -0.365  53.255  1.00  0.00     0.236 S 
HETATM   18  O2  UNL     1      23.235  -1.124  52.714  1.00  0.00    -0.205 OA
HETATM   19  O3  UNL     1      24.485  -0.583  54.711  1.00  0.00    -0.205 OA
HETATM   20  N1  UNL     1      24.290   1.376  52.912  1.00  0.00    -0.254 N 
HETATM   21  H11 UNL     1      23.934   1.185  51.952  1.00  0.00     0.181 HD
ENDROOT
TORSDOF 0
ENDMDL
MODEL 9
REMARK VINA RESULT:      -7.5      5.337      7.103
REMARK  0 active torsions:
REMARK  status: ('A' for Active; 'I' for Inactive)
ROOT
HETATM    1  O1  UNL     1      22.937   4.801  52.502  1.00  0.00    -0.272 OA
HETATM    2  C1  UNL     1      22.834   4.794  51.276  1.00  0.00     0.235 C 
HETATM    3  C2  UNL     1      23.294   5.516  50.059  1.00  0.00     0.142 C 
HETATM    4  C3  UNL     1      24.668   5.143  49.731  1.00  0.00    -0.043 A 
HETATM    5  C4  UNL     1      25.264   6.232  49.063  1.00  0.00     0.010 A 
HETATM    6  C5  UNL     1      26.543   6.300  48.548  1.00  0.00     0.024 A 
HETATM    7  C6  UNL     1      27.416   5.244  48.647  1.00  0.00     0.034 A 
HETATM    8 CL1  UNL     1      29.035   5.102  48.088  1.00  0.00    -0.084 Cl
HETATM    9  C7  UNL     1      26.935   4.124  49.287  1.00  0.00     0.031 A 
HETATM   10  C8  UNL     1      25.663   4.154  49.758  1.00  0.00    -0.045 A 
HETATM   11  C9  UNL     1      24.910   3.187  50.471  1.00  0.00     0.035 C 
HETATM   12  C10 UNL     1      24.480   2.338  51.354  1.00  0.00     0.052 C 
HETATM   13  C11 UNL     1      24.204   1.447  52.467  1.00  0.00     0.110 C 
HETATM   14  F1  UNL     1      25.385   1.963  52.814  1.00  0.00    -0.207 F 
HETATM   15  C12 UNL     1      23.062   0.833  52.309  1.00  0.00     0.032 C 
HETATM   16  C13 UNL     1      22.113   0.907  51.229  1.00  0.00     0.193 C 
HETATM   17  S1  UNL     1      20.899   2.219  51.505  1.00  0.00     0.236 S 
HETATM   18  O2  UNL     1      19.787   2.216  50.568  1.00  0.00    -0.205 OA
HETATM   19  O3  UNL     1      20.422   2.075  52.897  1.00  0.00    -0.205 OA
HETATM   20  N1  UNL     1      21.962   3.635  51.378  1.00  0.00    -0.254 N 
HETATM   21  H11 UNL     1      21.882   3.615  50.340  1.00  0.00     0.181 HD
ENDROOT
TORSDOF 0
ENDMDL
