MODEL 1
REMARK VINA RESULT:      -7.1      0.000      0.000
REMARK  8 active torsions:
REMARK  status: ('A' for Active; 'I' for Inactive)
REMARK    1  A    between atoms: C2_2  and  S1_3 
REMARK    2  A    between atoms: S1_3  and  C3_6 
REMARK    3  A    between atoms: C6_9  and  N1_10 
REMARK    4  A    between atoms: N1_10  and  C7_11 
REMARK    5  A    between atoms: C7_11  and  C8_12 
REMARK    6  A    between atoms: C8_12  and  C9_13 
REMARK    7  A    between atoms: C9_13  and  C10_14 
REMARK    8  A    between atoms: C10_14  and  C11_15 
ROOT
HETATM    1  C3  UNL     1      25.653  -0.468  54.303  1.00  0.00     0.152 A 
HETATM    2  C4  UNL     1      24.686  -0.021  53.386  1.00  0.00     0.061 A 
HETATM    3  C5  UNL     1      23.406  -0.294  53.600  1.00  0.00     0.043 A 
HETATM    4  C6  UNL     1      22.258   0.039  52.866  1.00  0.00     0.138 A 
HETATM    5  N2  UNL     1      21.084  -0.304  53.237  1.00  0.00    -0.224 NA
HETATM    6  C13 UNL     1      20.681  -0.993  54.307  1.00  0.00     0.236 A 
HETATM    7  N3  UNL     1      21.775  -1.288  54.973  1.00  0.00    -0.240 NA
HETATM    8  C14 UNL     1      23.021  -1.017  54.730  1.00  0.00     0.089 A 
HETATM    9  C15 UNL     1      23.918  -1.470  55.644  1.00  0.00     0.150 A 
HETATM   10  N4  UNL     1      25.193  -1.157  55.362  1.00  0.00    -0.247 NA
ENDROOT
BRANCH   4  11
HETATM   11  N1  UNL     1      22.480   0.818  51.576  1.00  0.00    -0.367 N 
HETATM   12  H5  UNL     1      23.093   0.132  50.925  1.00  0.00     0.161 HD
BRANCH  11  13
HETATM   13  C7  UNL     1      21.837   2.116  51.750  1.00  0.00     0.111 C 
BRANCH  13  14
HETATM   14  C8  UNL     1      22.891   2.822  51.987  1.00  0.00     0.022 C 
BRANCH  14  15
HETATM   15  C9  UNL     1      24.099   3.466  52.292  1.00  0.00     0.035 C 
BRANCH  15  16
HETATM   16  C10 UNL     1      24.438   3.749  50.900  1.00  0.00     0.013 C 
BRANCH  16  17
HETATM   17  C11 UNL     1      24.642   4.179  49.450  1.00  0.00    -0.032 C 
HETATM   18  C12 UNL     1      23.655   4.738  48.633  1.00  0.00     0.046 C 
HETATM   19 BR1  UNL     1      26.438   3.513  49.681  1.00  0.00    -0.060 Br
ENDBRANCH  16  17
ENDBRANCH  15  16
ENDBRANCH  14  15
ENDBRANCH  13  14
ENDBRANCH  11  13
ENDBRANCH   4  11
BRANCH   1  20
HETATM   20  S1  UNL     1      27.311  -0.040  54.003  1.00  0.00     0.198 S 
HETATM   21  O1  UNL     1      27.914   0.537  55.274  1.00  0.00    -0.221 OA
HETATM   22  O2  UNL     1      28.033  -1.319  53.633  1.00  0.00    -0.221 OA
BRANCH  20  23
HETATM   23  C2  UNL     1      27.417   1.173  52.740  1.00  0.00     0.134 C 
HETATM   24  C1  UNL     1      27.968   2.323  53.171  1.00  0.00     0.023 C 
ENDBRANCH  20  23
ENDBRANCH   1  20
TORSDOF 8
ENDMDL
MODEL 2
REMARK VINA RESULT:      -7.0      2.168      2.922
REMARK  8 active torsions:
REMARK  status: ('A' for Active; 'I' for Inactive)
REMARK    1  A    between atoms: C2_2  and  S1_3 
REMARK    2  A    between atoms: S1_3  and  C3_6 
REMARK    3  A    between atoms: C6_9  and  N1_10 
REMARK    4  A    between atoms: N1_10  and  C7_11 
REMARK    5  A    between atoms: C7_11  and  C8_12 
REMARK    6  A    between atoms: C8_12  and  C9_13 
REMARK    7  A    between atoms: C9_13  and  C10_14 
REMARK    8  A    between atoms: C10_14  and  C11_15 
ROOT
HETATM    1  C3  UNL     1      26.436   0.536  53.597  1.00  0.00     0.152 A 
HETATM    2  C4  UNL     1      25.851   1.675  53.016  1.00  0.00     0.061 A 
HETATM    3  C5  UNL     1      24.536   1.725  52.854  1.00  0.00     0.043 A 
HETATM    4  C6  UNL     1      23.710   2.728  52.326  1.00  0.00     0.138 A 
HETATM    5  N2  UNL     1      22.440   2.605  52.259  1.00  0.00    -0.224 NA
HETATM    6  C13 UNL     1      21.646   1.601  52.636  1.00  0.00     0.236 A 
HETATM    7  N3  UNL     1      22.446   0.680  53.127  1.00  0.00    -0.240 NA
HETATM    8  C14 UNL     1      23.737   0.655  53.261  1.00  0.00     0.089 A 
HETATM    9  C15 UNL     1      24.255  -0.466  53.827  1.00  0.00     0.150 A 
HETATM   10  N4  UNL     1      25.592  -0.445  53.958  1.00  0.00    -0.247 NA
ENDROOT
BRANCH   4  11
HETATM   11  N1  UNL     1      24.409   3.977  51.805  1.00  0.00    -0.367 N 
HETATM   12  H5  UNL     1      24.902   4.433  52.710  1.00  0.00     0.161 HD
BRANCH  11  13
HETATM   13  C7  UNL     1      24.113   4.064  50.378  1.00  0.00     0.111 C 
BRANCH  13  14
HETATM   14  C8  UNL     1      25.260   3.690  49.921  1.00  0.00     0.022 C 
BRANCH  14  15
HETATM   15  C9  UNL     1      26.566   3.345  49.543  1.00  0.00     0.035 C 
BRANCH  15  16
HETATM   16  C10 UNL     1      26.895   4.672  49.029  1.00  0.00     0.013 C 
BRANCH  16  17
HETATM   17  C11 UNL     1      27.040   6.088  48.481  1.00  0.00    -0.032 C 
HETATM   18  C12 UNL     1      25.987   6.991  48.304  1.00  0.00     0.046 C 
HETATM   19 BR1  UNL     1      28.908   5.645  48.294  1.00  0.00    -0.060 Br
ENDBRANCH  16  17
ENDBRANCH  15  16
ENDBRANCH  14  15
ENDBRANCH  13  14
ENDBRANCH  11  13
ENDBRANCH   4  11
BRANCH   1  20
HETATM   20  S1  UNL     1      28.158   0.543  53.834  1.00  0.00     0.198 S 
HETATM   21  O1  UNL     1      28.768   1.668  53.012  1.00  0.00    -0.221 OA
HETATM   22  O2  UNL     1      28.396   0.805  55.307  1.00  0.00    -0.221 OA
BRANCH  20  23
HETATM   23  C2  UNL     1      28.861  -0.974  53.306  1.00  0.00     0.134 C 
HETATM   24  C1  UNL     1      30.132  -1.128  53.723  1.00  0.00     0.023 C 
ENDBRANCH  20  23
ENDBRANCH   1  20
TORSDOF 8
ENDMDL
MODEL 3
REMARK VINA RESULT:      -6.9      1.358      1.605
REMARK  8 active torsions:
REMARK  status: ('A' for Active; 'I' for Inactive)
REMARK    1  A    between atoms: C2_2  and  S1_3 
REMARK    2  A    between atoms: S1_3  and  C3_6 
REMARK    3  A    between atoms: C6_9  and  N1_10 
REMARK    4  A    between atoms: N1_10  and  C7_11 
REMARK    5  A    between atoms: C7_11  and  C8_12 
REMARK    6  A    between atoms: C8_12  and  C9_13 
REMARK    7  A    between atoms: C9_13  and  C10_14 
REMARK    8  A    between atoms: C10_14  and  C11_15 
ROOT
HETATM    1  C3  UNL     1      25.974  -0.254  54.191  1.00  0.00     0.152 A 
HETATM    2  C4  UNL     1      24.944   0.145  53.320  1.00  0.00     0.061 A 
HETATM    3  C5  UNL     1      23.691  -0.198  53.587  1.00  0.00     0.043 A 
HETATM    4  C6  UNL     1      22.496   0.076  52.907  1.00  0.00     0.138 A 
HETATM    5  N2  UNL     1      21.360  -0.332  53.325  1.00  0.00    -0.224 NA
HETATM    6  C13 UNL     1      21.042  -1.048  54.405  1.00  0.00     0.236 A 
HETATM    7  N3  UNL     1      22.178  -1.288  55.021  1.00  0.00    -0.240 NA
HETATM    8  C14 UNL     1      23.396  -0.948  54.726  1.00  0.00     0.089 A 
HETATM    9  C15 UNL     1      24.355  -1.357  55.597  1.00  0.00     0.150 A 
HETATM   10  N4  UNL     1      25.598  -0.974  55.262  1.00  0.00    -0.247 NA
ENDROOT
BRANCH   4  11
HETATM   11  N1  UNL     1      22.619   0.874  51.615  1.00  0.00    -0.367 N 
HETATM   12  H5  UNL     1      23.333   0.283  50.975  1.00  0.00     0.161 HD
BRANCH  11  13
HETATM   13  C7  UNL     1      21.792   2.066  51.774  1.00  0.00     0.111 C 
BRANCH  13  14
HETATM   14  C8  UNL     1      22.724   2.909  52.066  1.00  0.00     0.022 C 
BRANCH  14  15
HETATM   15  C9  UNL     1      23.647   3.878  52.488  1.00  0.00     0.035 C 
BRANCH  15  16
HETATM   16  C10 UNL     1      24.376   3.905  51.223  1.00  0.00     0.013 C 
BRANCH  16  17
HETATM   17  C11 UNL     1      25.149   3.733  49.918  1.00  0.00    -0.032 C 
HETATM   18  C12 UNL     1      26.395   3.108  49.800  1.00  0.00     0.046 C 
HETATM   19 BR1  UNL     1      23.687   4.704  49.119  1.00  0.00    -0.060 Br
ENDBRANCH  16  17
ENDBRANCH  15  16
ENDBRANCH  14  15
ENDBRANCH  13  14
ENDBRANCH  11  13
ENDBRANCH   4  11
BRANCH   1  20
HETATM   20  S1  UNL     1      27.591   0.265  53.822  1.00  0.00     0.198 S 
HETATM   21  O1  UNL     1      27.543   1.261  52.674  1.00  0.00    -0.221 OA
HETATM   22  O2  UNL     1      28.125   0.948  55.065  1.00  0.00    -0.221 OA
BRANCH  20  23
HETATM   23  C2  UNL     1      28.582  -1.096  53.334  1.00  0.00     0.134 C 
HETATM   24  C1  UNL     1      29.895  -0.881  53.538  1.00  0.00     0.023 C 
ENDBRANCH  20  23
ENDBRANCH   1  20
TORSDOF 8
ENDMDL
MODEL 4
REMARK VINA RESULT:      -6.8      3.208      5.246
REMARK  8 active torsions:
REMARK  status: ('A' for Active; 'I' for Inactive)
REMARK    1  A    between atoms: C2_2  and  S1_3 
REMARK    2  A    between atoms: S1_3  and  C3_6 
REMARK    3  A    between atoms: C6_9  and  N1_10 
REMARK    4  A    between atoms: N1_10  and  C7_11 
REMARK    5  A    between atoms: C7_11  and  C8_12 
REMARK    6  A    between atoms: C8_12  and  C9_13 
REMARK    7  A    between atoms: C9_13  and  C10_14 
REMARK    8  A    between atoms: C10_14  and  C11_15 
ROOT
HETATM    1  C3  UNL     1      26.950   1.169  53.005  1.00  0.00     0.152 A 
HETATM    2  C4  UNL     1      25.595   0.857  52.803  1.00  0.00     0.061 A 
HETATM    3  C5  UNL     1      24.907   1.501  51.870  1.00  0.00     0.043 A 
HETATM    4  C6  UNL     1      23.572   1.377  51.460  1.00  0.00     0.138 A 
HETATM    5  N2  UNL     1      23.076   2.085  50.518  1.00  0.00    -0.224 NA
HETATM    6  C13 UNL     1      23.635   3.027  49.756  1.00  0.00     0.236 A 
HETATM    7  N3  UNL     1      24.883   3.119  50.162  1.00  0.00    -0.240 NA
HETATM    8  C14 UNL     1      25.526   2.480  51.092  1.00  0.00     0.089 A 
HETATM    9  C15 UNL     1      26.833   2.817  51.249  1.00  0.00     0.150 A 
HETATM   10  N4  UNL     1      27.464   2.124  52.211  1.00  0.00    -0.247 NA
ENDROOT
BRANCH   4  11
HETATM   11  N1  UNL     1      22.721   0.364  52.214  1.00  0.00    -0.367 N 
HETATM   12  H5  UNL     1      23.035  -0.639  51.807  1.00  0.00     0.161 HD
BRANCH  11  13
HETATM   13  C7  UNL     1      21.849   1.123  53.105  1.00  0.00     0.111 C 
BRANCH  13  14
HETATM   14  C8  UNL     1      21.395   0.143  53.811  1.00  0.00     0.022 C 
BRANCH  14  15
HETATM   15  C9  UNL     1      20.849  -0.979  54.453  1.00  0.00     0.035 C 
BRANCH  15  16
HETATM   16  C10 UNL     1      19.626  -0.988  53.655  1.00  0.00     0.013 C 
BRANCH  16  17
HETATM   17  C11 UNL     1      18.457  -0.911  52.677  1.00  0.00    -0.032 C 
HETATM   18  C12 UNL     1      18.288   0.081  51.706  1.00  0.00     0.046 C 
HETATM   19 BR1  UNL     1      17.805  -2.479  53.592  1.00  0.00    -0.060 Br
ENDBRANCH  16  17
ENDBRANCH  15  16
ENDBRANCH  14  15
ENDBRANCH  13  14
ENDBRANCH  11  13
ENDBRANCH   4  11
BRANCH   1  20
HETATM   20  S1  UNL     1      27.818   0.259  54.205  1.00  0.00     0.198 S 
HETATM   21  O1  UNL     1      28.750   1.194  54.960  1.00  0.00    -0.221 OA
HETATM   22  O2  UNL     1      26.785  -0.306  55.159  1.00  0.00    -0.221 OA
BRANCH  20  23
HETATM   23  C2  UNL     1      28.784  -0.996  53.452  1.00  0.00     0.134 C 
HETATM   24  C1  UNL     1      30.105  -0.748  53.526  1.00  0.00     0.023 C 
ENDBRANCH  20  23
ENDBRANCH   1  20
TORSDOF 8
ENDMDL
MODEL 5
REMARK VINA RESULT:      -6.7      3.376      4.764
REMARK  8 active torsions:
REMARK  status: ('A' for Active; 'I' for Inactive)
REMARK    1  A    between atoms: C2_2  and  S1_3 
REMARK    2  A    between atoms: S1_3  and  C3_6 
REMARK    3  A    between atoms: C6_9  and  N1_10 
REMARK    4  A    between atoms: N1_10  and  C7_11 
REMARK    5  A    between atoms: C7_11  and  C8_12 
REMARK    6  A    between atoms: C8_12  and  C9_13 
REMARK    7  A    between atoms: C9_13  and  C10_14 
REMARK    8  A    between atoms: C10_14  and  C11_15 
ROOT
HETATM    1  C3  UNL     1      27.158   1.081  53.318  1.00  0.00     0.152 A 
HETATM    2  C4  UNL     1      27.002   2.155  52.425  1.00  0.00     0.061 A 
HETATM    3  C5  UNL     1      25.867   2.287  51.752  1.00  0.00     0.043 A 
HETATM    4  C6  UNL     1      25.451   3.255  50.827  1.00  0.00     0.138 A 
HETATM    5  N2  UNL     1      24.297   3.229  50.279  1.00  0.00    -0.224 NA
HETATM    6  C13 UNL     1      23.288   2.368  50.427  1.00  0.00     0.236 A 
HETATM    7  N3  UNL     1      23.705   1.476  51.298  1.00  0.00    -0.240 NA
HETATM    8  C14 UNL     1      24.833   1.366  51.932  1.00  0.00     0.089 A 
HETATM    9  C15 UNL     1      24.936   0.313  52.784  1.00  0.00     0.150 A 
HETATM   10  N4  UNL     1      26.112   0.244  53.429  1.00  0.00    -0.247 NA
ENDROOT
BRANCH   4  11
HETATM   11  N1  UNL     1      26.462   4.342  50.482  1.00  0.00    -0.367 N 
HETATM   12  H5  UNL     1      26.473   5.023  51.379  1.00  0.00     0.161 HD
BRANCH  11  13
HETATM   13  C7  UNL     1      26.949   4.053  49.136  1.00  0.00     0.111 C 
BRANCH  13  14
HETATM   14  C8  UNL     1      27.104   5.266  48.724  1.00  0.00     0.022 C 
BRANCH  14  15
HETATM   15  C9  UNL     1      27.126   6.597  48.280  1.00  0.00     0.035 C 
BRANCH  15  16
HETATM   16  C10 UNL     1      28.521   6.555  47.850  1.00  0.00     0.013 C 
BRANCH  16  17
HETATM   17  C11 UNL     1      30.018   6.428  47.581  1.00  0.00    -0.032 C 
HETATM   18  C12 UNL     1      30.805   5.326  47.929  1.00  0.00     0.046 C 
HETATM   19 BR1  UNL     1      29.866   8.206  46.847  1.00  0.00    -0.060 Br
ENDBRANCH  16  17
ENDBRANCH  15  16
ENDBRANCH  14  15
ENDBRANCH  13  14
ENDBRANCH  11  13
ENDBRANCH   4  11
BRANCH   1  20
HETATM   20  S1  UNL     1      28.646   0.984  54.213  1.00  0.00     0.198 S 
HETATM   21  O1  UNL     1      29.197   2.386  54.414  1.00  0.00    -0.221 OA
HETATM   22  O2  UNL     1      28.308   0.373  55.558  1.00  0.00    -0.221 OA
BRANCH  20  23
HETATM   23  C2  UNL     1      29.836   0.042  53.334  1.00  0.00     0.134 C 
HETATM   24  C1  UNL     1      29.601  -1.283  53.403  1.00  0.00     0.023 C 
ENDBRANCH  20  23
ENDBRANCH   1  20
TORSDOF 8
ENDMDL
MODEL 6
REMARK VINA RESULT:      -6.6      2.224      3.699
REMARK  8 active torsions:
REMARK  status: ('A' for Active; 'I' for Inactive)
REMARK    1  A    between atoms: C2_2  and  S1_3 
REMARK    2  A    between atoms: S1_3  and  C3_6 
REMARK    3  A    between atoms: C6_9  and  N1_10 
REMARK    4  A    between atoms: N1_10  and  C7_11 
REMARK    5  A    between atoms: C7_11  and  C8_12 
REMARK    6  A    between atoms: C8_12  and  C9_13 
REMARK    7  A    between atoms: C9_13  and  C10_14 
REMARK    8  A    between atoms: C10_14  and  C11_15 
ROOT
HETATM    1  C3  UNL     1      24.876   1.580  53.230  1.00  0.00     0.152 A 
HETATM    2  C4  UNL     1      24.679   2.954  53.008  1.00  0.00     0.061 A 
HETATM    3  C5  UNL     1      23.492   3.389  52.608  1.00  0.00     0.043 A 
HETATM    4  C6  UNL     1      23.030   4.684  52.333  1.00  0.00     0.138 A 
HETATM    5  N2  UNL     1      21.829   4.920  51.964  1.00  0.00    -0.224 NA
HETATM    6  C13 UNL     1      20.805   4.087  51.767  1.00  0.00     0.236 A 
HETATM    7  N3  UNL     1      21.267   2.885  52.034  1.00  0.00    -0.240 NA
HETATM    8  C14 UNL     1      22.444   2.488  52.412  1.00  0.00     0.089 A 
HETATM    9  C15 UNL     1      22.585   1.152  52.613  1.00  0.00     0.150 A 
HETATM   10  N4  UNL     1      23.813   0.786  53.016  1.00  0.00    -0.247 NA
ENDROOT
BRANCH   4  11
HETATM   11  N1  UNL     1      24.046   5.811  52.472  1.00  0.00    -0.367 N 
HETATM   12  H5  UNL     1      24.704   5.504  53.333  1.00  0.00     0.161 HD
BRANCH  11  13
HETATM   13  C7  UNL     1      23.711   6.809  51.461  1.00  0.00     0.111 C 
BRANCH  13  14
HETATM   14  C8  UNL     1      24.603   6.500  50.582  1.00  0.00     0.022 C 
BRANCH  14  15
HETATM   15  C9  UNL     1      25.648   6.283  49.670  1.00  0.00     0.035 C 
BRANCH  15  16
HETATM   16  C10 UNL     1      25.292   4.891  49.411  1.00  0.00     0.013 C 
BRANCH  16  17
HETATM   17  C11 UNL     1      24.757   3.470  49.254  1.00  0.00    -0.032 C 
HETATM   18  C12 UNL     1      23.453   3.141  48.871  1.00  0.00     0.046 C 
HETATM   19 BR1  UNL     1      26.513   2.924  49.838  1.00  0.00    -0.060 Br
ENDBRANCH  16  17
ENDBRANCH  15  16
ENDBRANCH  14  15
ENDBRANCH  13  14
ENDBRANCH  11  13
ENDBRANCH   4  11
BRANCH   1  20
HETATM   20  S1  UNL     1      26.436   1.069  53.803  1.00  0.00     0.198 S 
HETATM   21  O1  UNL     1      27.293   2.296  54.071  1.00  0.00    -0.221 OA
HETATM   22  O2  UNL     1      26.202   0.320  55.098  1.00  0.00    -0.221 OA
BRANCH  20  23
HETATM   23  C2  UNL     1      27.244   0.082  52.599  1.00  0.00     0.134 C 
HETATM   24  C1  UNL     1      26.871  -1.211  52.656  1.00  0.00     0.023 C 
ENDBRANCH  20  23
ENDBRANCH   1  20
TORSDOF 8
ENDMDL
MODEL 7
REMARK VINA RESULT:      -6.5      2.621      4.093
REMARK  8 active torsions:
REMARK  status: ('A' for Active; 'I' for Inactive)
REMARK    1  A    between atoms: C2_2  and  S1_3 
REMARK    2  A    between atoms: S1_3  and  C3_6 
REMARK    3  A    between atoms: C6_9  and  N1_10 
REMARK    4  A    between atoms: N1_10  and  C7_11 
REMARK    5  A    between atoms: C7_11  and  C8_12 
REMARK    6  A    between atoms: C8_12  and  C9_13 
REMARK    7  A    between atoms: C9_13  and  C10_14 
REMARK    8  A    between atoms: C10_14  and  C11_15 
ROOT
HETATM    1  C3  UNL     1      25.496   0.457  53.086  1.00  0.00     0.152 A 
HETATM    2  C4  UNL     1      25.800   1.601  52.329  1.00  0.00     0.061 A 
HETATM    3  C5  UNL     1      24.818   2.317  51.799  1.00  0.00     0.043 A 
HETATM    4  C6  UNL     1      24.842   3.488  51.028  1.00  0.00     0.138 A 
HETATM    5  N2  UNL     1      23.777   4.056  50.609  1.00  0.00    -0.224 NA
HETATM    6  C13 UNL     1      22.495   3.723  50.778  1.00  0.00     0.236 A 
HETATM    7  N3  UNL     1      22.504   2.626  51.503  1.00  0.00    -0.240 NA
HETATM    8  C14 UNL     1      23.488   1.939  51.997  1.00  0.00     0.089 A 
HETATM    9  C15 UNL     1      23.144   0.842  52.721  1.00  0.00     0.150 A 
HETATM   10  N4  UNL     1      24.190   0.168  53.224  1.00  0.00    -0.247 NA
ENDROOT
BRANCH   4  11
HETATM   11  N1  UNL     1      26.218   4.047  50.688  1.00  0.00    -0.367 N 
HETATM   12  H5  UNL     1      26.492   4.699  51.565  1.00  0.00     0.161 HD
BRANCH  11  13
HETATM   13  C7  UNL     1      26.570   3.530  49.369  1.00  0.00     0.111 C 
BRANCH  13  14
HETATM   14  C8  UNL     1      27.252   4.538  48.943  1.00  0.00     0.022 C 
BRANCH  14  15
HETATM   15  C9  UNL     1      28.080   5.538  48.408  1.00  0.00     0.035 C 
BRANCH  15  16
HETATM   16  C10 UNL     1      27.029   6.551  48.365  1.00  0.00     0.013 C 
BRANCH  16  17
HETATM   17  C11 UNL     1      25.825   7.486  48.440  1.00  0.00    -0.032 C 
HETATM   18  C12 UNL     1      24.639   7.327  47.716  1.00  0.00     0.046 C 
HETATM   19 BR1  UNL     1      26.909   8.512  49.662  1.00  0.00    -0.060 Br
ENDBRANCH  16  17
ENDBRANCH  15  16
ENDBRANCH  14  15
ENDBRANCH  13  14
ENDBRANCH  11  13
ENDBRANCH   4  11
BRANCH   1  20
HETATM   20  S1  UNL     1      26.818  -0.416  53.799  1.00  0.00     0.198 S 
HETATM   21  O1  UNL     1      26.595  -0.519  55.300  1.00  0.00    -0.221 OA
HETATM   22  O2  UNL     1      26.808  -1.802  53.188  1.00  0.00    -0.221 OA
BRANCH  20  23
HETATM   23  C2  UNL     1      28.334   0.422  53.522  1.00  0.00     0.134 C 
HETATM   24  C1  UNL     1      29.404  -0.384  53.660  1.00  0.00     0.023 C 
ENDBRANCH  20  23
ENDBRANCH   1  20
TORSDOF 8
ENDMDL
MODEL 8
REMARK VINA RESULT:      -6.5      3.711      5.387
REMARK  8 active torsions:
REMARK  status: ('A' for Active; 'I' for Inactive)
REMARK    1  A    between atoms: C2_2  and  S1_3 
REMARK    2  A    between atoms: S1_3  and  C3_6 
REMARK    3  A    between atoms: C6_9  and  N1_10 
REMARK    4  A    between atoms: N1_10  and  C7_11 
REMARK    5  A    between atoms: C7_11  and  C8_12 
REMARK    6  A    between atoms: C8_12  and  C9_13 
REMARK    7  A    between atoms: C9_13  and  C10_14 
REMARK    8  A    between atoms: C10_14  and  C11_15 
ROOT
HETATM    1  C3  UNL     1      23.455   0.640  53.034  1.00  0.00     0.152 A 
HETATM    2  C4  UNL     1      24.279   1.618  52.451  1.00  0.00     0.061 A 
HETATM    3  C5  UNL     1      25.592   1.560  52.630  1.00  0.00     0.043 A 
HETATM    4  C6  UNL     1      26.624   2.383  52.158  1.00  0.00     0.138 A 
HETATM    5  N2  UNL     1      27.854   2.162  52.426  1.00  0.00    -0.224 NA
HETATM    6  C13 UNL     1      28.423   1.194  53.147  1.00  0.00     0.236 A 
HETATM    7  N3  UNL     1      27.433   0.439  53.573  1.00  0.00    -0.240 NA
HETATM    8  C14 UNL     1      26.151   0.531  53.391  1.00  0.00     0.089 A 
HETATM    9  C15 UNL     1      25.397  -0.436  53.974  1.00  0.00     0.150 A 
HETATM   10  N4  UNL     1      24.078  -0.312  53.749  1.00  0.00    -0.247 NA
ENDROOT
BRANCH   4  11
HETATM   11  N1  UNL     1      26.205   3.583  51.319  1.00  0.00    -0.367 N 
HETATM   12  H5  UNL     1      25.708   4.286  52.046  1.00  0.00     0.161 HD
BRANCH  11  13
HETATM   13  C7  UNL     1      26.593   3.292  49.942  1.00  0.00     0.111 C 
BRANCH  13  14
HETATM   14  C8  UNL     1      26.302   4.434  49.415  1.00  0.00     0.022 C 
BRANCH  14  15
HETATM   15  C9  UNL     1      25.875   5.683  48.938  1.00  0.00     0.035 C 
BRANCH  15  16
HETATM   16  C10 UNL     1      27.179   6.054  48.394  1.00  0.00     0.013 C 
BRANCH  16  17
HETATM   17  C11 UNL     1      28.618   6.307  47.955  1.00  0.00    -0.032 C 
HETATM   18  C12 UNL     1      29.681   5.418  48.139  1.00  0.00     0.046 C 
HETATM   19 BR1  UNL     1      27.959   8.022  47.366  1.00  0.00    -0.060 Br
ENDBRANCH  16  17
ENDBRANCH  15  16
ENDBRANCH  14  15
ENDBRANCH  13  14
ENDBRANCH  11  13
ENDBRANCH   4  11
BRANCH   1  20
HETATM   20  S1  UNL     1      21.747   0.734  52.725  1.00  0.00     0.198 S 
HETATM   21  O1  UNL     1      21.359   2.189  52.517  1.00  0.00    -0.221 OA
HETATM   22  O2  UNL     1      21.489  -0.047  51.452  1.00  0.00    -0.221 OA
BRANCH  20  23
HETATM   23  C2  UNL     1      20.836   0.107  54.086  1.00  0.00     0.134 C 
HETATM   24  C1  UNL     1      20.871  -1.238  54.157  1.00  0.00     0.023 C 
ENDBRANCH  20  23
ENDBRANCH   1  20
TORSDOF 8
ENDMDL
MODEL 9
REMARK VINA RESULT:      -6.4      2.032      2.940
REMARK  8 active torsions:
REMARK  status: ('A' for Active; 'I' for Inactive)
REMARK    1  A    between atoms: C2_2  and  S1_3 
REMARK    2  A    between atoms: S1_3  and  C3_6 
REMARK    3  A    between atoms: C6_9  and  N1_10 
REMARK    4  A    between atoms: N1_10  and  C7_11 
REMARK    5  A    between atoms: C7_11  and  C8_12 
REMARK    6  A    between atoms: C8_12  and  C9_13 
REMARK    7  A    between atoms: C9_13  and  C10_14 
REMARK    8  A    between atoms: C10_14  and  C11_15 
ROOT
HETATM    1  C3  UNL     1      24.742   0.353  53.338  1.00  0.00     0.152 A 
HETATM    2  C4  UNL     1      24.346   1.389  52.475  1.00  0.00     0.061 A 
HETATM    3  C5  UNL     1      23.140   1.359  51.925  1.00  0.00     0.043 A 
HETATM    4  C6  UNL     1      22.499   2.255  51.057  1.00  0.00     0.138 A 
HETATM    5  N2  UNL     1      21.309   2.066  50.632  1.00  0.00    -0.224 NA
HETATM    6  C13 UNL     1      20.450   1.074  50.876  1.00  0.00     0.236 A 
HETATM    7  N3  UNL     1      21.076   0.253  51.691  1.00  0.00    -0.240 NA
HETATM    8  C14 UNL     1      22.268   0.304  52.203  1.00  0.00     0.089 A 
HETATM    9  C15 UNL     1      22.604  -0.719  53.030  1.00  0.00     0.150 A 
HETATM   10  N4  UNL     1      23.839  -0.621  53.549  1.00  0.00    -0.247 NA
ENDROOT
BRANCH   4  11
HETATM   11  N1  UNL     1      23.308   3.469  50.618  1.00  0.00    -0.367 N 
HETATM   12  H5  UNL     1      23.298   4.161  51.507  1.00  0.00     0.161 HD
BRANCH  11  13
HETATM   13  C7  UNL     1      23.714   3.230  49.237  1.00  0.00     0.111 C 
BRANCH  13  14
HETATM   14  C8  UNL     1      24.991   3.326  49.392  1.00  0.00     0.022 C 
BRANCH  14  15
HETATM   15  C9  UNL     1      26.353   3.458  49.703  1.00  0.00     0.035 C 
BRANCH  15  16
HETATM   16  C10 UNL     1      26.407   4.885  49.396  1.00  0.00     0.013 C 
BRANCH  16  17
HETATM   17  C11 UNL     1      26.583   6.325  48.923  1.00  0.00    -0.032 C 
HETATM   18  C12 UNL     1      27.500   6.744  47.953  1.00  0.00     0.046 C 
HETATM   19 BR1  UNL     1      25.229   6.745  50.231  1.00  0.00    -0.060 Br
ENDBRANCH  16  17
ENDBRANCH  15  16
ENDBRANCH  14  15
ENDBRANCH  13  14
ENDBRANCH  11  13
ENDBRANCH   4  11
BRANCH   1  20
HETATM   20  S1  UNL     1      26.313   0.468  54.072  1.00  0.00     0.198 S 
HETATM   21  O1  UNL     1      26.525   1.887  54.573  1.00  0.00    -0.221 OA
HETATM   22  O2  UNL     1      26.320  -0.491  55.245  1.00  0.00    -0.221 OA
BRANCH  20  23
HETATM   23  C2  UNL     1      27.570   0.099  52.905  1.00  0.00     0.134 C 
HETATM   24  C1  UNL     1      28.337  -0.941  53.281  1.00  0.00     0.023 C 
ENDBRANCH  20  23
ENDBRANCH   1  20
TORSDOF 8
ENDMDL
