MODEL 1
REMARK VINA RESULT:      -7.1      0.000      0.000
REMARK  6 active torsions:
REMARK  status: ('A' for Active; 'I' for Inactive)
REMARK    1  A    between atoms: N1_2  and  C2_3 
REMARK    2  A    between atoms: C3_4  and  C4_5 
REMARK    3  A    between atoms: C4_5  and  S1_6 
REMARK    4  A    between atoms: C5_8  and  N3_9 
REMARK    5  A    between atoms: N3_9  and  C6_10 
REMARK    6  A    between atoms: C10_14  and  N4_15 
ROOT
HETATM    1  S1  UNL     1      23.081   1.283  51.718  1.00  0.00    -0.077 SA
HETATM    2  N2  UNL     1      24.273   1.102  52.823  1.00  0.00    -0.039 NA
HETATM    3  C5  UNL     1      25.584   1.680  52.700  1.00  0.00     0.732 C 
HETATM    4  N5  UNL     1      26.105   2.432  51.795  1.00  0.00    -0.075 NA
HETATM    5  C12 UNL     1      25.561   2.945  50.613  1.00  0.00     0.133 C 
HETATM    6  C13 UNL     1      24.323   3.037  50.175  1.00  0.00     0.004 C 
HETATM    7  C14 UNL     1      22.942   2.714  50.579  1.00  0.00     0.116 C 
ENDROOT
BRANCH   3   8
HETATM    8  N3  UNL     1      26.478   1.365  53.778  1.00  0.00    -0.188 N 
HETATM    9  H7  UNL     1      26.325   1.825  54.701  1.00  0.00     0.184 HD
BRANCH   8  10
HETATM   10  C6  UNL     1      27.543   0.457  53.630  1.00  0.00     0.051 A 
HETATM   11  C7  UNL     1      28.861   0.919  53.740  1.00  0.00     0.030 A 
HETATM   12  C8  UNL     1      29.962   0.097  53.616  1.00  0.00     0.004 A 
HETATM   13  C9  UNL     1      29.823  -1.235  53.375  1.00  0.00     0.029 A 
HETATM   14  C10 UNL     1      28.557  -1.737  53.260  1.00  0.00     0.027 A 
HETATM   15  C11 UNL     1      27.478  -0.892  53.389  1.00  0.00     0.059 A 
BRANCH  14  16
HETATM   16  N4  UNL     1      28.359  -3.129  53.007  1.00  0.00    -0.399 N 
HETATM   17  H11 UNL     1      28.200  -3.392  52.019  1.00  0.00     0.156 HD
HETATM   18  H12 UNL     1      28.336  -3.981  53.612  1.00  0.00     0.156 HD
ENDBRANCH  14  16
ENDBRANCH   8  10
ENDBRANCH   3   8
BRANCH   1  19
HETATM   19  C4  UNL     1      21.470   0.445  52.090  1.00  0.00     0.116 C 
BRANCH  19  20
HETATM   20  C3  UNL     1      20.908   0.880  53.371  1.00  0.00     0.003 C 
HETATM   21  C2  UNL     1      20.973   0.149  54.444  1.00  0.00     0.112 C 
BRANCH  21  22
HETATM   22  N1  UNL     1      21.567  -1.127  54.553  1.00  0.00    -0.284 NA
HETATM   23  C1  UNL     1      22.688  -1.287  55.155  1.00  0.00     0.148 C 
ENDBRANCH  21  22
ENDBRANCH  19  20
ENDBRANCH   1  19
TORSDOF 6
ENDMDL
MODEL 2
REMARK VINA RESULT:      -6.7      1.905      4.940
REMARK  6 active torsions:
REMARK  status: ('A' for Active; 'I' for Inactive)
REMARK    1  A    between atoms: N1_2  and  C2_3 
REMARK    2  A    between atoms: C3_4  and  C4_5 
REMARK    3  A    between atoms: C4_5  and  S1_6 
REMARK    4  A    between atoms: C5_8  and  N3_9 
REMARK    5  A    between atoms: N3_9  and  C6_10 
REMARK    6  A    between atoms: C10_14  and  N4_15 
ROOT
HETATM    1  S1  UNL     1      24.157   2.162  51.547  1.00  0.00    -0.077 SA
HETATM    2  N2  UNL     1      25.071   1.234  52.537  1.00  0.00    -0.039 NA
HETATM    3  C5  UNL     1      24.579   0.088  53.252  1.00  0.00     0.732 C 
HETATM    4  N5  UNL     1      23.419  -0.468  53.282  1.00  0.00    -0.075 NA
HETATM    5  C12 UNL     1      22.233  -0.137  52.618  1.00  0.00     0.133 C 
HETATM    6  C13 UNL     1      21.980   0.659  51.601  1.00  0.00     0.004 C 
HETATM    7  C14 UNL     1      22.668   1.562  50.659  1.00  0.00     0.116 C 
ENDROOT
BRANCH   3   8
HETATM    8  N3  UNL     1      25.554  -0.559  54.084  1.00  0.00    -0.188 N 
HETATM    9  H7  UNL     1      25.222  -1.233  54.806  1.00  0.00     0.184 HD
BRANCH   8  10
HETATM   10  C6  UNL     1      26.934  -0.317  53.951  1.00  0.00     0.051 A 
HETATM   11  C7  UNL     1      27.742  -1.271  53.318  1.00  0.00     0.030 A 
HETATM   12  C8  UNL     1      29.101  -1.112  53.139  1.00  0.00     0.004 A 
HETATM   13  C9  UNL     1      29.742   0.005  53.578  1.00  0.00     0.029 A 
HETATM   14  C10 UNL     1      29.000   0.968  54.203  1.00  0.00     0.027 A 
HETATM   15  C11 UNL     1      27.646   0.780  54.366  1.00  0.00     0.059 A 
BRANCH  14  16
HETATM   16  N4  UNL     1      29.627   2.159  54.681  1.00  0.00    -0.399 N 
HETATM   17  H11 UNL     1      29.726   2.237  55.708  1.00  0.00     0.156 HD
HETATM   18  H12 UNL     1      30.027   3.005  54.218  1.00  0.00     0.156 HD
ENDBRANCH  14  16
ENDBRANCH   8  10
ENDBRANCH   3   8
BRANCH   1  19
HETATM   19  C4  UNL     1      25.008   3.591  50.729  1.00  0.00     0.116 C 
BRANCH  19  20
HETATM   20  C3  UNL     1      26.279   3.196  50.116  1.00  0.00     0.003 C 
HETATM   21  C2  UNL     1      26.912   3.958  49.273  1.00  0.00     0.112 C 
BRANCH  21  22
HETATM   22  N1  UNL     1      26.503   5.232  48.826  1.00  0.00    -0.284 NA
HETATM   23  C1  UNL     1      27.360   6.143  48.546  1.00  0.00     0.148 C 
ENDBRANCH  21  22
ENDBRANCH  19  20
ENDBRANCH   1  19
TORSDOF 6
ENDMDL
MODEL 3
REMARK VINA RESULT:      -6.7      1.922      4.829
REMARK  6 active torsions:
REMARK  status: ('A' for Active; 'I' for Inactive)
REMARK    1  A    between atoms: N1_2  and  C2_3 
REMARK    2  A    between atoms: C3_4  and  C4_5 
REMARK    3  A    between atoms: C4_5  and  S1_6 
REMARK    4  A    between atoms: C5_8  and  N3_9 
REMARK    5  A    between atoms: N3_9  and  C6_10 
REMARK    6  A    between atoms: C10_14  and  N4_15 
ROOT
HETATM    1  S1  UNL     1      24.501   2.818  50.958  1.00  0.00    -0.077 SA
HETATM    2  N2  UNL     1      25.674   2.485  52.049  1.00  0.00    -0.039 NA
HETATM    3  C5  UNL     1      25.492   1.642  53.199  1.00  0.00     0.732 C 
HETATM    4  N5  UNL     1      24.472   0.979  53.620  1.00  0.00    -0.075 NA
HETATM    5  C12 UNL     1      23.185   0.854  53.089  1.00  0.00     0.133 C 
HETATM    6  C13 UNL     1      22.679   1.152  51.911  1.00  0.00     0.004 C 
HETATM    7  C14 UNL     1      23.078   1.715  50.607  1.00  0.00     0.116 C 
ENDROOT
BRANCH   3   8
HETATM    8  N3  UNL     1      26.653   1.514  54.033  1.00  0.00    -0.188 N 
HETATM    9  H7  UNL     1      26.749   2.151  54.852  1.00  0.00     0.184 HD
BRANCH   8  10
HETATM   10  C6  UNL     1      27.654   0.557  53.784  1.00  0.00     0.051 A 
HETATM   11  C7  UNL     1      29.000   0.945  53.815  1.00  0.00     0.030 A 
HETATM   12  C8  UNL     1      30.044   0.071  53.590  1.00  0.00     0.004 A 
HETATM   13  C9  UNL     1      29.816  -1.243  53.320  1.00  0.00     0.029 A 
HETATM   14  C10 UNL     1      28.520  -1.674  53.279  1.00  0.00     0.027 A 
HETATM   15  C11 UNL     1      27.500  -0.779  53.508  1.00  0.00     0.059 A 
BRANCH  14  16
HETATM   16  N4  UNL     1      28.229  -3.045  53.000  1.00  0.00    -0.399 N 
HETATM   17  H11 UNL     1      28.670  -3.738  53.630  1.00  0.00     0.156 HD
HETATM   18  H12 UNL     1      27.651  -3.532  52.280  1.00  0.00     0.156 HD
ENDBRANCH  14  16
ENDBRANCH   8  10
ENDBRANCH   3   8
BRANCH   1  19
HETATM   19  C4  UNL     1      24.967   3.932  49.551  1.00  0.00     0.116 C 
BRANCH  19  20
HETATM   20  C3  UNL     1      26.399   3.864  49.248  1.00  0.00     0.003 C 
HETATM   21  C2  UNL     1      27.119   4.928  49.047  1.00  0.00     0.112 C 
BRANCH  21  22
HETATM   22  N1  UNL     1      26.667   6.264  49.084  1.00  0.00    -0.284 NA
HETATM   23  C1  UNL     1      26.634   6.982  48.022  1.00  0.00     0.148 C 
ENDBRANCH  21  22
ENDBRANCH  19  20
ENDBRANCH   1  19
TORSDOF 6
ENDMDL
MODEL 4
REMARK VINA RESULT:      -6.7      2.162      3.712
REMARK  6 active torsions:
REMARK  status: ('A' for Active; 'I' for Inactive)
REMARK    1  A    between atoms: N1_2  and  C2_3 
REMARK    2  A    between atoms: C3_4  and  C4_5 
REMARK    3  A    between atoms: C4_5  and  S1_6 
REMARK    4  A    between atoms: C5_8  and  N3_9 
REMARK    5  A    between atoms: N3_9  and  C6_10 
REMARK    6  A    between atoms: C10_14  and  N4_15 
ROOT
HETATM    1  S1  UNL     1      21.600   0.213  52.839  1.00  0.00    -0.077 SA
HETATM    2  N2  UNL     1      23.123   0.520  52.329  1.00  0.00    -0.039 NA
HETATM    3  C5  UNL     1      24.308   0.128  53.041  1.00  0.00     0.732 C 
HETATM    4  N5  UNL     1      24.469  -0.520  54.141  1.00  0.00    -0.075 NA
HETATM    5  C12 UNL     1      23.531  -1.067  55.022  1.00  0.00     0.133 C 
HETATM    6  C13 UNL     1      22.243  -1.312  54.904  1.00  0.00     0.004 C 
HETATM    7  C14 UNL     1      21.143  -1.190  53.929  1.00  0.00     0.116 C 
ENDROOT
BRANCH   3   8
HETATM    8  N3  UNL     1      25.538   0.528  52.418  1.00  0.00    -0.188 N 
HETATM    9  H7  UNL     1      25.505   1.259  51.676  1.00  0.00     0.184 HD
BRANCH   8  10
HETATM   10  C6  UNL     1      26.779  -0.028  52.780  1.00  0.00     0.051 A 
HETATM   11  C7  UNL     1      27.814   0.816  53.206  1.00  0.00     0.030 A 
HETATM   12  C8  UNL     1      29.057   0.354  53.586  1.00  0.00     0.004 A 
HETATM   13  C9  UNL     1      29.351  -0.974  53.566  1.00  0.00     0.029 A 
HETATM   14  C10 UNL     1      28.377  -1.841  53.159  1.00  0.00     0.027 A 
HETATM   15  C11 UNL     1      27.146  -1.350  52.787  1.00  0.00     0.059 A 
BRANCH  14  16
HETATM   16  N4  UNL     1      28.637  -3.245  53.122  1.00  0.00    -0.399 N 
HETATM   17  H11 UNL     1      29.557  -3.545  53.489  1.00  0.00     0.156 HD
HETATM   18  H12 UNL     1      28.093  -4.076  52.798  1.00  0.00     0.156 HD
ENDBRANCH  14  16
ENDBRANCH   8  10
ENDBRANCH   3   8
BRANCH   1  19
HETATM   19  C4  UNL     1      20.223   0.815  51.753  1.00  0.00     0.116 C 
BRANCH  19  20
HETATM   20  C3  UNL     1      20.610   1.998  50.980  1.00  0.00     0.003 C 
HETATM   21  C2  UNL     1      20.013   3.144  51.116  1.00  0.00     0.112 C 
BRANCH  21  22
HETATM   22  N1  UNL     1      18.942   3.432  51.988  1.00  0.00    -0.284 NA
HETATM   23  C1  UNL     1      17.738   3.514  51.556  1.00  0.00     0.148 C 
ENDBRANCH  21  22
ENDBRANCH  19  20
ENDBRANCH   1  19
TORSDOF 6
ENDMDL
MODEL 5
REMARK VINA RESULT:      -6.6      1.776      3.648
REMARK  6 active torsions:
REMARK  status: ('A' for Active; 'I' for Inactive)
REMARK    1  A    between atoms: N1_2  and  C2_3 
REMARK    2  A    between atoms: C3_4  and  C4_5 
REMARK    3  A    between atoms: C4_5  and  S1_6 
REMARK    4  A    between atoms: C5_8  and  N3_9 
REMARK    5  A    between atoms: N3_9  and  C6_10 
REMARK    6  A    between atoms: C10_14  and  N4_15 
ROOT
HETATM    1  S1  UNL     1      21.843   0.938  52.669  1.00  0.00    -0.077 SA
HETATM    2  N2  UNL     1      23.399   1.062  52.180  1.00  0.00    -0.039 NA
HETATM    3  C5  UNL     1      24.505   0.411  52.828  1.00  0.00     0.732 C 
HETATM    4  N5  UNL     1      24.556  -0.377  53.844  1.00  0.00    -0.075 NA
HETATM    5  C12 UNL     1      23.539  -0.870  54.667  1.00  0.00     0.133 C 
HETATM    6  C13 UNL     1      22.229  -0.897  54.536  1.00  0.00     0.004 C 
HETATM    7  C14 UNL     1      21.167  -0.494  53.595  1.00  0.00     0.116 C 
ENDROOT
BRANCH   3   8
HETATM    8  N3  UNL     1      25.786   0.686  52.241  1.00  0.00    -0.188 N 
HETATM    9  H7  UNL     1      25.835   1.364  51.452  1.00  0.00     0.184 HD
BRANCH   8  10
HETATM   10  C6  UNL     1      26.968   0.075  52.700  1.00  0.00     0.051 A 
HETATM   11  C7  UNL     1      27.997   0.872  53.219  1.00  0.00     0.030 A 
HETATM   12  C8  UNL     1      29.184   0.357  53.696  1.00  0.00     0.004 A 
HETATM   13  C9  UNL     1      29.424  -0.983  53.688  1.00  0.00     0.029 A 
HETATM   14  C10 UNL     1      28.452  -1.805  53.192  1.00  0.00     0.027 A 
HETATM   15  C11 UNL     1      27.278  -1.261  52.723  1.00  0.00     0.059 A 
BRANCH  14  16
HETATM   16  N4  UNL     1      28.656  -3.219  53.162  1.00  0.00    -0.399 N 
HETATM   17  H11 UNL     1      29.306  -3.597  53.873  1.00  0.00     0.156 HD
HETATM   18  H12 UNL     1      28.287  -3.993  52.567  1.00  0.00     0.156 HD
ENDBRANCH  14  16
ENDBRANCH   8  10
ENDBRANCH   3   8
BRANCH   1  19
HETATM   19  C4  UNL     1      20.583   1.868  51.677  1.00  0.00     0.116 C 
BRANCH  19  20
HETATM   20  C3  UNL     1      20.124   1.100  50.516  1.00  0.00     0.003 C 
HETATM   21  C2  UNL     1      20.760   1.105  49.382  1.00  0.00     0.112 C 
BRANCH  21  22
HETATM   22  N1  UNL     1      21.943   1.815  49.089  1.00  0.00    -0.284 NA
HETATM   23  C1  UNL     1      22.293   2.049  47.878  1.00  0.00     0.148 C 
ENDBRANCH  21  22
ENDBRANCH  19  20
ENDBRANCH   1  19
TORSDOF 6
ENDMDL
MODEL 6
REMARK VINA RESULT:      -6.5      2.071      6.569
REMARK  6 active torsions:
REMARK  status: ('A' for Active; 'I' for Inactive)
REMARK    1  A    between atoms: N1_2  and  C2_3 
REMARK    2  A    between atoms: C3_4  and  C4_5 
REMARK    3  A    between atoms: C4_5  and  S1_6 
REMARK    4  A    between atoms: C5_8  and  N3_9 
REMARK    5  A    between atoms: N3_9  and  C6_10 
REMARK    6  A    between atoms: C10_14  and  N4_15 
ROOT
HETATM    1  S1  UNL     1      23.461  -0.346  53.827  1.00  0.00    -0.077 SA
HETATM    2  N2  UNL     1      22.922   1.031  53.128  1.00  0.00    -0.039 NA
HETATM    3  C5  UNL     1      21.542   1.299  52.829  1.00  0.00     0.732 C 
HETATM    4  N5  UNL     1      20.474   0.608  53.030  1.00  0.00    -0.075 NA
HETATM    5  C12 UNL     1      20.299  -0.649  53.616  1.00  0.00     0.133 C 
HETATM    6  C13 UNL     1      21.092  -1.402  54.349  1.00  0.00     0.004 C 
HETATM    7  C14 UNL     1      22.448  -1.406  54.929  1.00  0.00     0.116 C 
ENDROOT
BRANCH   3   8
HETATM    8  N3  UNL     1      21.304   2.562  52.190  1.00  0.00    -0.188 N 
HETATM    9  H7  UNL     1      20.324   2.909  52.125  1.00  0.00     0.184 HD
BRANCH   8  10
HETATM   10  C6  UNL     1      22.348   3.343  51.659  1.00  0.00     0.051 A 
HETATM   11  C7  UNL     1      22.999   2.920  50.492  1.00  0.00     0.030 A 
HETATM   12  C8  UNL     1      24.024   3.627  49.900  1.00  0.00     0.004 A 
HETATM   13  C9  UNL     1      24.469   4.799  50.431  1.00  0.00     0.029 A 
HETATM   14  C10 UNL     1      23.868   5.256  51.569  1.00  0.00     0.027 A 
HETATM   15  C11 UNL     1      22.846   4.529  52.135  1.00  0.00     0.059 A 
BRANCH  14  16
HETATM   16  N4  UNL     1      24.299   6.482  52.164  1.00  0.00    -0.399 N 
HETATM   17  H11 UNL     1      23.786   6.778  53.012  1.00  0.00     0.156 HD
HETATM   18  H12 UNL     1      25.042   7.178  51.934  1.00  0.00     0.156 HD
ENDBRANCH  14  16
ENDBRANCH   8  10
ENDBRANCH   3   8
BRANCH   1  19
HETATM   19  C4  UNL     1      25.288  -0.469  54.119  1.00  0.00     0.116 C 
BRANCH  19  20
HETATM   20  C3  UNL     1      26.042  -0.522  52.864  1.00  0.00     0.003 C 
HETATM   21  C2  UNL     1      27.322  -0.746  52.830  1.00  0.00     0.112 C 
BRANCH  21  22
HETATM   22  N1  UNL     1      28.163  -0.966  53.942  1.00  0.00    -0.284 NA
HETATM   23  C1  UNL     1      28.983  -0.066  54.342  1.00  0.00     0.148 C 
ENDBRANCH  21  22
ENDBRANCH  19  20
ENDBRANCH   1  19
TORSDOF 6
ENDMDL
MODEL 7
REMARK VINA RESULT:      -6.5      2.021      5.848
REMARK  6 active torsions:
REMARK  status: ('A' for Active; 'I' for Inactive)
REMARK    1  A    between atoms: N1_2  and  C2_3 
REMARK    2  A    between atoms: C3_4  and  C4_5 
REMARK    3  A    between atoms: C4_5  and  S1_6 
REMARK    4  A    between atoms: C5_8  and  N3_9 
REMARK    5  A    between atoms: N3_9  and  C6_10 
REMARK    6  A    between atoms: C10_14  and  N4_15 
ROOT
HETATM    1  S1  UNL     1      27.043   1.782  52.555  1.00  0.00    -0.077 SA
HETATM    2  N2  UNL     1      25.981   0.717  53.200  1.00  0.00    -0.039 NA
HETATM    3  C5  UNL     1      26.301  -0.201  54.258  1.00  0.00     0.732 C 
HETATM    4  N5  UNL     1      27.385  -0.395  54.924  1.00  0.00    -0.075 NA
HETATM    5  C12 UNL     1      28.631   0.235  54.839  1.00  0.00     0.133 C 
HETATM    6  C13 UNL     1      29.022   1.348  54.256  1.00  0.00     0.004 C 
HETATM    7  C14 UNL     1      28.490   2.464  53.452  1.00  0.00     0.116 C 
ENDROOT
BRANCH   3   8
HETATM    8  N3  UNL     1      25.219  -1.062  54.647  1.00  0.00    -0.188 N 
HETATM    9  H7  UNL     1      25.434  -1.893  55.238  1.00  0.00     0.184 HD
BRANCH   8  10
HETATM   10  C6  UNL     1      23.888  -0.815  54.264  1.00  0.00     0.051 A 
HETATM   11  C7  UNL     1      22.854  -1.040  55.182  1.00  0.00     0.030 A 
HETATM   12  C8  UNL     1      21.524  -0.817  54.892  1.00  0.00     0.004 A 
HETATM   13  C9  UNL     1      21.137  -0.358  53.671  1.00  0.00     0.029 A 
HETATM   14  C10 UNL     1      22.107  -0.121  52.738  1.00  0.00     0.027 A 
HETATM   15  C11 UNL     1      23.426  -0.352  53.058  1.00  0.00     0.059 A 
BRANCH  14  16
HETATM   16  N4  UNL     1      21.751   0.363  51.442  1.00  0.00    -0.399 N 
HETATM   17  H11 UNL     1      22.283  -0.036  50.649  1.00  0.00     0.156 HD
HETATM   18  H12 UNL     1      21.050   1.053  51.092  1.00  0.00     0.156 HD
ENDBRANCH  14  16
ENDBRANCH   8  10
ENDBRANCH   3   8
BRANCH   1  19
HETATM   19  C4  UNL     1      26.406   2.871  51.196  1.00  0.00     0.116 C 
BRANCH  19  20
HETATM   20  C3  UNL     1      25.050   2.498  50.784  1.00  0.00     0.003 C 
HETATM   21  C2  UNL     1      23.999   3.159  51.169  1.00  0.00     0.112 C 
BRANCH  21  22
HETATM   22  N1  UNL     1      23.985   4.294  52.008  1.00  0.00    -0.284 NA
HETATM   23  C1  UNL     1      23.697   5.455  51.547  1.00  0.00     0.148 C 
ENDBRANCH  21  22
ENDBRANCH  19  20
ENDBRANCH   1  19
TORSDOF 6
ENDMDL
MODEL 8
REMARK VINA RESULT:      -6.3      1.474      4.390
REMARK  6 active torsions:
REMARK  status: ('A' for Active; 'I' for Inactive)
REMARK    1  A    between atoms: N1_2  and  C2_3 
REMARK    2  A    between atoms: C3_4  and  C4_5 
REMARK    3  A    between atoms: C4_5  and  S1_6 
REMARK    4  A    between atoms: C5_8  and  N3_9 
REMARK    5  A    between atoms: N3_9  and  C6_10 
REMARK    6  A    between atoms: C10_14  and  N4_15 
ROOT
HETATM    1  S1  UNL     1      22.490   1.439  52.643  1.00  0.00    -0.077 SA
HETATM    2  N2  UNL     1      23.846   0.545  52.452  1.00  0.00    -0.039 NA
HETATM    3  C5  UNL     1      24.216  -0.553  53.303  1.00  0.00     0.732 C 
HETATM    4  N5  UNL     1      23.630  -1.083  54.319  1.00  0.00    -0.075 NA
HETATM    5  C12 UNL     1      22.421  -0.761  54.942  1.00  0.00     0.133 C 
HETATM    6  C13 UNL     1      21.404  -0.013  54.569  1.00  0.00     0.004 C 
HETATM    7  C14 UNL     1      20.957   0.826  53.442  1.00  0.00     0.116 C 
ENDROOT
BRANCH   3   8
HETATM    8  N3  UNL     1      25.464  -1.177  52.963  1.00  0.00    -0.188 N 
HETATM    9  H7  UNL     1      25.443  -2.119  52.518  1.00  0.00     0.184 HD
BRANCH   8  10
HETATM   10  C6  UNL     1      26.704  -0.556  53.204  1.00  0.00     0.051 A 
HETATM   11  C7  UNL     1      27.872  -1.330  53.203  1.00  0.00     0.030 A 
HETATM   12  C8  UNL     1      29.128  -0.803  53.423  1.00  0.00     0.004 A 
HETATM   13  C9  UNL     1      29.302   0.527  53.658  1.00  0.00     0.029 A 
HETATM   14  C10 UNL     1      28.194   1.326  53.669  1.00  0.00     0.027 A 
HETATM   15  C11 UNL     1      26.955   0.771  53.446  1.00  0.00     0.059 A 
BRANCH  14  16
HETATM   16  N4  UNL     1      28.325   2.728  53.911  1.00  0.00    -0.399 N 
HETATM   17  H11 UNL     1      28.642   2.996  54.859  1.00  0.00     0.156 HD
HETATM   18  H12 UNL     1      28.170   3.583  53.330  1.00  0.00     0.156 HD
ENDBRANCH  14  16
ENDBRANCH   8  10
ENDBRANCH   3   8
BRANCH   1  19
HETATM   19  C4  UNL     1      22.219   2.808  51.422  1.00  0.00     0.116 C 
BRANCH  19  20
HETATM   20  C3  UNL     1      22.820   2.508  50.119  1.00  0.00     0.003 C 
HETATM   21  C2  UNL     1      23.889   3.112  49.691  1.00  0.00     0.112 C 
BRANCH  21  22
HETATM   22  N1  UNL     1      24.617   4.109  50.373  1.00  0.00    -0.284 NA
HETATM   23  C1  UNL     1      25.779   4.473  49.970  1.00  0.00     0.148 C 
ENDBRANCH  21  22
ENDBRANCH  19  20
ENDBRANCH   1  19
TORSDOF 6
ENDMDL
MODEL 9
REMARK VINA RESULT:      -6.3      3.100      4.442
REMARK  6 active torsions:
REMARK  status: ('A' for Active; 'I' for Inactive)
REMARK    1  A    between atoms: N1_2  and  C2_3 
REMARK    2  A    between atoms: C3_4  and  C4_5 
REMARK    3  A    between atoms: C4_5  and  S1_6 
REMARK    4  A    between atoms: C5_8  and  N3_9 
REMARK    5  A    between atoms: N3_9  and  C6_10 
REMARK    6  A    between atoms: C10_14  and  N4_15 
ROOT
HETATM    1  S1  UNL     1      24.672   5.705  50.299  1.00  0.00    -0.077 SA
HETATM    2  N2  UNL     1      24.753   4.203  50.942  1.00  0.00    -0.039 NA
HETATM    3  C5  UNL     1      25.746   3.225  50.588  1.00  0.00     0.732 C 
HETATM    4  N5  UNL     1      26.742   3.274  49.774  1.00  0.00    -0.075 NA
HETATM    5  C12 UNL     1      27.197   4.309  48.953  1.00  0.00     0.133 C 
HETATM    6  C13 UNL     1      26.929   5.598  48.921  1.00  0.00     0.004 C 
HETATM    7  C14 UNL     1      26.114   6.611  49.617  1.00  0.00     0.116 C 
ENDROOT
BRANCH   3   8
HETATM    8  N3  UNL     1      25.606   1.964  51.260  1.00  0.00    -0.188 N 
HETATM    9  H7  UNL     1      24.719   1.431  51.137  1.00  0.00     0.184 HD
BRANCH   8  10
HETATM   10  C6  UNL     1      26.625   1.427  52.068  1.00  0.00     0.051 A 
HETATM   11  C7  UNL     1      26.763   0.036  52.168  1.00  0.00     0.030 A 
HETATM   12  C8  UNL     1      27.738  -0.574  52.931  1.00  0.00     0.004 A 
HETATM   13  C9  UNL     1      28.637   0.160  53.642  1.00  0.00     0.029 A 
HETATM   14  C10 UNL     1      28.547   1.522  53.578  1.00  0.00     0.027 A 
HETATM   15  C11 UNL     1      27.564   2.101  52.808  1.00  0.00     0.059 A 
BRANCH  14  16
HETATM   16  N4  UNL     1      29.468   2.335  54.306  1.00  0.00    -0.399 N 
HETATM   17  H11 UNL     1      30.392   1.910  54.500  1.00  0.00     0.156 HD
HETATM   18  H12 UNL     1      29.427   3.300  54.704  1.00  0.00     0.156 HD
ENDBRANCH  14  16
ENDBRANCH   8  10
ENDBRANCH   3   8
BRANCH   1  19
HETATM   19  C4  UNL     1      23.304   6.797  50.909  1.00  0.00     0.116 C 
BRANCH  19  20
HETATM   20  C3  UNL     1      22.045   6.545  50.204  1.00  0.00     0.003 C 
HETATM   21  C2  UNL     1      21.176   5.673  50.622  1.00  0.00     0.112 C 
BRANCH  21  22
HETATM   22  N1  UNL     1      21.291   4.861  51.770  1.00  0.00    -0.284 NA
HETATM   23  C1  UNL     1      21.205   3.584  51.690  1.00  0.00     0.148 C 
ENDBRANCH  21  22
ENDBRANCH  19  20
ENDBRANCH   1  19
TORSDOF 6
ENDMDL
