MODEL 1
REMARK VINA RESULT:      -8.3      0.000      0.000
REMARK  2 active torsions:
REMARK  status: ('A' for Active; 'I' for Inactive)
REMARK    1  A    between atoms: N1_1  and  N2_2 
REMARK    2  A    between atoms: C3_7  and  C4_8 
ROOT
HETATM    1  N2  UNL     1      26.862   2.093  51.257  1.00  0.00    -0.216 NA
HETATM    2  C1  UNL     1      25.465   2.313  51.043  1.00  0.00     0.234 C 
HETATM    3  N3  UNL     1      24.968   3.636  51.252  1.00  0.00    -0.256 NA
HETATM    4  C2  UNL     1      23.915   3.776  52.020  1.00  0.00     0.229 C 
HETATM    5  N4  UNL     1      23.126   2.844  52.738  1.00  0.00    -0.241 NA
HETATM    6  C3  UNL     1      23.463   1.591  52.681  1.00  0.00     0.078 C 
HETATM    7  C10 UNL     1      24.777   1.401  52.025  1.00  0.00     0.016 C 
HETATM    8  C11 UNL     1      25.638   0.385  52.263  1.00  0.00    -0.043 C 
HETATM    9  C12 UNL     1      26.518  -0.763  52.580  1.00  0.00     0.034 A 
HETATM   10  C13 UNL     1      27.404  -0.800  53.702  1.00  0.00     0.012 A 
HETATM   11  C14 UNL     1      27.610   0.265  52.774  1.00  0.00     0.004 A 
HETATM   12  C15 UNL     1      26.937   0.653  51.523  1.00  0.00     0.117 C 
ENDROOT
BRANCH   6  13
HETATM   13  C4  UNL     1      22.788   0.490  53.319  1.00  0.00    -0.005 A 
HETATM   14  C5  UNL     1      23.137  -0.472  54.201  1.00  0.00     0.014 A 
HETATM   15  C6  UNL     1      22.290  -1.433  54.700  1.00  0.00     0.003 A 
HETATM   16  C7  UNL     1      20.979  -1.465  54.304  1.00  0.00     0.024 A 
HETATM   17  C8  UNL     1      20.558  -0.519  53.410  1.00  0.00     0.035 A 
HETATM   18 CL1  UNL     1      18.876  -0.603  52.935  1.00  0.00    -0.084 Cl
HETATM   19  C9  UNL     1      21.434   0.418  52.940  1.00  0.00     0.037 A 
ENDBRANCH   6  13
BRANCH   1  20
HETATM   20  N1  UNL     1      27.400   2.869  52.260  1.00  0.00    -0.266 NA
HETATM   21  H1  UNL     1      27.371   3.872  51.971  1.00  0.00     0.137 HD
HETATM   22  H2  UNL     1      28.343   2.577  52.593  1.00  0.00     0.137 HD
ENDBRANCH   1  20
TORSDOF 2
ENDMDL
MODEL 2
REMARK VINA RESULT:      -8.3      3.649      6.063
REMARK  2 active torsions:
REMARK  status: ('A' for Active; 'I' for Inactive)
REMARK    1  A    between atoms: N1_1  and  N2_2 
REMARK    2  A    between atoms: C3_7  and  C4_8 
ROOT
HETATM    1  N2  UNL     1      21.374  -0.313  53.254  1.00  0.00    -0.216 NA
HETATM    2  C1  UNL     1      22.464  -1.159  53.632  1.00  0.00     0.234 C 
HETATM    3  N3  UNL     1      22.407  -1.768  54.923  1.00  0.00    -0.256 NA
HETATM    4  C2  UNL     1      23.458  -1.649  55.698  1.00  0.00     0.229 C 
HETATM    5  N4  UNL     1      24.705  -0.999  55.524  1.00  0.00    -0.241 NA
HETATM    6  C3  UNL     1      24.909  -0.365  54.409  1.00  0.00     0.078 C 
HETATM    7  C10 UNL     1      23.675  -0.264  53.596  1.00  0.00     0.016 C 
HETATM    8  C11 UNL     1      23.390   0.722  52.715  1.00  0.00    -0.043 C 
HETATM    9  C12 UNL     1      23.161   1.835  51.766  1.00  0.00     0.034 A 
HETATM   10  C13 UNL     1      22.659   3.118  52.152  1.00  0.00     0.012 A 
HETATM   11  C14 UNL     1      21.822   2.001  52.450  1.00  0.00     0.004 A 
HETATM   12  C15 UNL     1      21.961   0.552  52.227  1.00  0.00     0.117 C 
ENDROOT
BRANCH   6  13
HETATM   13  C4  UNL     1      26.105   0.340  54.029  1.00  0.00    -0.005 A 
HETATM   14  C5  UNL     1      26.437   1.636  53.831  1.00  0.00     0.014 A 
HETATM   15  C6  UNL     1      27.688   2.087  53.483  1.00  0.00     0.003 A 
HETATM   16  C7  UNL     1      28.715   1.198  53.309  1.00  0.00     0.024 A 
HETATM   17  C8  UNL     1      28.448  -0.132  53.493  1.00  0.00     0.035 A 
HETATM   18 CL1  UNL     1      29.793  -1.226  53.259  1.00  0.00    -0.084 Cl
HETATM   19  C9  UNL     1      27.190  -0.536  53.840  1.00  0.00     0.037 A 
ENDBRANCH   6  13
BRANCH   1  20
HETATM   20  N1  UNL     1      20.817   0.379  54.306  1.00  0.00    -0.266 NA
HETATM   21  H1  UNL     1      21.560   0.594  55.009  1.00  0.00     0.137 HD
HETATM   22  H2  UNL     1      19.977  -0.063  54.738  1.00  0.00     0.137 HD
ENDBRANCH   1  20
TORSDOF 2
ENDMDL
MODEL 3
REMARK VINA RESULT:      -8.3      3.293      5.630
REMARK  2 active torsions:
REMARK  status: ('A' for Active; 'I' for Inactive)
REMARK    1  A    between atoms: N1_1  and  N2_2 
REMARK    2  A    between atoms: C3_7  and  C4_8 
ROOT
HETATM    1  N2  UNL     1      26.087  -1.012  54.139  1.00  0.00    -0.216 NA
HETATM    2  C1  UNL     1      27.003  -0.433  53.206  1.00  0.00     0.234 C 
HETATM    3  N3  UNL     1      28.202   0.141  53.732  1.00  0.00    -0.256 NA
HETATM    4  C2  UNL     1      28.508   1.360  53.357  1.00  0.00     0.229 C 
HETATM    5  N4  UNL     1      27.862   2.287  52.503  1.00  0.00    -0.241 NA
HETATM    6  C3  UNL     1      26.735   1.932  51.963  1.00  0.00     0.078 C 
HETATM    7  C10 UNL     1      26.222   0.666  52.533  1.00  0.00     0.016 C 
HETATM    8  C11 UNL     1      24.920   0.308  52.615  1.00  0.00    -0.043 C 
HETATM    9  C12 UNL     1      23.474  -0.008  52.661  1.00  0.00     0.034 A 
HETATM   10  C13 UNL     1      22.588   0.466  53.679  1.00  0.00     0.012 A 
HETATM   11  C14 UNL     1      23.696  -0.316  54.125  1.00  0.00     0.004 A 
HETATM   12  C15 UNL     1      24.809  -0.975  53.421  1.00  0.00     0.117 C 
ENDROOT
BRANCH   6  13
HETATM   13  C4  UNL     1      25.933   2.714  51.057  1.00  0.00    -0.005 A 
HETATM   14  C5  UNL     1      24.613   2.818  50.784  1.00  0.00     0.014 A 
HETATM   15  C6  UNL     1      24.062   3.678  49.864  1.00  0.00     0.003 A 
HETATM   16  C7  UNL     1      24.866   4.515  49.138  1.00  0.00     0.024 A 
HETATM   17  C8  UNL     1      26.215   4.461  49.364  1.00  0.00     0.035 A 
HETATM   18 CL1  UNL     1      27.198   5.551  48.411  1.00  0.00    -0.084 Cl
HETATM   19  C9  UNL     1      26.720   3.592  50.288  1.00  0.00     0.037 A 
ENDBRANCH   6  13
BRANCH   1  20
HETATM   20  N1  UNL     1      26.054  -0.373  55.358  1.00  0.00    -0.266 NA
HETATM   21  H1  UNL     1      25.704   0.603  55.226  1.00  0.00     0.137 HD
HETATM   22  H2  UNL     1      26.941  -0.407  55.905  1.00  0.00     0.137 HD
ENDBRANCH   1  20
TORSDOF 2
ENDMDL
MODEL 4
REMARK VINA RESULT:      -8.2      2.415      4.989
REMARK  2 active torsions:
REMARK  status: ('A' for Active; 'I' for Inactive)
REMARK    1  A    between atoms: N1_1  and  N2_2 
REMARK    2  A    between atoms: C3_7  and  C4_8 
ROOT
HETATM    1  N2  UNL     1      22.787   2.728  51.409  1.00  0.00    -0.216 NA
HETATM    2  C1  UNL     1      24.041   3.415  51.449  1.00  0.00     0.234 C 
HETATM    3  N3  UNL     1      24.563   3.902  50.211  1.00  0.00    -0.256 NA
HETATM    4  C2  UNL     1      25.804   3.600  49.913  1.00  0.00     0.229 C 
HETATM    5  N4  UNL     1      26.790   2.841  50.589  1.00  0.00    -0.241 NA
HETATM    6  C3  UNL     1      26.467   2.297  51.724  1.00  0.00     0.078 C 
HETATM    7  C10 UNL     1      25.015   2.404  51.994  1.00  0.00     0.016 C 
HETATM    8  C11 UNL     1      24.286   1.541  52.740  1.00  0.00    -0.043 C 
HETATM    9  C12 UNL     1      23.565   0.553  53.573  1.00  0.00     0.034 A 
HETATM   10  C13 UNL     1      23.082  -0.700  53.082  1.00  0.00     0.012 A 
HETATM   11  C14 UNL     1      22.579   0.467  52.430  1.00  0.00     0.004 A 
HETATM   12  C15 UNL     1      22.816   1.907  52.623  1.00  0.00     0.117 C 
ENDROOT
BRANCH   6  13
HETATM   13  C4  UNL     1      27.322   1.508  52.572  1.00  0.00    -0.005 A 
HETATM   14  C5  UNL     1      28.217   1.773  53.550  1.00  0.00     0.014 A 
HETATM   15  C6  UNL     1      28.919   0.825  54.257  1.00  0.00     0.003 A 
HETATM   16  C7  UNL     1      28.736  -0.506  53.990  1.00  0.00     0.024 A 
HETATM   17  C8  UNL     1      27.843  -0.845  53.010  1.00  0.00     0.035 A 
HETATM   18 CL1  UNL     1      27.646  -2.557  52.708  1.00  0.00    -0.084 Cl
HETATM   19  C9  UNL     1      27.167   0.130  52.333  1.00  0.00     0.037 A 
ENDBRANCH   6  13
BRANCH   1  20
HETATM   20  N1  UNL     1      22.585   2.003  50.256  1.00  0.00    -0.266 NA
HETATM   21  H1  UNL     1      23.397   1.363  50.106  1.00  0.00     0.137 HD
HETATM   22  H2  UNL     1      22.359   2.565  49.408  1.00  0.00     0.137 HD
ENDBRANCH   1  20
TORSDOF 2
ENDMDL
MODEL 5
REMARK VINA RESULT:      -8.1      2.786      5.015
REMARK  2 active torsions:
REMARK  status: ('A' for Active; 'I' for Inactive)
REMARK    1  A    between atoms: N1_1  and  N2_2 
REMARK    2  A    between atoms: C3_7  and  C4_8 
ROOT
HETATM    1  N2  UNL     1      24.910  -1.557  54.723  1.00  0.00    -0.216 NA
HETATM    2  C1  UNL     1      25.773  -0.723  53.945  1.00  0.00     0.234 C 
HETATM    3  N3  UNL     1      26.978  -0.265  54.563  1.00  0.00    -0.256 NA
HETATM    4  C2  UNL     1      27.238   1.018  54.510  1.00  0.00     0.229 C 
HETATM    5  N4  UNL     1      26.536   2.113  53.950  1.00  0.00    -0.241 NA
HETATM    6  C3  UNL     1      25.397   1.873  53.373  1.00  0.00     0.078 C 
HETATM    7  C10 UNL     1      24.939   0.485  53.609  1.00  0.00     0.016 C 
HETATM    8  C11 UNL     1      23.651   0.073  53.637  1.00  0.00    -0.043 C 
HETATM    9  C12 UNL     1      22.216  -0.293  53.645  1.00  0.00     0.034 A 
HETATM   10  C13 UNL     1      21.361  -0.131  54.779  1.00  0.00     0.012 A 
HETATM   11  C14 UNL     1      22.504  -0.964  54.969  1.00  0.00     0.004 A 
HETATM   12  C15 UNL     1      23.604  -1.378  54.082  1.00  0.00     0.117 C 
ENDROOT
BRANCH   6  13
HETATM   13  C4  UNL     1      24.540   2.836  52.729  1.00  0.00    -0.005 A 
HETATM   14  C5  UNL     1      23.871   3.942  53.122  1.00  0.00     0.014 A 
HETATM   15  C6  UNL     1      23.111   4.740  52.299  1.00  0.00     0.003 A 
HETATM   16  C7  UNL     1      22.987   4.435  50.970  1.00  0.00     0.024 A 
HETATM   17  C8  UNL     1      23.640   3.325  50.505  1.00  0.00     0.035 A 
HETATM   18 CL1  UNL     1      23.449   2.979  48.800  1.00  0.00    -0.084 Cl
HETATM   19  C9  UNL     1      24.385   2.562  51.358  1.00  0.00     0.037 A 
ENDBRANCH   6  13
BRANCH   1  20
HETATM   20  N1  UNL     1      24.911  -1.259  56.068  1.00  0.00    -0.266 NA
HETATM   21  H1  UNL     1      23.944  -1.375  56.446  1.00  0.00     0.137 HD
HETATM   22  H2  UNL     1      25.330  -0.339  56.321  1.00  0.00     0.137 HD
ENDBRANCH   1  20
TORSDOF 2
ENDMDL
MODEL 6
REMARK VINA RESULT:      -7.5      2.870      5.358
REMARK  2 active torsions:
REMARK  status: ('A' for Active; 'I' for Inactive)
REMARK    1  A    between atoms: N1_1  and  N2_2 
REMARK    2  A    between atoms: C3_7  and  C4_8 
ROOT
HETATM    1  N2  UNL     1      20.543   1.828  52.079  1.00  0.00    -0.216 NA
HETATM    2  C1  UNL     1      21.721   2.582  51.777  1.00  0.00     0.234 C 
HETATM    3  N3  UNL     1      21.917   2.982  50.419  1.00  0.00    -0.256 NA
HETATM    4  C2  UNL     1      23.078   2.720  49.870  1.00  0.00     0.229 C 
HETATM    5  N4  UNL     1      24.243   2.080  50.358  1.00  0.00    -0.241 NA
HETATM    6  C3  UNL     1      24.222   1.625  51.574  1.00  0.00     0.078 C 
HETATM    7  C10 UNL     1      22.864   1.678  52.161  1.00  0.00     0.016 C 
HETATM    8  C11 UNL     1      22.384   0.849  53.117  1.00  0.00    -0.043 C 
HETATM    9  C12 UNL     1      21.942  -0.096  54.167  1.00  0.00     0.034 A 
HETATM   10  C13 UNL     1      21.453  -1.413  53.897  1.00  0.00     0.012 A 
HETATM   11  C14 UNL     1      20.734  -0.339  53.290  1.00  0.00     0.004 A 
HETATM   12  C15 UNL     1      20.903   1.123  53.313  1.00  0.00     0.117 C 
ENDROOT
BRANCH   6  13
HETATM   13  C4  UNL     1      25.300   0.963  52.262  1.00  0.00    -0.005 A 
HETATM   14  C5  UNL     1      25.572  -0.311  52.626  1.00  0.00     0.014 A 
HETATM   15  C6  UNL     1      26.712  -0.720  53.276  1.00  0.00     0.003 A 
HETATM   16  C7  UNL     1      27.680   0.191  53.607  1.00  0.00     0.024 A 
HETATM   17  C8  UNL     1      27.468   1.499  53.268  1.00  0.00     0.035 A 
HETATM   18 CL1  UNL     1      28.734   2.623  53.712  1.00  0.00    -0.084 Cl
HETATM   19  C9  UNL     1      26.321   1.862  52.622  1.00  0.00     0.037 A 
ENDBRANCH   6  13
BRANCH   1  20
HETATM   20  N1  UNL     1      20.142   0.991  51.061  1.00  0.00    -0.266 NA
HETATM   21  H1  UNL     1      19.886   0.061  51.462  1.00  0.00     0.137 HD
HETATM   22  H2  UNL     1      20.804   0.912  50.261  1.00  0.00     0.137 HD
ENDBRANCH   1  20
TORSDOF 2
ENDMDL
MODEL 7
REMARK VINA RESULT:      -7.4      3.157      5.894
REMARK  2 active torsions:
REMARK  status: ('A' for Active; 'I' for Inactive)
REMARK    1  A    between atoms: N1_1  and  N2_2 
REMARK    2  A    between atoms: C3_7  and  C4_8 
ROOT
HETATM    1  N2  UNL     1      22.900  -1.130  53.761  1.00  0.00    -0.216 NA
HETATM    2  C1  UNL     1      24.208  -0.740  53.333  1.00  0.00     0.234 C 
HETATM    3  N3  UNL     1      25.247  -0.736  54.314  1.00  0.00    -0.256 NA
HETATM    4  C2  UNL     1      25.981   0.346  54.417  1.00  0.00     0.229 C 
HETATM    5  N4  UNL     1      25.955   1.587  53.734  1.00  0.00    -0.241 NA
HETATM    6  C3  UNL     1      25.043   1.761  52.825  1.00  0.00     0.078 C 
HETATM    7  C10 UNL     1      24.042   0.670  52.829  1.00  0.00     0.016 C 
HETATM    8  C11 UNL     1      22.751   0.782  52.440  1.00  0.00    -0.043 C 
HETATM    9  C12 UNL     1      21.357   0.991  51.990  1.00  0.00     0.034 A 
HETATM   10  C13 UNL     1      20.328   1.540  52.818  1.00  0.00     0.012 A 
HETATM   11  C14 UNL     1      20.951   0.348  53.297  1.00  0.00     0.004 A 
HETATM   12  C15 UNL     1      22.022  -0.510  52.765  1.00  0.00     0.117 C 
ENDROOT
BRANCH   6  13
HETATM   13  C4  UNL     1      24.857   2.933  52.009  1.00  0.00    -0.005 A 
HETATM   14  C5  UNL     1      23.962   3.945  51.967  1.00  0.00     0.014 A 
HETATM   15  C6  UNL     1      24.001   4.999  51.086  1.00  0.00     0.003 A 
HETATM   16  C7  UNL     1      25.002   5.079  50.154  1.00  0.00     0.024 A 
HETATM   17  C8  UNL     1      25.944   4.086  50.141  1.00  0.00     0.035 A 
HETATM   18 CL1  UNL     1      27.201   4.234  48.933  1.00  0.00    -0.084 Cl
HETATM   19  C9  UNL     1      25.866   3.057  51.036  1.00  0.00     0.037 A 
ENDBRANCH   6  13
BRANCH   1  20
HETATM   20  N1  UNL     1      22.608  -0.768  55.057  1.00  0.00    -0.266 NA
HETATM   21  H1  UNL     1      21.579  -0.861  55.216  1.00  0.00     0.137 HD
HETATM   22  H2  UNL     1      22.974   0.161  55.355  1.00  0.00     0.137 HD
ENDBRANCH   1  20
TORSDOF 2
ENDMDL
MODEL 8
REMARK VINA RESULT:      -7.4      3.248      5.380
REMARK  2 active torsions:
REMARK  status: ('A' for Active; 'I' for Inactive)
REMARK    1  A    between atoms: N1_1  and  N2_2 
REMARK    2  A    between atoms: C3_7  and  C4_8 
ROOT
HETATM    1  N2  UNL     1      21.013   1.460  51.882  1.00  0.00    -0.216 NA
HETATM    2  C1  UNL     1      21.419   0.181  52.374  1.00  0.00     0.234 C 
HETATM    3  N3  UNL     1      20.865  -0.252  53.619  1.00  0.00    -0.256 NA
HETATM    4  C2  UNL     1      21.695  -0.678  54.539  1.00  0.00     0.229 C 
HETATM    5  N4  UNL     1      23.107  -0.798  54.571  1.00  0.00    -0.241 NA
HETATM    6  C3  UNL     1      23.772  -0.415  53.523  1.00  0.00     0.078 C 
HETATM    7  C10 UNL     1      22.912   0.293  52.549  1.00  0.00     0.016 C 
HETATM    8  C11 UNL     1      23.323   1.243  51.677  1.00  0.00    -0.043 C 
HETATM    9  C12 UNL     1      23.857   2.268  50.752  1.00  0.00     0.034 A 
HETATM   10  C13 UNL     1      24.065   3.635  51.116  1.00  0.00     0.012 A 
HETATM   11  C14 UNL     1      22.730   3.147  51.246  1.00  0.00     0.004 A 
HETATM   12  C15 UNL     1      22.109   1.838  50.985  1.00  0.00     0.117 C 
ENDROOT
BRANCH   6  13
HETATM   13  C4  UNL     1      25.201  -0.469  53.346  1.00  0.00    -0.005 A 
HETATM   14  C5  UNL     1      26.086  -1.411  52.951  1.00  0.00     0.014 A 
HETATM   15  C6  UNL     1      27.443  -1.220  52.834  1.00  0.00     0.003 A 
HETATM   16  C7  UNL     1      27.994  -0.002  53.130  1.00  0.00     0.024 A 
HETATM   17  C8  UNL     1      27.153   0.997  53.538  1.00  0.00     0.035 A 
HETATM   18 CL1  UNL     1      27.906   2.534  53.905  1.00  0.00    -0.084 Cl
HETATM   19  C9  UNL     1      25.811   0.764  53.640  1.00  0.00     0.037 A 
ENDBRANCH   6  13
BRANCH   1  20
HETATM   20  N1  UNL     1      20.765   2.385  52.872  1.00  0.00    -0.266 NA
HETATM   21  H1  UNL     1      21.145   3.313  52.578  1.00  0.00     0.137 HD
HETATM   22  H2  UNL     1      21.077   2.111  53.828  1.00  0.00     0.137 HD
ENDBRANCH   1  20
TORSDOF 2
ENDMDL
MODEL 9
REMARK VINA RESULT:      -7.3      3.325      5.418
REMARK  2 active torsions:
REMARK  status: ('A' for Active; 'I' for Inactive)
REMARK    1  A    between atoms: N1_1  and  N2_2 
REMARK    2  A    between atoms: C3_7  and  C4_8 
ROOT
HETATM    1  N2  UNL     1      23.271   0.011  53.591  1.00  0.00    -0.216 NA
HETATM    2  C1  UNL     1      22.768   1.266  53.126  1.00  0.00     0.234 C 
HETATM    3  N3  UNL     1      21.502   1.262  52.462  1.00  0.00    -0.256 NA
HETATM    4  C2  UNL     1      21.422   1.864  51.300  1.00  0.00     0.229 C 
HETATM    5  N4  UNL     1      22.380   2.548  50.512  1.00  0.00    -0.241 NA
HETATM    6  C3  UNL     1      23.597   2.617  50.958  1.00  0.00     0.078 C 
HETATM    7  C10 UNL     1      23.801   1.756  52.145  1.00  0.00     0.016 C 
HETATM    8  C11 UNL     1      24.971   1.185  52.514  1.00  0.00    -0.043 C 
HETATM    9  C12 UNL     1      26.291   0.604  52.849  1.00  0.00     0.034 A 
HETATM   10  C13 UNL     1      26.806  -0.592  52.258  1.00  0.00     0.012 A 
HETATM   11  C14 UNL     1      25.564  -0.718  52.950  1.00  0.00     0.004 A 
HETATM   12  C15 UNL     1      24.717   0.241  53.677  1.00  0.00     0.117 C 
ENDROOT
BRANCH   6  13
HETATM   13  C4  UNL     1      24.709   3.278  50.323  1.00  0.00    -0.005 A 
HETATM   14  C5  UNL     1      25.994   2.955  50.054  1.00  0.00     0.014 A 
HETATM   15  C6  UNL     1      26.890   3.764  49.396  1.00  0.00     0.003 A 
HETATM   16  C7  UNL     1      26.505   5.004  48.960  1.00  0.00     0.024 A 
HETATM   17  C8  UNL     1      25.216   5.395  49.201  1.00  0.00     0.035 A 
HETATM   18 CL1  UNL     1      24.775   6.987  48.624  1.00  0.00    -0.084 Cl
HETATM   19  C9  UNL     1      24.359   4.558  49.858  1.00  0.00     0.037 A 
ENDBRANCH   6  13
BRANCH   1  20
HETATM   20  N1  UNL     1      22.929  -1.057  52.792  1.00  0.00    -0.266 NA
HETATM   21  H1  UNL     1      22.099  -0.800  52.212  1.00  0.00     0.137 HD
HETATM   22  H2  UNL     1      22.802  -1.964  53.288  1.00  0.00     0.137 HD
ENDBRANCH   1  20
TORSDOF 2
ENDMDL
