MODEL 1
REMARK VINA RESULT:      -7.8      0.000      0.000
REMARK  8 active torsions:
REMARK  status: ('A' for Active; 'I' for Inactive)
REMARK    1  A    between atoms: C3_3  and  C4_4 
REMARK    2  A    between atoms: C5_5  and  C6_6 
REMARK    3  A    between atoms: C6_6  and  N1_7 
REMARK    4  A    between atoms: N1_7  and  C7_8 
REMARK    5  A    between atoms: C10_14  and  O1_15 
REMARK    6  A    between atoms: O1_15  and  C11_16 
REMARK    7  A    between atoms: C11_16  and  C12_17 
REMARK    8  A    between atoms: C12_17  and  C13_18 
ROOT
HETATM    1  C7  UNL     1      23.816  -0.091  53.514  1.00  0.00     0.142 A 
HETATM    2  N2  UNL     1      24.226  -0.725  54.620  1.00  0.00    -0.224 NA
HETATM    3  C8  UNL     1      23.457  -1.451  55.437  1.00  0.00     0.237 A 
HETATM    4  N3  UNL     1      22.128  -1.592  55.171  1.00  0.00    -0.221 NA
HETATM    5  C9  UNL     1      21.650  -0.964  54.055  1.00  0.00     0.170 A 
HETATM    6  N4  UNL     1      20.338  -1.083  53.816  1.00  0.00    -0.201 NA
HETATM    7  C10 UNL     1      19.728  -0.502  52.784  1.00  0.00     0.203 A 
HETATM    8  C15 UNL     1      20.558   0.255  51.943  1.00  0.00     0.156 A 
HETATM    9  C16 UNL     1      21.917   0.383  52.181  1.00  0.00     0.124 A 
HETATM   10  C17 UNL     1      22.481  -0.234  53.253  1.00  0.00     0.094 A 
HETATM   11  O2  UNL     1      22.626   1.153  51.284  1.00  0.00    -0.345 OA
HETATM   12  C18 UNL     1      22.261   1.502  49.988  1.00  0.00     0.202 C 
HETATM   13  C19 UNL     1      20.846   1.092  49.654  1.00  0.00     0.202 C 
HETATM   14  O3  UNL     1      20.065   0.917  50.823  1.00  0.00    -0.342 OA
ENDROOT
BRANCH   1  15
HETATM   15  N1  UNL     1      24.726   0.617  52.696  1.00  0.00    -0.370 N 
HETATM   16  H10 UNL     1      24.661   1.480  52.152  1.00  0.00     0.161 HD
BRANCH  15  17
HETATM   17  C6  UNL     1      26.094   0.250  52.394  1.00  0.00     0.148 C 
BRANCH  17  18
HETATM   18  C5  UNL     1      26.917   1.477  52.359  1.00  0.00    -0.007 C 
HETATM   19  C4  UNL     1      27.982   1.882  53.024  1.00  0.00    -0.003 C 
BRANCH  19  20
HETATM   20  C3  UNL     1      28.762   1.245  54.075  1.00  0.00    -0.005 C 
HETATM   21  C2  UNL     1      29.301   0.042  54.072  1.00  0.00    -0.031 C 
HETATM   22  C1  UNL     1      29.576  -1.245  53.431  1.00  0.00     0.036 C 
ENDBRANCH  19  20
ENDBRANCH  17  18
ENDBRANCH  15  17
ENDBRANCH   1  15
BRANCH   7  23
HETATM   23  O1  UNL     1      18.376  -0.510  52.391  1.00  0.00    -0.332 OA
BRANCH  23  24
HETATM   24  C11 UNL     1      17.395  -1.020  53.303  1.00  0.00     0.177 C 
BRANCH  24  25
HETATM   25  C12 UNL     1      16.805  -2.326  52.819  1.00  0.00     0.026 C 
BRANCH  25  26
HETATM   26  C13 UNL     1      17.500  -3.412  53.649  1.00  0.00    -0.002 C 
HETATM   27  C14 UNL     1      16.755  -4.701  53.641  1.00  0.00     0.005 C 
ENDBRANCH  25  26
ENDBRANCH  24  25
ENDBRANCH  23  24
ENDBRANCH   7  23
TORSDOF 8
ENDMDL
MODEL 2
REMARK VINA RESULT:      -7.7      2.098      7.624
REMARK  8 active torsions:
REMARK  status: ('A' for Active; 'I' for Inactive)
REMARK    1  A    between atoms: C3_3  and  C4_4 
REMARK    2  A    between atoms: C5_5  and  C6_6 
REMARK    3  A    between atoms: C6_6  and  N1_7 
REMARK    4  A    between atoms: N1_7  and  C7_8 
REMARK    5  A    between atoms: C10_14  and  O1_15 
REMARK    6  A    between atoms: O1_15  and  C11_16 
REMARK    7  A    between atoms: C11_16  and  C12_17 
REMARK    8  A    between atoms: C12_17  and  C13_18 
ROOT
HETATM    1  C7  UNL     1      22.132   1.048  53.206  1.00  0.00     0.142 A 
HETATM    2  N2  UNL     1      21.414   0.315  54.067  1.00  0.00    -0.224 NA
HETATM    3  C8  UNL     1      21.861  -0.729  54.771  1.00  0.00     0.237 A 
HETATM    4  N3  UNL     1      23.158  -1.129  54.642  1.00  0.00    -0.221 NA
HETATM    5  C9  UNL     1      23.941  -0.419  53.776  1.00  0.00     0.170 A 
HETATM    6  N4  UNL     1      25.205  -0.836  53.632  1.00  0.00    -0.201 NA
HETATM    7  C10 UNL     1      26.074  -0.262  52.802  1.00  0.00     0.203 A 
HETATM    8  C15 UNL     1      25.578   0.831  52.073  1.00  0.00     0.156 A 
HETATM    9  C16 UNL     1      24.272   1.270  52.216  1.00  0.00     0.124 A 
HETATM   10  C17 UNL     1      23.432   0.641  53.080  1.00  0.00     0.094 A 
HETATM   11  O2  UNL     1      23.903   2.352  51.446  1.00  0.00    -0.345 OA
HETATM   12  C18 UNL     1      24.734   3.290  50.841  1.00  0.00     0.202 C 
HETATM   13  C19 UNL     1      26.195   2.923  50.949  1.00  0.00     0.202 C 
HETATM   14  O3  UNL     1      26.369   1.535  51.171  1.00  0.00    -0.342 OA
ENDROOT
BRANCH   1  15
HETATM   15  N1  UNL     1      21.568   2.161  52.543  1.00  0.00    -0.370 N 
HETATM   16  H10 UNL     1      21.909   3.099  52.324  1.00  0.00     0.161 HD
BRANCH  15  17
HETATM   17  C6  UNL     1      20.242   2.252  51.968  1.00  0.00     0.148 C 
BRANCH  17  18
HETATM   18  C5  UNL     1      20.074   1.158  50.987  1.00  0.00    -0.007 C 
HETATM   19  C4  UNL     1      19.144   0.245  50.787  1.00  0.00    -0.003 C 
BRANCH  19  20
HETATM   20  C3  UNL     1      17.897  -0.030  51.486  1.00  0.00    -0.005 C 
HETATM   21  C2  UNL     1      17.698  -0.845  52.502  1.00  0.00    -0.031 C 
HETATM   22  C1  UNL     1      18.177  -1.813  53.492  1.00  0.00     0.036 C 
ENDBRANCH  19  20
ENDBRANCH  17  18
ENDBRANCH  15  17
ENDBRANCH   1  15
BRANCH   7  23
HETATM   23  O1  UNL     1      27.419  -0.569  52.519  1.00  0.00    -0.332 OA
BRANCH  23  24
HETATM   24  C11 UNL     1      28.307  -0.845  53.610  1.00  0.00     0.177 C 
BRANCH  24  25
HETATM   25  C12 UNL     1      29.517   0.062  53.593  1.00  0.00     0.026 C 
BRANCH  25  26
HETATM   26  C13 UNL     1      29.128   1.265  54.461  1.00  0.00    -0.002 C 
HETATM   27  C14 UNL     1      28.772   2.462  53.650  1.00  0.00     0.005 C 
ENDBRANCH  25  26
ENDBRANCH  24  25
ENDBRANCH  23  24
ENDBRANCH   7  23
TORSDOF 8
ENDMDL
MODEL 3
REMARK VINA RESULT:      -7.7      1.300      2.230
REMARK  8 active torsions:
REMARK  status: ('A' for Active; 'I' for Inactive)
REMARK    1  A    between atoms: C3_3  and  C4_4 
REMARK    2  A    between atoms: C5_5  and  C6_6 
REMARK    3  A    between atoms: C6_6  and  N1_7 
REMARK    4  A    between atoms: N1_7  and  C7_8 
REMARK    5  A    between atoms: C10_14  and  O1_15 
REMARK    6  A    between atoms: O1_15  and  C11_16 
REMARK    7  A    between atoms: C11_16  and  C12_17 
REMARK    8  A    between atoms: C12_17  and  C13_18 
ROOT
HETATM    1  C7  UNL     1      23.765  -0.153  53.515  1.00  0.00     0.142 A 
HETATM    2  N2  UNL     1      24.169  -0.782  54.626  1.00  0.00    -0.224 NA
HETATM    3  C8  UNL     1      23.390  -1.482  55.457  1.00  0.00     0.237 A 
HETATM    4  N3  UNL     1      22.057  -1.599  55.200  1.00  0.00    -0.221 NA
HETATM    5  C9  UNL     1      21.585  -0.976  54.079  1.00  0.00     0.170 A 
HETATM    6  N4  UNL     1      20.270  -1.070  53.850  1.00  0.00    -0.201 NA
HETATM    7  C10 UNL     1      19.665  -0.489  52.814  1.00  0.00     0.203 A 
HETATM    8  C15 UNL     1      20.505   0.240  51.959  1.00  0.00     0.156 A 
HETATM    9  C16 UNL     1      21.868   0.343  52.188  1.00  0.00     0.124 A 
HETATM   10  C17 UNL     1      22.426  -0.272  53.264  1.00  0.00     0.094 A 
HETATM   11  O2  UNL     1      22.587   1.088  51.277  1.00  0.00    -0.345 OA
HETATM   12  C18 UNL     1      22.221   1.428  49.979  1.00  0.00     0.202 C 
HETATM   13  C19 UNL     1      20.797   1.043  49.658  1.00  0.00     0.202 C 
HETATM   14  O3  UNL     1      20.019   0.898  50.834  1.00  0.00    -0.342 OA
ENDROOT
BRANCH   1  15
HETATM   15  N1  UNL     1      24.684   0.527  52.683  1.00  0.00    -0.370 N 
HETATM   16  H10 UNL     1      24.610   1.336  52.063  1.00  0.00     0.161 HD
BRANCH  15  17
HETATM   17  C6  UNL     1      26.081   0.202  52.481  1.00  0.00     0.148 C 
BRANCH  17  18
HETATM   18  C5  UNL     1      26.858   1.459  52.441  1.00  0.00    -0.007 C 
HETATM   19  C4  UNL     1      26.954   2.447  51.573  1.00  0.00    -0.003 C 
BRANCH  19  20
HETATM   20  C3  UNL     1      26.306   2.668  50.288  1.00  0.00    -0.005 C 
HETATM   21  C2  UNL     1      26.574   3.594  49.390  1.00  0.00    -0.031 C 
HETATM   22  C1  UNL     1      27.340   4.751  48.921  1.00  0.00     0.036 C 
ENDBRANCH  19  20
ENDBRANCH  17  18
ENDBRANCH  15  17
ENDBRANCH   1  15
BRANCH   7  23
HETATM   23  O1  UNL     1      18.311  -0.474  52.429  1.00  0.00    -0.332 OA
BRANCH  23  24
HETATM   24  C11 UNL     1      17.339  -1.067  53.300  1.00  0.00     0.177 C 
BRANCH  24  25
HETATM   25  C12 UNL     1      16.829  -2.384  52.759  1.00  0.00     0.026 C 
BRANCH  25  26
HETATM   26  C13 UNL     1      17.431  -3.454  53.678  1.00  0.00    -0.002 C 
HETATM   27  C14 UNL     1      16.669  -4.733  53.638  1.00  0.00     0.005 C 
ENDBRANCH  25  26
ENDBRANCH  24  25
ENDBRANCH  23  24
ENDBRANCH   7  23
TORSDOF 8
ENDMDL
MODEL 4
REMARK VINA RESULT:      -7.6      2.236      7.606
REMARK  8 active torsions:
REMARK  status: ('A' for Active; 'I' for Inactive)
REMARK    1  A    between atoms: C3_3  and  C4_4 
REMARK    2  A    between atoms: C5_5  and  C6_6 
REMARK    3  A    between atoms: C6_6  and  N1_7 
REMARK    4  A    between atoms: N1_7  and  C7_8 
REMARK    5  A    between atoms: C10_14  and  O1_15 
REMARK    6  A    between atoms: O1_15  and  C11_16 
REMARK    7  A    between atoms: C11_16  and  C12_17 
REMARK    8  A    between atoms: C12_17  and  C13_18 
ROOT
HETATM    1  C7  UNL     1      22.835  -0.310  53.681  1.00  0.00     0.142 A 
HETATM    2  N2  UNL     1      22.581  -1.121  54.715  1.00  0.00    -0.224 NA
HETATM    3  C8  UNL     1      23.484  -1.594  55.581  1.00  0.00     0.237 A 
HETATM    4  N3  UNL     1      24.796  -1.251  55.447  1.00  0.00    -0.221 NA
HETATM    5  C9  UNL     1      25.117  -0.425  54.407  1.00  0.00     0.170 A 
HETATM    6  N4  UNL     1      26.412  -0.117  54.265  1.00  0.00    -0.201 NA
HETATM    7  C10 UNL     1      26.877   0.652  53.281  1.00  0.00     0.203 A 
HETATM    8  C15 UNL     1      25.909   1.133  52.385  1.00  0.00     0.156 A 
HETATM    9  C16 UNL     1      24.566   0.820  52.525  1.00  0.00     0.124 A 
HETATM   10  C17 UNL     1      24.154   0.029  53.550  1.00  0.00     0.094 A 
HETATM   11  O2  UNL     1      23.713   1.352  51.582  1.00  0.00    -0.345 OA
HETATM   12  C18 UNL     1      23.938   2.443  50.749  1.00  0.00     0.202 C 
HETATM   13  C19 UNL     1      25.359   2.950  50.830  1.00  0.00     0.202 C 
HETATM   14  O3  UNL     1      26.241   1.950  51.310  1.00  0.00    -0.342 OA
ENDROOT
BRANCH   1  15
HETATM   15  N1  UNL     1      21.796   0.164  52.849  1.00  0.00    -0.370 N 
HETATM   16  H10 UNL     1      21.690   0.259  51.837  1.00  0.00     0.161 HD
BRANCH  15  17
HETATM   17  C6  UNL     1      20.515   0.692  53.271  1.00  0.00     0.148 C 
BRANCH  17  18
HETATM   18  C5  UNL     1      19.455  -0.257  52.866  1.00  0.00    -0.007 C 
HETATM   19  C4  UNL     1      18.598  -0.297  51.865  1.00  0.00    -0.003 C 
BRANCH  19  20
HETATM   20  C3  UNL     1      18.372   0.614  50.753  1.00  0.00    -0.005 C 
HETATM   21  C2  UNL     1      19.257   1.097  49.904  1.00  0.00    -0.031 C 
HETATM   22  C1  UNL     1      20.627   1.217  49.400  1.00  0.00     0.036 C 
ENDBRANCH  19  20
ENDBRANCH  17  18
ENDBRANCH  15  17
ENDBRANCH   1  15
BRANCH   7  23
HETATM   23  O1  UNL     1      28.188   1.065  52.976  1.00  0.00    -0.332 OA
BRANCH  23  24
HETATM   24  C11 UNL     1      29.238   0.769  53.905  1.00  0.00     0.177 C 
BRANCH  24  25
HETATM   25  C12 UNL     1      30.255  -0.186  53.319  1.00  0.00     0.026 C 
BRANCH  25  26
HETATM   26  C13 UNL     1      29.958  -1.540  53.975  1.00  0.00    -0.002 C 
HETATM   27  C14 UNL     1      29.066  -2.393  53.141  1.00  0.00     0.005 C 
ENDBRANCH  25  26
ENDBRANCH  24  25
ENDBRANCH  23  24
ENDBRANCH   7  23
TORSDOF 8
ENDMDL
MODEL 5
REMARK VINA RESULT:      -7.6      2.244      7.829
REMARK  8 active torsions:
REMARK  status: ('A' for Active; 'I' for Inactive)
REMARK    1  A    between atoms: C3_3  and  C4_4 
REMARK    2  A    between atoms: C5_5  and  C6_6 
REMARK    3  A    between atoms: C6_6  and  N1_7 
REMARK    4  A    between atoms: N1_7  and  C7_8 
REMARK    5  A    between atoms: C10_14  and  O1_15 
REMARK    6  A    between atoms: O1_15  and  C11_16 
REMARK    7  A    between atoms: C11_16  and  C12_17 
REMARK    8  A    between atoms: C12_17  and  C13_18 
ROOT
HETATM    1  C7  UNL     1      21.835   2.674  51.951  1.00  0.00     0.142 A 
HETATM    2  N2  UNL     1      22.165   3.569  51.011  1.00  0.00    -0.224 NA
HETATM    3  C8  UNL     1      23.346   3.656  50.392  1.00  0.00     0.237 A 
HETATM    4  N3  UNL     1      24.342   2.781  50.705  1.00  0.00    -0.221 NA
HETATM    5  C9  UNL     1      24.065   1.844  51.660  1.00  0.00     0.170 A 
HETATM    6  N4  UNL     1      25.058   1.006  51.984  1.00  0.00    -0.201 NA
HETATM    7  C10 UNL     1      24.943   0.063  52.918  1.00  0.00     0.203 A 
HETATM    8  C15 UNL     1      23.694  -0.006  53.553  1.00  0.00     0.156 A 
HETATM    9  C16 UNL     1      22.659   0.856  53.224  1.00  0.00     0.124 A 
HETATM   10  C17 UNL     1      22.839   1.800  52.262  1.00  0.00     0.094 A 
HETATM   11  O2  UNL     1      21.480   0.690  53.919  1.00  0.00    -0.345 OA
HETATM   12  C18 UNL     1      21.055  -0.435  54.618  1.00  0.00     0.202 C 
HETATM   13  C19 UNL     1      22.128  -1.494  54.719  1.00  0.00     0.202 C 
HETATM   14  O3  UNL     1      23.422  -0.942  54.545  1.00  0.00    -0.342 OA
ENDROOT
BRANCH   1  15
HETATM   15  N1  UNL     1      20.538   2.645  52.512  1.00  0.00    -0.370 N 
HETATM   16  H10 UNL     1      20.175   2.788  53.457  1.00  0.00     0.161 HD
BRANCH  15  17
HETATM   17  C6  UNL     1      19.295   2.369  51.821  1.00  0.00     0.148 C 
BRANCH  17  18
HETATM   18  C5  UNL     1      19.369   1.011  51.241  1.00  0.00    -0.007 C 
HETATM   19  C4  UNL     1      18.681  -0.099  51.423  1.00  0.00    -0.003 C 
BRANCH  19  20
HETATM   20  C3  UNL     1      17.557  -0.404  52.296  1.00  0.00    -0.005 C 
HETATM   21  C2  UNL     1      17.416  -1.429  53.112  1.00  0.00    -0.031 C 
HETATM   22  C1  UNL     1      17.902  -2.671  53.718  1.00  0.00     0.036 C 
ENDBRANCH  19  20
ENDBRANCH  17  18
ENDBRANCH  15  17
ENDBRANCH   1  15
BRANCH   7  23
HETATM   23  O1  UNL     1      25.872  -0.885  53.389  1.00  0.00    -0.332 OA
BRANCH  23  24
HETATM   24  C11 UNL     1      27.230  -0.803  52.937  1.00  0.00     0.177 C 
BRANCH  24  25
HETATM   25  C12 UNL     1      28.104  -0.055  53.918  1.00  0.00     0.026 C 
BRANCH  25  26
HETATM   26  C13 UNL     1      29.538  -0.492  53.593  1.00  0.00    -0.002 C 
HETATM   27  C14 UNL     1      29.652  -1.963  53.388  1.00  0.00     0.005 C 
ENDBRANCH  25  26
ENDBRANCH  24  25
ENDBRANCH  23  24
ENDBRANCH   7  23
TORSDOF 8
ENDMDL
MODEL 6
REMARK VINA RESULT:      -7.6      2.108      3.419
REMARK  8 active torsions:
REMARK  status: ('A' for Active; 'I' for Inactive)
REMARK    1  A    between atoms: C3_3  and  C4_4 
REMARK    2  A    between atoms: C5_5  and  C6_6 
REMARK    3  A    between atoms: C6_6  and  N1_7 
REMARK    4  A    between atoms: N1_7  and  C7_8 
REMARK    5  A    between atoms: C10_14  and  O1_15 
REMARK    6  A    between atoms: O1_15  and  C11_16 
REMARK    7  A    between atoms: C11_16  and  C12_17 
REMARK    8  A    between atoms: C12_17  and  C13_18 
ROOT
HETATM    1  C7  UNL     1      24.159   2.753  52.750  1.00  0.00     0.142 A 
HETATM    2  N2  UNL     1      24.029   3.934  52.132  1.00  0.00    -0.224 NA
HETATM    3  C8  UNL     1      22.912   4.403  51.566  1.00  0.00     0.237 A 
HETATM    4  N3  UNL     1      21.773   3.655  51.590  1.00  0.00    -0.221 NA
HETATM    5  C9  UNL     1      21.845   2.438  52.207  1.00  0.00     0.170 A 
HETATM    6  N4  UNL     1      20.731   1.696  52.200  1.00  0.00    -0.201 NA
HETATM    7  C10 UNL     1      20.660   0.478  52.735  1.00  0.00     0.203 A 
HETATM    8  C15 UNL     1      21.846   0.009  53.321  1.00  0.00     0.156 A 
HETATM    9  C16 UNL     1      23.004   0.770  53.333  1.00  0.00     0.124 A 
HETATM   10  C17 UNL     1      23.013   2.006  52.769  1.00  0.00     0.094 A 
HETATM   11  O2  UNL     1      24.104   0.199  53.938  1.00  0.00    -0.345 OA
HETATM   12  C18 UNL     1      24.124  -0.846  54.855  1.00  0.00     0.202 C 
HETATM   13  C19 UNL     1      22.767  -1.485  55.036  1.00  0.00     0.202 C 
HETATM   14  O3  UNL     1      21.925  -1.242  53.923  1.00  0.00    -0.342 OA
ENDROOT
BRANCH   1  15
HETATM   15  N1  UNL     1      25.379   2.372  53.352  1.00  0.00    -0.370 N 
HETATM   16  H10 UNL     1      25.657   2.165  54.314  1.00  0.00     0.161 HD
BRANCH  15  17
HETATM   17  C6  UNL     1      26.653   2.176  52.691  1.00  0.00     0.148 C 
BRANCH  17  18
HETATM   18  C5  UNL     1      26.533   1.034  51.760  1.00  0.00    -0.007 C 
HETATM   19  C4  UNL     1      26.807  -0.252  51.851  1.00  0.00    -0.003 C 
BRANCH  19  20
HETATM   20  C3  UNL     1      27.351  -1.046  52.943  1.00  0.00    -0.005 C 
HETATM   21  C2  UNL     1      28.560  -0.992  53.465  1.00  0.00    -0.031 C 
HETATM   22  C1  UNL     1      29.913  -0.434  53.528  1.00  0.00     0.036 C 
ENDBRANCH  19  20
ENDBRANCH  17  18
ENDBRANCH  15  17
ENDBRANCH   1  15
BRANCH   7  23
HETATM   23  O1  UNL     1      19.590  -0.434  52.809  1.00  0.00    -0.332 OA
BRANCH  23  24
HETATM   24  C11 UNL     1      18.360  -0.110  52.149  1.00  0.00     0.177 C 
BRANCH  24  25
HETATM   25  C12 UNL     1      17.290  -1.147  52.412  1.00  0.00     0.026 C 
BRANCH  25  26
HETATM   26  C13 UNL     1      17.824  -1.986  53.579  1.00  0.00    -0.002 C 
HETATM   27  C14 UNL     1      17.360  -3.400  53.523  1.00  0.00     0.005 C 
ENDBRANCH  25  26
ENDBRANCH  24  25
ENDBRANCH  23  24
ENDBRANCH   7  23
TORSDOF 8
ENDMDL
MODEL 7
REMARK VINA RESULT:      -7.6      3.383      5.116
REMARK  8 active torsions:
REMARK  status: ('A' for Active; 'I' for Inactive)
REMARK    1  A    between atoms: C3_3  and  C4_4 
REMARK    2  A    between atoms: C5_5  and  C6_6 
REMARK    3  A    between atoms: C6_6  and  N1_7 
REMARK    4  A    between atoms: N1_7  and  C7_8 
REMARK    5  A    between atoms: C10_14  and  O1_15 
REMARK    6  A    between atoms: O1_15  and  C11_16 
REMARK    7  A    between atoms: C11_16  and  C12_17 
REMARK    8  A    between atoms: C12_17  and  C13_18 
ROOT
HETATM    1  C7  UNL     1      26.707   2.569  51.795  1.00  0.00     0.142 A 
HETATM    2  N2  UNL     1      27.916   2.420  52.351  1.00  0.00    -0.224 NA
HETATM    3  C8  UNL     1      28.262   1.476  53.231  1.00  0.00     0.237 A 
HETATM    4  N3  UNL     1      27.343   0.555  53.636  1.00  0.00    -0.221 NA
HETATM    5  C9  UNL     1      26.088   0.658  53.104  1.00  0.00     0.170 A 
HETATM    6  N4  UNL     1      25.182  -0.231  53.529  1.00  0.00    -0.201 NA
HETATM    7  C10 UNL     1      23.914  -0.234  53.121  1.00  0.00     0.203 A 
HETATM    8  C15 UNL     1      23.576   0.768  52.198  1.00  0.00     0.156 A 
HETATM    9  C16 UNL     1      24.508   1.693  51.752  1.00  0.00     0.124 A 
HETATM   10  C17 UNL     1      25.787   1.644  52.207  1.00  0.00     0.094 A 
HETATM   11  O2  UNL     1      24.055   2.629  50.847  1.00  0.00    -0.345 OA
HETATM   12  C18 UNL     1      22.925   2.554  50.039  1.00  0.00     0.202 C 
HETATM   13  C19 UNL     1      22.058   1.360  50.363  1.00  0.00     0.202 C 
HETATM   14  O3  UNL     1      22.292   0.890  51.679  1.00  0.00    -0.342 OA
ENDROOT
BRANCH   1  15
HETATM   15  N1  UNL     1      26.459   3.582  50.840  1.00  0.00    -0.370 N 
HETATM   16  H10 UNL     1      25.990   4.488  50.879  1.00  0.00     0.161 HD
BRANCH  15  17
HETATM   17  C6  UNL     1      26.837   3.571  49.442  1.00  0.00     0.148 C 
BRANCH  17  18
HETATM   18  C5  UNL     1      26.828   4.962  48.939  1.00  0.00    -0.007 C 
HETATM   19  C4  UNL     1      27.747   5.751  48.418  1.00  0.00    -0.003 C 
BRANCH  19  20
HETATM   20  C3  UNL     1      29.159   5.533  48.140  1.00  0.00    -0.005 C 
HETATM   21  C2  UNL     1      30.111   6.435  48.011  1.00  0.00    -0.031 C 
HETATM   22  C1  UNL     1      30.579   7.824  47.999  1.00  0.00     0.036 C 
ENDBRANCH  19  20
ENDBRANCH  17  18
ENDBRANCH  15  17
ENDBRANCH   1  15
BRANCH   7  23
HETATM   23  O1  UNL     1      22.838  -1.075  53.465  1.00  0.00    -0.332 OA
BRANCH  23  24
HETATM   24  C11 UNL     1      22.211  -0.904  54.742  1.00  0.00     0.177 C 
BRANCH  24  25
HETATM   25  C12 UNL     1      20.909  -0.141  54.632  1.00  0.00     0.026 C 
BRANCH  25  26
HETATM   26  C13 UNL     1      19.988  -1.038  53.798  1.00  0.00    -0.002 C 
HETATM   27  C14 UNL     1      19.251  -0.280  52.749  1.00  0.00     0.005 C 
ENDBRANCH  25  26
ENDBRANCH  24  25
ENDBRANCH  23  24
ENDBRANCH   7  23
TORSDOF 8
ENDMDL
MODEL 8
REMARK VINA RESULT:      -7.5      2.952      5.075
REMARK  8 active torsions:
REMARK  status: ('A' for Active; 'I' for Inactive)
REMARK    1  A    between atoms: C3_3  and  C4_4 
REMARK    2  A    between atoms: C5_5  and  C6_6 
REMARK    3  A    between atoms: C6_6  and  N1_7 
REMARK    4  A    between atoms: N1_7  and  C7_8 
REMARK    5  A    between atoms: C10_14  and  O1_15 
REMARK    6  A    between atoms: O1_15  and  C11_16 
REMARK    7  A    between atoms: C11_16  and  C12_17 
REMARK    8  A    between atoms: C12_17  and  C13_18 
ROOT
HETATM    1  C7  UNL     1      26.714   2.545  51.780  1.00  0.00     0.142 A 
HETATM    2  N2  UNL     1      27.901   2.363  52.372  1.00  0.00    -0.224 NA
HETATM    3  C8  UNL     1      28.192   1.417  53.271  1.00  0.00     0.237 A 
HETATM    4  N3  UNL     1      27.232   0.531  53.658  1.00  0.00    -0.221 NA
HETATM    5  C9  UNL     1      25.998   0.668  53.089  1.00  0.00     0.170 A 
HETATM    6  N4  UNL     1      25.052  -0.188  53.496  1.00  0.00    -0.201 NA
HETATM    7  C10 UNL     1      23.796  -0.155  53.052  1.00  0.00     0.203 A 
HETATM    8  C15 UNL     1      23.517   0.848  52.111  1.00  0.00     0.156 A 
HETATM    9  C16 UNL     1      24.490   1.737  51.682  1.00  0.00     0.124 A 
HETATM   10  C17 UNL     1      25.754   1.653  52.174  1.00  0.00     0.094 A 
HETATM   11  O2  UNL     1      24.093   2.678  50.756  1.00  0.00    -0.345 OA
HETATM   12  C18 UNL     1      22.985   2.631  49.916  1.00  0.00     0.202 C 
HETATM   13  C19 UNL     1      22.072   1.468  50.227  1.00  0.00     0.202 C 
HETATM   14  O3  UNL     1      22.253   1.004  51.553  1.00  0.00    -0.342 OA
ENDROOT
BRANCH   1  15
HETATM   15  N1  UNL     1      26.526   3.554  50.809  1.00  0.00    -0.370 N 
HETATM   16  H10 UNL     1      26.150   4.504  50.843  1.00  0.00     0.161 HD
BRANCH  15  17
HETATM   17  C6  UNL     1      26.839   3.474  49.397  1.00  0.00     0.148 C 
BRANCH  17  18
HETATM   18  C5  UNL     1      27.241   4.816  48.924  1.00  0.00    -0.007 C 
HETATM   19  C4  UNL     1      26.578   5.914  48.621  1.00  0.00    -0.003 C 
BRANCH  19  20
HETATM   20  C3  UNL     1      25.155   6.217  48.640  1.00  0.00    -0.005 C 
HETATM   21  C2  UNL     1      24.360   6.323  49.686  1.00  0.00    -0.031 C 
HETATM   22  C1  UNL     1      24.118   6.286  51.130  1.00  0.00     0.036 C 
ENDBRANCH  19  20
ENDBRANCH  17  18
ENDBRANCH  15  17
ENDBRANCH   1  15
BRANCH   7  23
HETATM   23  O1  UNL     1      22.685  -0.958  53.373  1.00  0.00    -0.332 OA
BRANCH  23  24
HETATM   24  C11 UNL     1      22.034  -0.762  54.635  1.00  0.00     0.177 C 
BRANCH  24  25
HETATM   25  C12 UNL     1      20.767   0.052  54.493  1.00  0.00     0.026 C 
BRANCH  25  26
HETATM   26  C13 UNL     1      19.807  -0.836  53.691  1.00  0.00    -0.002 C 
HETATM   27  C14 UNL     1      19.198  -0.120  52.537  1.00  0.00     0.005 C 
ENDBRANCH  25  26
ENDBRANCH  24  25
ENDBRANCH  23  24
ENDBRANCH   7  23
TORSDOF 8
ENDMDL
MODEL 9
REMARK VINA RESULT:      -7.5      3.070      8.195
REMARK  8 active torsions:
REMARK  status: ('A' for Active; 'I' for Inactive)
REMARK    1  A    between atoms: C3_3  and  C4_4 
REMARK    2  A    between atoms: C5_5  and  C6_6 
REMARK    3  A    between atoms: C6_6  and  N1_7 
REMARK    4  A    between atoms: N1_7  and  C7_8 
REMARK    5  A    between atoms: C10_14  and  O1_15 
REMARK    6  A    between atoms: O1_15  and  C11_16 
REMARK    7  A    between atoms: C11_16  and  C12_17 
REMARK    8  A    between atoms: C12_17  and  C13_18 
ROOT
HETATM    1  C7  UNL     1      25.387  -0.149  53.239  1.00  0.00     0.142 A 
HETATM    2  N2  UNL     1      26.477  -0.622  53.857  1.00  0.00    -0.224 NA
HETATM    3  C8  UNL     1      27.713  -0.123  53.755  1.00  0.00     0.237 A 
HETATM    4  N3  UNL     1      27.943   0.965  52.968  1.00  0.00    -0.221 NA
HETATM    5  C9  UNL     1      26.868   1.491  52.310  1.00  0.00     0.170 A 
HETATM    6  N4  UNL     1      27.107   2.541  51.514  1.00  0.00    -0.201 NA
HETATM    7  C10 UNL     1      26.163   3.138  50.788  1.00  0.00     0.203 A 
HETATM    8  C15 UNL     1      24.875   2.594  50.911  1.00  0.00     0.156 A 
HETATM    9  C16 UNL     1      24.618   1.508  51.733  1.00  0.00     0.124 A 
HETATM   10  C17 UNL     1      25.625   0.941  52.448  1.00  0.00     0.094 A 
HETATM   11  O2  UNL     1      23.313   1.064  51.769  1.00  0.00    -0.345 OA
HETATM   12  C18 UNL     1      22.166   1.764  51.407  1.00  0.00     0.202 C 
HETATM   13  C19 UNL     1      22.477   3.092  50.759  1.00  0.00     0.202 C 
HETATM   14  O3  UNL     1      23.787   3.114  50.219  1.00  0.00    -0.342 OA
ENDROOT
BRANCH   1  15
HETATM   15  N1  UNL     1      24.116  -0.730  53.449  1.00  0.00    -0.370 N 
HETATM   16  H10 UNL     1      23.429  -1.167  52.831  1.00  0.00     0.161 HD
BRANCH  15  17
HETATM   17  C6  UNL     1      23.409  -0.847  54.708  1.00  0.00     0.148 C 
BRANCH  17  18
HETATM   18  C5  UNL     1      22.202  -1.676  54.498  1.00  0.00    -0.007 C 
HETATM   19  C4  UNL     1      20.961  -1.409  54.142  1.00  0.00    -0.003 C 
BRANCH  19  20
HETATM   20  C3  UNL     1      20.301  -0.154  53.814  1.00  0.00    -0.005 C 
HETATM   21  C2  UNL     1      19.343   0.056  52.934  1.00  0.00    -0.031 C 
HETATM   22  C1  UNL     1      18.411  -0.414  51.906  1.00  0.00     0.036 C 
ENDBRANCH  19  20
ENDBRANCH  17  18
ENDBRANCH  15  17
ENDBRANCH   1  15
BRANCH   7  23
HETATM   23  O1  UNL     1      26.236   4.231  49.903  1.00  0.00    -0.332 OA
BRANCH  23  24
HETATM   24  C11 UNL     1      27.305   4.276  48.949  1.00  0.00     0.177 C 
BRANCH  24  25
HETATM   25  C12 UNL     1      27.588   5.688  48.489  1.00  0.00     0.026 C 
BRANCH  25  26
HETATM   26  C13 UNL     1      29.100   5.732  48.237  1.00  0.00    -0.002 C 
HETATM   27  C14 UNL     1      29.515   6.936  47.464  1.00  0.00     0.005 C 
ENDBRANCH  25  26
ENDBRANCH  24  25
ENDBRANCH  23  24
ENDBRANCH   7  23
TORSDOF 8
ENDMDL
