MODEL 1
REMARK VINA RESULT:      -7.0      0.000      0.000
REMARK  9 active torsions:
REMARK  status: ('A' for Active; 'I' for Inactive)
REMARK    1  A    between atoms: N1_2  and  C2_3 
REMARK    2  A    between atoms: C2_3  and  C3_4 
REMARK    3  A    between atoms: C4_5  and  C5_6 
REMARK       I    between atoms: C5_6  and  N2_8 
REMARK    4  A    between atoms: N2_8  and  C6_9 
REMARK    5  A    between atoms: C6_9  and  C15_20 
REMARK    6  A    between atoms: C7_10  and  C8_11 
REMARK    7  A    between atoms: C15_20  and  O2_21 
REMARK    8  A    between atoms: O2_21  and  C16_22 
REMARK    9  A    between atoms: C16_22  and  C17_23 
ROOT
HETATM    1  C8  UNL     1      25.182   0.572  53.572  1.00  0.00    -0.009 A 
HETATM    2  C9  UNL     1      23.872   0.130  53.589  1.00  0.00     0.037 A 
HETATM    3  C10 UNL     1      23.407  -0.831  54.464  1.00  0.00     0.062 A 
HETATM    4  C11 UNL     1      22.056  -1.306  54.505  1.00  0.00     0.101 C 
HETATM    5  N3  UNL     1      20.973  -1.683  54.534  1.00  0.00    -0.191 NA
HETATM    6  C12 UNL     1      24.323  -1.355  55.349  1.00  0.00     0.139 A 
HETATM    7  N4  UNL     1      25.597  -0.929  55.335  1.00  0.00    -0.264 NA
HETATM    8  C13 UNL     1      26.050   0.006  54.484  1.00  0.00     0.040 A 
HETATM    9  C14 UNL     1      27.480   0.401  54.553  1.00  0.00     0.071 C 
ENDROOT
BRANCH   1  10
HETATM   10  C7  UNL     1      25.635   1.571  52.623  1.00  0.00     0.040 C 
HETATM   11  C6  UNL     1      25.311   2.808  52.234  1.00  0.00     0.036 C 
BRANCH  11  12
HETATM   12  N2  UNL     1      26.077   3.434  51.215  1.00  0.00    -0.325 N 
HETATM   13  C5  UNL     1      25.969   3.602  49.812  1.00  0.00     0.245 C 
HETATM   14  O1  UNL     1      24.888   3.022  49.448  1.00  0.00    -0.268 OA
HETATM   15  H9  UNL     1      26.898   3.837  51.757  1.00  0.00     0.169 HD
BRANCH  13  16
HETATM   16  C4  UNL     1      26.972   4.321  49.037  1.00  0.00     0.072 C 
HETATM   17  C3  UNL     1      27.269   5.577  48.708  1.00  0.00     0.008 C 
BRANCH  17  18
HETATM   18  C2  UNL     1      26.887   6.978  48.845  1.00  0.00     0.296 C 
BRANCH  18  19
HETATM   19  N1  UNL     1      27.965   7.787  49.416  1.00  0.00     0.082 N 
HETATM   20  C1  UNL     1      27.533   9.107  49.761  1.00  0.00     0.307 C 
HETATM   21  H4  UNL     1      28.710   7.809  48.670  1.00  0.00     0.315 HD
ENDBRANCH  18  19
ENDBRANCH  17  18
ENDBRANCH  13  16
ENDBRANCH  11  12
BRANCH  11  22
HETATM   22  C15 UNL     1      24.158   3.579  52.821  1.00  0.00     0.224 C 
BRANCH  22  23
HETATM   23  O2  UNL     1      23.167   3.783  51.889  1.00  0.00    -0.383 OA
BRANCH  23  24
HETATM   24  C16 UNL     1      22.094   2.948  52.051  1.00  0.00     0.199 C 
BRANCH  24  25
HETATM   25  C17 UNL     1      21.747   2.088  50.879  1.00  0.00     0.248 C 
HETATM   26  F1  UNL     1      22.756   1.140  50.653  1.00  0.00    -0.253 F 
ENDBRANCH  24  25
ENDBRANCH  23  24
ENDBRANCH  22  23
ENDBRANCH  11  22
ENDBRANCH   1  10
TORSDOF 9
ENDMDL
MODEL 2
REMARK VINA RESULT:      -6.8      3.458      5.531
REMARK  9 active torsions:
REMARK  status: ('A' for Active; 'I' for Inactive)
REMARK    1  A    between atoms: N1_2  and  C2_3 
REMARK    2  A    between atoms: C2_3  and  C3_4 
REMARK    3  A    between atoms: C4_5  and  C5_6 
REMARK       I    between atoms: C5_6  and  N2_8 
REMARK    4  A    between atoms: N2_8  and  C6_9 
REMARK    5  A    between atoms: C6_9  and  C15_20 
REMARK    6  A    between atoms: C7_10  and  C8_11 
REMARK    7  A    between atoms: C15_20  and  O2_21 
REMARK    8  A    between atoms: O2_21  and  C16_22 
REMARK    9  A    between atoms: C16_22  and  C17_23 
ROOT
HETATM    1  C8  UNL     1      21.579  -0.144  52.509  1.00  0.00    -0.009 A 
HETATM    2  C9  UNL     1      20.910   0.460  51.461  1.00  0.00     0.037 A 
HETATM    3  C10 UNL     1      19.534   0.539  51.385  1.00  0.00     0.062 A 
HETATM    4  C11 UNL     1      18.815   1.159  50.312  1.00  0.00     0.101 C 
HETATM    5  N3  UNL     1      18.244   1.657  49.450  1.00  0.00    -0.191 NA
HETATM    6  C12 UNL     1      18.824  -0.024  52.422  1.00  0.00     0.139 A 
HETATM    7  N4  UNL     1      19.471  -0.612  53.443  1.00  0.00    -0.264 NA
HETATM    8  C13 UNL     1      20.809  -0.689  53.518  1.00  0.00     0.040 A 
HETATM    9  C14 UNL     1      21.421  -1.365  54.691  1.00  0.00     0.071 C 
ENDROOT
BRANCH   1  10
HETATM   10  C7  UNL     1      23.027  -0.222  52.543  1.00  0.00     0.040 C 
HETATM   11  C6  UNL     1      24.072   0.580  52.767  1.00  0.00     0.036 C 
BRANCH  11  12
HETATM   12  N2  UNL     1      25.384   0.041  52.691  1.00  0.00    -0.325 N 
HETATM   13  C5  UNL     1      26.250  -0.669  53.560  1.00  0.00     0.245 C 
HETATM   14  O1  UNL     1      25.623  -0.827  54.665  1.00  0.00    -0.268 OA
HETATM   15  H9  UNL     1      25.681   0.290  51.701  1.00  0.00     0.169 HD
BRANCH  13  16
HETATM   16  C4  UNL     1      27.586  -1.084  53.156  1.00  0.00     0.072 C 
HETATM   17  C3  UNL     1      28.848  -0.687  53.319  1.00  0.00     0.008 C 
BRANCH  17  18
HETATM   18  C2  UNL     1      29.727   0.304  53.927  1.00  0.00     0.296 C 
BRANCH  18  19
HETATM   19  N1  UNL     1      28.975   1.396  54.548  1.00  0.00     0.082 N 
HETATM   20  C1  UNL     1      28.619   2.418  53.612  1.00  0.00     0.307 C 
HETATM   21  H4  UNL     1      29.613   1.769  55.301  1.00  0.00     0.315 HD
ENDBRANCH  18  19
ENDBRANCH  17  18
ENDBRANCH  13  16
ENDBRANCH  11  12
BRANCH  11  22
HETATM   22  C15 UNL     1      23.931   2.044  53.091  1.00  0.00     0.224 C 
BRANCH  22  23
HETATM   23  O2  UNL     1      23.652   2.781  51.964  1.00  0.00    -0.383 OA
BRANCH  23  24
HETATM   24  C16 UNL     1      23.596   4.128  52.201  1.00  0.00     0.199 C 
BRANCH  24  25
HETATM   25  C17 UNL     1      22.227   4.715  52.335  1.00  0.00     0.248 C 
HETATM   26  F1  UNL     1      21.251   3.721  52.173  1.00  0.00    -0.253 F 
ENDBRANCH  24  25
ENDBRANCH  23  24
ENDBRANCH  22  23
ENDBRANCH  11  22
ENDBRANCH   1  10
TORSDOF 9
ENDMDL
MODEL 3
REMARK VINA RESULT:      -6.7      2.171      3.721
REMARK  9 active torsions:
REMARK  status: ('A' for Active; 'I' for Inactive)
REMARK    1  A    between atoms: N1_2  and  C2_3 
REMARK    2  A    between atoms: C2_3  and  C3_4 
REMARK    3  A    between atoms: C4_5  and  C5_6 
REMARK       I    between atoms: C5_6  and  N2_8 
REMARK    4  A    between atoms: N2_8  and  C6_9 
REMARK    5  A    between atoms: C6_9  and  C15_20 
REMARK    6  A    between atoms: C7_10  and  C8_11 
REMARK    7  A    between atoms: C15_20  and  O2_21 
REMARK    8  A    between atoms: O2_21  and  C16_22 
REMARK    9  A    between atoms: C16_22  and  C17_23 
ROOT
HETATM    1  C8  UNL     1      23.135   1.310  51.753  1.00  0.00    -0.009 A 
HETATM    2  C9  UNL     1      23.385   0.647  52.941  1.00  0.00     0.037 A 
HETATM    3  C10 UNL     1      22.528  -0.291  53.480  1.00  0.00     0.062 A 
HETATM    4  C11 UNL     1      22.761  -0.993  54.707  1.00  0.00     0.101 C 
HETATM    5  N3  UNL     1      22.953  -1.553  55.690  1.00  0.00    -0.191 NA
HETATM    6  C12 UNL     1      21.376  -0.554  52.773  1.00  0.00     0.139 A 
HETATM    7  N4  UNL     1      21.129   0.088  51.618  1.00  0.00    -0.264 NA
HETATM    8  C13 UNL     1      21.962   1.001  51.093  1.00  0.00     0.040 A 
HETATM    9  C14 UNL     1      21.590   1.654  49.812  1.00  0.00     0.071 C 
ENDROOT
BRANCH   1  10
HETATM   10  C7  UNL     1      24.053   2.303  51.230  1.00  0.00     0.040 C 
HETATM   11  C6  UNL     1      25.285   2.761  51.472  1.00  0.00     0.036 C 
BRANCH  11  12
HETATM   12  N2  UNL     1      25.808   3.801  50.658  1.00  0.00    -0.325 N 
HETATM   13  C5  UNL     1      26.649   3.885  49.520  1.00  0.00     0.245 C 
HETATM   14  O1  UNL     1      26.974   2.686  49.207  1.00  0.00    -0.268 OA
HETATM   15  H9  UNL     1      25.399   4.674  51.107  1.00  0.00     0.169 HD
BRANCH  13  16
HETATM   16  C4  UNL     1      27.007   5.158  48.913  1.00  0.00     0.072 C 
HETATM   17  C3  UNL     1      28.087   5.757  48.410  1.00  0.00     0.008 C 
BRANCH  17  18
HETATM   18  C2  UNL     1      29.510   5.626  48.125  1.00  0.00     0.296 C 
BRANCH  18  19
HETATM   19  N1  UNL     1      30.337   6.211  49.183  1.00  0.00     0.082 N 
HETATM   20  C1  UNL     1      30.868   7.489  48.818  1.00  0.00     0.307 C 
HETATM   21  H4  UNL     1      31.106   5.507  49.344  1.00  0.00     0.315 HD
ENDBRANCH  18  19
ENDBRANCH  17  18
ENDBRANCH  13  16
ENDBRANCH  11  12
BRANCH  11  22
HETATM   22  C15 UNL     1      26.156   2.230  52.581  1.00  0.00     0.224 C 
BRANCH  22  23
HETATM   23  O2  UNL     1      26.935   1.183  52.146  1.00  0.00    -0.383 OA
BRANCH  23  24
HETATM   24  C16 UNL     1      27.612   0.558  53.159  1.00  0.00     0.199 C 
BRANCH  24  25
HETATM   25  C17 UNL     1      26.780   0.061  54.297  1.00  0.00     0.248 C 
HETATM   26  F1  UNL     1      26.058  -1.078  53.913  1.00  0.00    -0.253 F 
ENDBRANCH  24  25
ENDBRANCH  23  24
ENDBRANCH  22  23
ENDBRANCH  11  22
ENDBRANCH   1  10
TORSDOF 9
ENDMDL
MODEL 4
REMARK VINA RESULT:      -6.6      1.897      2.264
REMARK  9 active torsions:
REMARK  status: ('A' for Active; 'I' for Inactive)
REMARK    1  A    between atoms: N1_2  and  C2_3 
REMARK    2  A    between atoms: C2_3  and  C3_4 
REMARK    3  A    between atoms: C4_5  and  C5_6 
REMARK       I    between atoms: C5_6  and  N2_8 
REMARK    4  A    between atoms: N2_8  and  C6_9 
REMARK    5  A    between atoms: C6_9  and  C15_20 
REMARK    6  A    between atoms: C7_10  and  C8_11 
REMARK    7  A    between atoms: C15_20  and  O2_21 
REMARK    8  A    between atoms: O2_21  and  C16_22 
REMARK    9  A    between atoms: C16_22  and  C17_23 
ROOT
HETATM    1  C8  UNL     1      23.377   0.340  53.099  1.00  0.00    -0.009 A 
HETATM    2  C9  UNL     1      22.019   0.300  52.841  1.00  0.00     0.037 A 
HETATM    3  C10 UNL     1      21.145  -0.531  53.513  1.00  0.00     0.062 A 
HETATM    4  C11 UNL     1      19.735  -0.593  53.268  1.00  0.00     0.101 C 
HETATM    5  N3  UNL     1      18.606  -0.639  53.068  1.00  0.00    -0.191 NA
HETATM    6  C12 UNL     1      21.688  -1.346  54.481  1.00  0.00     0.139 A 
HETATM    7  N4  UNL     1      23.007  -1.310  54.734  1.00  0.00    -0.264 NA
HETATM    8  C13 UNL     1      23.858  -0.502  54.081  1.00  0.00     0.040 A 
HETATM    9  C14 UNL     1      25.300  -0.545  54.439  1.00  0.00     0.071 C 
ENDROOT
BRANCH   1  10
HETATM   10  C7  UNL     1      24.266   1.214  52.357  1.00  0.00     0.040 C 
HETATM   11  C6  UNL     1      24.614   2.504  52.329  1.00  0.00     0.036 C 
BRANCH  11  12
HETATM   12  N2  UNL     1      25.581   2.937  51.382  1.00  0.00    -0.325 N 
HETATM   13  C5  UNL     1      25.573   3.337  50.022  1.00  0.00     0.245 C 
HETATM   14  O1  UNL     1      24.360   3.266  49.619  1.00  0.00    -0.268 OA
HETATM   15  H9  UNL     1      26.482   2.919  51.945  1.00  0.00     0.169 HD
BRANCH  13  16
HETATM   16  C4  UNL     1      26.788   3.730  49.322  1.00  0.00     0.072 C 
HETATM   17  C3  UNL     1      27.328   4.829  48.796  1.00  0.00     0.008 C 
BRANCH  17  18
HETATM   18  C2  UNL     1      27.152   6.255  48.553  1.00  0.00     0.296 C 
BRANCH  18  19
HETATM   19  N1  UNL     1      28.311   7.034  48.994  1.00  0.00     0.082 N 
HETATM   20  C1  UNL     1      29.480   6.763  48.214  1.00  0.00     0.307 C 
HETATM   21  H4  UNL     1      28.450   6.762  50.003  1.00  0.00     0.315 HD
ENDBRANCH  18  19
ENDBRANCH  17  18
ENDBRANCH  13  16
ENDBRANCH  11  12
BRANCH  11  22
HETATM   22  C15 UNL     1      24.024   3.536  53.253  1.00  0.00     0.224 C 
BRANCH  22  23
HETATM   23  O2  UNL     1      23.637   4.662  52.564  1.00  0.00    -0.383 OA
BRANCH  23  24
HETATM   24  C16 UNL     1      22.289   4.717  52.335  1.00  0.00     0.199 C 
BRANCH  24  25
HETATM   25  C17 UNL     1      21.852   5.563  51.182  1.00  0.00     0.248 C 
HETATM   26  F1  UNL     1      22.545   6.782  51.180  1.00  0.00    -0.253 F 
ENDBRANCH  24  25
ENDBRANCH  23  24
ENDBRANCH  22  23
ENDBRANCH  11  22
ENDBRANCH   1  10
TORSDOF 9
ENDMDL
MODEL 5
REMARK VINA RESULT:      -6.5      3.417      5.449
REMARK  9 active torsions:
REMARK  status: ('A' for Active; 'I' for Inactive)
REMARK    1  A    between atoms: N1_2  and  C2_3 
REMARK    2  A    between atoms: C2_3  and  C3_4 
REMARK    3  A    between atoms: C4_5  and  C5_6 
REMARK       I    between atoms: C5_6  and  N2_8 
REMARK    4  A    between atoms: N2_8  and  C6_9 
REMARK    5  A    between atoms: C6_9  and  C15_20 
REMARK    6  A    between atoms: C7_10  and  C8_11 
REMARK    7  A    between atoms: C15_20  and  O2_21 
REMARK    8  A    between atoms: O2_21  and  C16_22 
REMARK    9  A    between atoms: C16_22  and  C17_23 
ROOT
HETATM    1  C8  UNL     1      22.633   1.425  51.131  1.00  0.00    -0.009 A 
HETATM    2  C9  UNL     1      21.581   0.786  51.763  1.00  0.00     0.037 A 
HETATM    3  C10 UNL     1      20.346   0.600  51.177  1.00  0.00     0.062 A 
HETATM    4  C11 UNL     1      19.240  -0.059  51.806  1.00  0.00     0.101 C 
HETATM    5  N3  UNL     1      18.358  -0.588  52.314  1.00  0.00    -0.191 NA
HETATM    6  C12 UNL     1      20.188   1.090  49.899  1.00  0.00     0.139 A 
HETATM    7  N4  UNL     1      21.207   1.712  49.283  1.00  0.00    -0.264 NA
HETATM    8  C13 UNL     1      22.409   1.893  49.852  1.00  0.00     0.040 A 
HETATM    9  C14 UNL     1      23.465   2.598  49.081  1.00  0.00     0.071 C 
ENDROOT
BRANCH   1  10
HETATM   10  C7  UNL     1      23.911   1.616  51.789  1.00  0.00     0.040 C 
HETATM   11  C6  UNL     1      24.532   2.539  52.530  1.00  0.00     0.036 C 
BRANCH  11  12
HETATM   12  N2  UNL     1      25.854   2.285  52.984  1.00  0.00    -0.325 N 
HETATM   13  C5  UNL     1      27.158   2.367  52.433  1.00  0.00     0.245 C 
HETATM   14  O1  UNL     1      27.030   2.783  51.229  1.00  0.00    -0.268 OA
HETATM   15  H9  UNL     1      25.699   1.965  53.986  1.00  0.00     0.169 HD
BRANCH  13  16
HETATM   16  C4  UNL     1      28.346   2.012  53.197  1.00  0.00     0.072 C 
HETATM   17  C3  UNL     1      28.933   0.918  53.681  1.00  0.00     0.008 C 
BRANCH  17  18
HETATM   18  C2  UNL     1      28.857  -0.533  53.803  1.00  0.00     0.296 C 
BRANCH  18  19
HETATM   19  N1  UNL     1      27.478  -0.998  53.962  1.00  0.00     0.082 N 
HETATM   20  C1  UNL     1      26.893  -1.411  52.724  1.00  0.00     0.307 C 
HETATM   21  H4  UNL     1      26.963  -0.176  54.376  1.00  0.00     0.315 HD
ENDBRANCH  18  19
ENDBRANCH  17  18
ENDBRANCH  13  16
ENDBRANCH  11  12
BRANCH  11  22
HETATM   22  C15 UNL     1      23.900   3.853  52.908  1.00  0.00     0.224 C 
BRANCH  22  23
HETATM   23  O2  UNL     1      23.670   4.634  51.799  1.00  0.00    -0.383 OA
BRANCH  23  24
HETATM   24  C16 UNL     1      22.567   5.435  51.923  1.00  0.00     0.199 C 
BRANCH  24  25
HETATM   25  C17 UNL     1      21.298   4.900  51.340  1.00  0.00     0.248 C 
HETATM   26  F1  UNL     1      20.713   3.971  52.213  1.00  0.00    -0.253 F 
ENDBRANCH  24  25
ENDBRANCH  23  24
ENDBRANCH  22  23
ENDBRANCH  11  22
ENDBRANCH   1  10
TORSDOF 9
ENDMDL
MODEL 6
REMARK VINA RESULT:      -6.2      1.387      1.560
REMARK  9 active torsions:
REMARK  status: ('A' for Active; 'I' for Inactive)
REMARK    1  A    between atoms: N1_2  and  C2_3 
REMARK    2  A    between atoms: C2_3  and  C3_4 
REMARK    3  A    between atoms: C4_5  and  C5_6 
REMARK       I    between atoms: C5_6  and  N2_8 
REMARK    4  A    between atoms: N2_8  and  C6_9 
REMARK    5  A    between atoms: C6_9  and  C15_20 
REMARK    6  A    between atoms: C7_10  and  C8_11 
REMARK    7  A    between atoms: C15_20  and  O2_21 
REMARK    8  A    between atoms: O2_21  and  C16_22 
REMARK    9  A    between atoms: C16_22  and  C17_23 
ROOT
HETATM    1  C8  UNL     1      25.016   0.938  52.865  1.00  0.00    -0.009 A 
HETATM    2  C9  UNL     1      23.792   0.433  53.262  1.00  0.00     0.037 A 
HETATM    3  C10 UNL     1      23.656  -0.590  54.179  1.00  0.00     0.062 A 
HETATM    4  C11 UNL     1      22.401  -1.132  54.610  1.00  0.00     0.101 C 
HETATM    5  N3  UNL     1      21.394  -1.562  54.951  1.00  0.00    -0.191 NA
HETATM    6  C12 UNL     1      24.819  -1.110  54.702  1.00  0.00     0.139 A 
HETATM    7  N4  UNL     1      26.010  -0.622  54.318  1.00  0.00    -0.264 NA
HETATM    8  C13 UNL     1      26.144   0.373  53.427  1.00  0.00     0.040 A 
HETATM    9  C14 UNL     1      27.510   0.834  53.070  1.00  0.00     0.071 C 
ENDROOT
BRANCH   1  10
HETATM   10  C7  UNL     1      25.117   2.001  51.884  1.00  0.00     0.040 C 
HETATM   11  C6  UNL     1      24.415   2.494  50.859  1.00  0.00     0.036 C 
BRANCH  11  12
HETATM   12  N2  UNL     1      24.928   3.609  50.144  1.00  0.00    -0.325 N 
HETATM   13  C5  UNL     1      26.209   4.075  49.757  1.00  0.00     0.245 C 
HETATM   14  O1  UNL     1      27.063   3.226  50.193  1.00  0.00    -0.268 OA
HETATM   15  H9  UNL     1      24.047   4.147  49.889  1.00  0.00     0.169 HD
BRANCH  13  16
HETATM   16  C4  UNL     1      26.392   5.309  49.006  1.00  0.00     0.072 C 
HETATM   17  C3  UNL     1      26.190   6.617  49.167  1.00  0.00     0.008 C 
BRANCH  17  18
HETATM   18  C2  UNL     1      25.709   7.655  50.069  1.00  0.00     0.296 C 
BRANCH  18  19
HETATM   19  N1  UNL     1      26.809   8.394  50.692  1.00  0.00     0.082 N 
HETATM   20  C1  UNL     1      27.607   9.097  49.734  1.00  0.00     0.307 C 
HETATM   21  H4  UNL     1      27.373   7.661  51.198  1.00  0.00     0.315 HD
ENDBRANCH  18  19
ENDBRANCH  17  18
ENDBRANCH  13  16
ENDBRANCH  11  12
BRANCH  11  22
HETATM   22  C15 UNL     1      23.098   1.917  50.411  1.00  0.00     0.224 C 
BRANCH  22  23
HETATM   23  O2  UNL     1      22.043   2.692  50.834  1.00  0.00    -0.383 OA
BRANCH  23  24
HETATM   24  C16 UNL     1      20.977   1.956  51.278  1.00  0.00     0.199 C 
BRANCH  24  25
HETATM   25  C17 UNL     1      21.038   0.486  51.014  1.00  0.00     0.248 C 
HETATM   26  F1  UNL     1      20.304  -0.215  51.983  1.00  0.00    -0.253 F 
ENDBRANCH  24  25
ENDBRANCH  23  24
ENDBRANCH  22  23
ENDBRANCH  11  22
ENDBRANCH   1  10
TORSDOF 9
ENDMDL
MODEL 7
REMARK VINA RESULT:      -6.2      3.374      7.148
REMARK  9 active torsions:
REMARK  status: ('A' for Active; 'I' for Inactive)
REMARK    1  A    between atoms: N1_2  and  C2_3 
REMARK    2  A    between atoms: C2_3  and  C3_4 
REMARK    3  A    between atoms: C4_5  and  C5_6 
REMARK       I    between atoms: C5_6  and  N2_8 
REMARK    4  A    between atoms: N2_8  and  C6_9 
REMARK    5  A    between atoms: C6_9  and  C15_20 
REMARK    6  A    between atoms: C7_10  and  C8_11 
REMARK    7  A    between atoms: C15_20  and  O2_21 
REMARK    8  A    between atoms: O2_21  and  C16_22 
REMARK    9  A    between atoms: C16_22  and  C17_23 
ROOT
HETATM    1  C8  UNL     1      24.419   0.166  53.536  1.00  0.00    -0.009 A 
HETATM    2  C9  UNL     1      25.481   0.948  53.119  1.00  0.00     0.037 A 
HETATM    3  C10 UNL     1      26.693   0.992  53.778  1.00  0.00     0.062 A 
HETATM    4  C11 UNL     1      27.809   1.792  53.368  1.00  0.00     0.101 C 
HETATM    5  N3  UNL     1      28.700   2.434  53.036  1.00  0.00    -0.191 NA
HETATM    6  C12 UNL     1      26.815   0.206  54.902  1.00  0.00     0.139 A 
HETATM    7  N4  UNL     1      25.785  -0.555  55.310  1.00  0.00    -0.264 NA
HETATM    8  C13 UNL     1      24.606  -0.599  54.670  1.00  0.00     0.040 A 
HETATM    9  C14 UNL     1      23.533  -1.473  55.210  1.00  0.00     0.071 C 
ENDROOT
BRANCH   1  10
HETATM   10  C7  UNL     1      23.154   0.161  52.826  1.00  0.00     0.040 C 
HETATM   11  C6  UNL     1      22.562   0.815  51.822  1.00  0.00     0.036 C 
BRANCH  11  12
HETATM   12  N2  UNL     1      21.242   0.451  51.445  1.00  0.00    -0.325 N 
HETATM   13  C5  UNL     1      19.937   0.659  51.960  1.00  0.00     0.245 C 
HETATM   14  O1  UNL     1      20.063   1.358  53.026  1.00  0.00    -0.268 OA
HETATM   15  H9  UNL     1      21.399  -0.102  50.552  1.00  0.00     0.169 HD
BRANCH  13  16
HETATM   16  C4  UNL     1      18.751   0.123  51.307  1.00  0.00     0.072 C 
HETATM   17  C3  UNL     1      17.593  -0.443  51.646  1.00  0.00     0.008 C 
BRANCH  17  18
HETATM   18  C2  UNL     1      16.753  -0.892  52.749  1.00  0.00     0.296 C 
BRANCH  18  19
HETATM   19  N1  UNL     1      17.544  -1.428  53.858  1.00  0.00     0.082 N 
HETATM   20  C1  UNL     1      17.826  -2.822  53.705  1.00  0.00     0.307 C 
HETATM   21  H4  UNL     1      16.961  -1.245  54.718  1.00  0.00     0.315 HD
ENDBRANCH  18  19
ENDBRANCH  17  18
ENDBRANCH  13  16
ENDBRANCH  11  12
BRANCH  11  22
HETATM   22  C15 UNL     1      23.226   1.935  51.065  1.00  0.00     0.224 C 
BRANCH  22  23
HETATM   23  O2  UNL     1      22.941   3.157  51.630  1.00  0.00    -0.383 OA
BRANCH  23  24
HETATM   24  C16 UNL     1      22.396   4.046  50.743  1.00  0.00     0.199 C 
BRANCH  24  25
HETATM   25  C17 UNL     1      20.903   4.102  50.702  1.00  0.00     0.248 C 
HETATM   26  F1  UNL     1      20.457   5.416  50.912  1.00  0.00    -0.253 F 
ENDBRANCH  24  25
ENDBRANCH  23  24
ENDBRANCH  22  23
ENDBRANCH  11  22
ENDBRANCH   1  10
TORSDOF 9
ENDMDL
MODEL 8
REMARK VINA RESULT:      -6.0      3.088      7.093
REMARK  9 active torsions:
REMARK  status: ('A' for Active; 'I' for Inactive)
REMARK    1  A    between atoms: N1_2  and  C2_3 
REMARK    2  A    between atoms: C2_3  and  C3_4 
REMARK    3  A    between atoms: C4_5  and  C5_6 
REMARK       I    between atoms: C5_6  and  N2_8 
REMARK    4  A    between atoms: N2_8  and  C6_9 
REMARK    5  A    between atoms: C6_9  and  C15_20 
REMARK    6  A    between atoms: C7_10  and  C8_11 
REMARK    7  A    between atoms: C15_20  and  O2_21 
REMARK    8  A    between atoms: O2_21  and  C16_22 
REMARK    9  A    between atoms: C16_22  and  C17_23 
ROOT
HETATM    1  C8  UNL     1      24.819   0.988  52.908  1.00  0.00    -0.009 A 
HETATM    2  C9  UNL     1      25.693  -0.082  52.855  1.00  0.00     0.037 A 
HETATM    3  C10 UNL     1      26.988  -0.027  53.328  1.00  0.00     0.062 A 
HETATM    4  C11 UNL     1      27.914  -1.120  53.286  1.00  0.00     0.101 C 
HETATM    5  N3  UNL     1      28.652  -1.998  53.251  1.00  0.00    -0.191 NA
HETATM    6  C12 UNL     1      27.397   1.170  53.873  1.00  0.00     0.139 A 
HETATM    7  N4  UNL     1      26.551   2.212  53.927  1.00  0.00    -0.264 NA
HETATM    8  C13 UNL     1      25.291   2.160  53.467  1.00  0.00     0.040 A 
HETATM    9  C14 UNL     1      24.441   3.374  53.573  1.00  0.00     0.071 C 
ENDROOT
BRANCH   1  10
HETATM   10  C7  UNL     1      23.471   0.896  52.383  1.00  0.00     0.040 C 
HETATM   11  C6  UNL     1      22.784   1.280  51.302  1.00  0.00     0.036 C 
BRANCH  11  12
HETATM   12  N2  UNL     1      21.406   0.948  51.206  1.00  0.00    -0.325 N 
HETATM   13  C5  UNL     1      20.181   1.549  51.589  1.00  0.00     0.245 C 
HETATM   14  O1  UNL     1      20.470   2.663  52.150  1.00  0.00    -0.268 OA
HETATM   15  H9  UNL     1      21.427   0.008  50.711  1.00  0.00     0.169 HD
BRANCH  13  16
HETATM   16  C4  UNL     1      18.894   0.916  51.337  1.00  0.00     0.072 C 
HETATM   17  C3  UNL     1      18.151  -0.072  51.837  1.00  0.00     0.008 C 
BRANCH  17  18
HETATM   18  C2  UNL     1      18.064  -1.112  52.855  1.00  0.00     0.296 C 
BRANCH  18  19
HETATM   19  N1  UNL     1      16.690  -1.305  53.325  1.00  0.00     0.082 N 
HETATM   20  C1  UNL     1      15.918  -2.120  52.439  1.00  0.00     0.307 C 
HETATM   21  H4  UNL     1      16.292  -0.331  53.398  1.00  0.00     0.315 HD
ENDBRANCH  18  19
ENDBRANCH  17  18
ENDBRANCH  13  16
ENDBRANCH  11  12
BRANCH  11  22
HETATM   22  C15 UNL     1      23.400   2.060  50.171  1.00  0.00     0.224 C 
BRANCH  22  23
HETATM   23  O2  UNL     1      23.212   3.413  50.337  1.00  0.00    -0.383 OA
BRANCH  23  24
HETATM   24  C16 UNL     1      24.254   4.164  49.863  1.00  0.00     0.199 C 
BRANCH  24  25
HETATM   25  C17 UNL     1      25.618   3.579  50.036  1.00  0.00     0.248 C 
HETATM   26  F1  UNL     1      26.438   3.921  48.951  1.00  0.00    -0.253 F 
ENDBRANCH  24  25
ENDBRANCH  23  24
ENDBRANCH  22  23
ENDBRANCH  11  22
ENDBRANCH   1  10
TORSDOF 9
ENDMDL
MODEL 9
REMARK VINA RESULT:      -6.0      3.808      6.985
REMARK  9 active torsions:
REMARK  status: ('A' for Active; 'I' for Inactive)
REMARK    1  A    between atoms: N1_2  and  C2_3 
REMARK    2  A    between atoms: C2_3  and  C3_4 
REMARK    3  A    between atoms: C4_5  and  C5_6 
REMARK       I    between atoms: C5_6  and  N2_8 
REMARK    4  A    between atoms: N2_8  and  C6_9 
REMARK    5  A    between atoms: C6_9  and  C15_20 
REMARK    6  A    between atoms: C7_10  and  C8_11 
REMARK    7  A    between atoms: C15_20  and  O2_21 
REMARK    8  A    between atoms: O2_21  and  C16_22 
REMARK    9  A    between atoms: C16_22  and  C17_23 
ROOT
HETATM    1  C8  UNL     1      23.835   1.355  52.643  1.00  0.00    -0.009 A 
HETATM    2  C9  UNL     1      24.544   0.168  52.613  1.00  0.00     0.037 A 
HETATM    3  C10 UNL     1      25.874   0.070  52.967  1.00  0.00     0.062 A 
HETATM    4  C11 UNL     1      26.632  -1.145  52.946  1.00  0.00     0.101 C 
HETATM    5  N3  UNL     1      27.234  -2.121  52.928  1.00  0.00    -0.191 NA
HETATM    6  C12 UNL     1      26.494   1.234  53.366  1.00  0.00     0.139 A 
HETATM    7  N4  UNL     1      25.809   2.389  53.396  1.00  0.00    -0.264 NA
HETATM    8  C13 UNL     1      24.515   2.485  53.052  1.00  0.00     0.040 A 
HETATM    9  C14 UNL     1      23.855   3.814  53.119  1.00  0.00     0.071 C 
ENDROOT
BRANCH   1  10
HETATM   10  C7  UNL     1      22.442   1.419  52.244  1.00  0.00     0.040 C 
HETATM   11  C6  UNL     1      21.246   1.040  52.704  1.00  0.00     0.036 C 
BRANCH  11  12
HETATM   12  N2  UNL     1      20.087   1.332  51.937  1.00  0.00    -0.325 N 
HETATM   13  C5  UNL     1      19.213   2.438  51.785  1.00  0.00     0.245 C 
HETATM   14  O1  UNL     1      19.641   3.362  52.561  1.00  0.00    -0.268 OA
HETATM   15  H9  UNL     1      19.941   0.435  51.385  1.00  0.00     0.169 HD
BRANCH  13  16
HETATM   16  C4  UNL     1      18.070   2.406  50.883  1.00  0.00     0.072 C 
HETATM   17  C3  UNL     1      16.973   3.120  50.634  1.00  0.00     0.008 C 
BRANCH  17  18
HETATM   18  C2  UNL     1      16.192   4.293  51.008  1.00  0.00     0.296 C 
BRANCH  18  19
HETATM   19  N1  UNL     1      14.865   3.931  51.510  1.00  0.00     0.082 N 
HETATM   20  C1  UNL     1      14.895   3.498  52.873  1.00  0.00     0.307 C 
HETATM   21  H4  UNL     1      14.535   3.162  50.869  1.00  0.00     0.315 HD
ENDBRANCH  18  19
ENDBRANCH  17  18
ENDBRANCH  13  16
ENDBRANCH  11  12
BRANCH  11  22
HETATM   22  C15 UNL     1      21.061   0.303  54.005  1.00  0.00     0.224 C 
BRANCH  22  23
HETATM   23  O2  UNL     1      20.891  -1.045  53.795  1.00  0.00    -0.383 OA
BRANCH  23  24
HETATM   24  C16 UNL     1      21.874  -1.808  54.366  1.00  0.00     0.199 C 
BRANCH  24  25
HETATM   25  C17 UNL     1      22.688  -1.142  55.429  1.00  0.00     0.248 C 
HETATM   26  F1  UNL     1      24.028  -1.548  55.344  1.00  0.00    -0.253 F 
ENDBRANCH  24  25
ENDBRANCH  23  24
ENDBRANCH  22  23
ENDBRANCH  11  22
ENDBRANCH   1  10
TORSDOF 9
ENDMDL
