MODEL 1
REMARK VINA RESULT:      -6.8      0.000      0.000
REMARK  8 active torsions:
REMARK  status: ('A' for Active; 'I' for Inactive)
REMARK    1  A    between atoms: O1_2  and  C2_3 
REMARK    2  A    between atoms: C2_3  and  P1_4 
REMARK    3  A    between atoms: P1_4  and  C3_5 
REMARK    4  A    between atoms: C4_6  and  O2_7 
REMARK    5  A    between atoms: C7_10  and  N1_11 
REMARK    6  A    between atoms: C8_12  and  C9_13 
REMARK    7  A    between atoms: C11_15  and  O3_16 
REMARK    8  A    between atoms: C16_22  and  N3_23 
ROOT
HETATM    1  C9  UNL     1      25.429   2.260  51.414  1.00  0.00     0.010 A 
HETATM    2  C10 UNL     1      24.214   1.500  51.671  1.00  0.00     0.053 A 
HETATM    3  C11 UNL     1      24.165   0.622  52.686  1.00  0.00     0.089 A 
HETATM    4  C13 UNL     1      25.360   0.471  53.498  1.00  0.00     0.080 A 
HETATM    5  C14 UNL     1      25.312  -0.460  54.582  1.00  0.00     0.102 C 
HETATM    6  N2  UNL     1      25.264  -1.236  55.463  1.00  0.00    -0.191 NA
HETATM    7  C15 UNL     1      26.484   1.133  53.309  1.00  0.00     0.057 A 
HETATM    8  C16 UNL     1      26.626   2.110  52.227  1.00  0.00     0.061 A 
ENDROOT
BRANCH   3   9
HETATM    9  O3  UNL     1      22.958  -0.024  52.816  1.00  0.00    -0.354 OA
HETATM   10  C12 UNL     1      21.978   0.184  53.794  1.00  0.00     0.210 C 
ENDBRANCH   3   9
BRANCH   8  11
HETATM   11  N3  UNL     1      27.758   2.689  52.138  1.00  0.00    -0.299 NA
HETATM   12  H18 UNL     1      28.670   2.346  52.455  1.00  0.00     0.187 HD
ENDBRANCH   8  11
BRANCH   1  13
HETATM   13  C8  UNL     1      25.547   3.120  50.460  1.00  0.00     0.102 C 
HETATM   14  N1  UNL     1      26.155   4.120  49.814  1.00  0.00    -0.368 N 
HETATM   15  H11 UNL     1      26.766   4.164  50.708  1.00  0.00     0.165 HD
BRANCH  14  16
HETATM   16  C7  UNL     1      26.782   5.149  49.153  1.00  0.00     0.016 A 
HETATM   17  C6  UNL     1      27.961   5.026  48.581  1.00  0.00     0.062 A 
HETATM   18  C4  UNL     1      28.264   6.307  48.016  1.00  0.00     0.077 A 
HETATM   19  C3  UNL     1      27.312   7.230  48.221  1.00  0.00    -0.015 A 
HETATM   20  C17 UNL     1      26.233   6.546  48.966  1.00  0.00     0.099 A 
BRANCH  18  21
HETATM   21  O2  UNL     1      29.387   6.709  47.309  1.00  0.00    -0.355 OA
HETATM   22  C5  UNL     1      30.687   6.248  47.641  1.00  0.00     0.210 C 
ENDBRANCH  18  21
BRANCH  19  23
HETATM   23  P1  UNL     1      27.085   8.980  47.796  1.00  0.00    -0.071 P 
HETATM   24  H6  UNL     1      25.764   9.401  48.210  1.00  0.00     0.064 HD
BRANCH  23  25
HETATM   25  C2  UNL     1      28.409  10.040  48.500  1.00  0.00     0.202 C 
BRANCH  25  26
HETATM   26  O1  UNL     1      29.054   9.426  49.574  1.00  0.00    -0.392 OA
HETATM   27  C1  UNL     1      30.413   9.609  49.424  1.00  0.00     0.201 C 
ENDBRANCH  25  26
ENDBRANCH  23  25
ENDBRANCH  19  23
ENDBRANCH  14  16
ENDBRANCH   1  13
TORSDOF 8
ENDMDL
MODEL 2
REMARK VINA RESULT:      -6.7      2.520      3.406
REMARK  8 active torsions:
REMARK  status: ('A' for Active; 'I' for Inactive)
REMARK    1  A    between atoms: O1_2  and  C2_3 
REMARK    2  A    between atoms: C2_3  and  P1_4 
REMARK    3  A    between atoms: P1_4  and  C3_5 
REMARK    4  A    between atoms: C4_6  and  O2_7 
REMARK    5  A    between atoms: C7_10  and  N1_11 
REMARK    6  A    between atoms: C8_12  and  C9_13 
REMARK    7  A    between atoms: C11_15  and  O3_16 
REMARK    8  A    between atoms: C16_22  and  N3_23 
ROOT
HETATM    1  C9  UNL     1      24.885   2.419  52.190  1.00  0.00     0.010 A 
HETATM    2  C10 UNL     1      24.171   1.326  52.834  1.00  0.00     0.053 A 
HETATM    3  C11 UNL     1      24.766   0.133  53.002  1.00  0.00     0.089 A 
HETATM    4  C13 UNL     1      26.128  -0.010  52.518  1.00  0.00     0.080 A 
HETATM    5  C14 UNL     1      26.767  -1.276  52.697  1.00  0.00     0.102 C 
HETATM    6  N2  UNL     1      27.276  -2.325  52.839  1.00  0.00    -0.191 NA
HETATM    7  C15 UNL     1      26.818   0.946  51.928  1.00  0.00     0.057 A 
HETATM    8  C16 UNL     1      26.249   2.277  51.705  1.00  0.00     0.061 A 
ENDROOT
BRANCH   3   9
HETATM    9  O3  UNL     1      23.979  -0.807  53.626  1.00  0.00    -0.354 OA
HETATM   10  C12 UNL     1      22.618  -0.711  53.938  1.00  0.00     0.210 C 
ENDBRANCH   3   9
BRANCH   8  11
HETATM   11  N3  UNL     1      27.007   3.122  51.125  1.00  0.00    -0.299 NA
HETATM   12  H18 UNL     1      27.567   2.991  50.277  1.00  0.00     0.187 HD
ENDBRANCH   8  11
BRANCH   1  13
HETATM   13  C8  UNL     1      24.379   3.589  51.997  1.00  0.00     0.102 C 
HETATM   14  N1  UNL     1      24.330   4.797  51.426  1.00  0.00    -0.368 N 
HETATM   15  H11 UNL     1      25.309   4.523  51.048  1.00  0.00     0.165 HD
BRANCH  14  16
HETATM   16  C7  UNL     1      24.284   6.038  50.838  1.00  0.00     0.016 A 
HETATM   17  C6  UNL     1      23.161   6.682  50.601  1.00  0.00     0.062 A 
HETATM   18  C4  UNL     1      23.536   7.918  49.979  1.00  0.00     0.077 A 
HETATM   19  C3  UNL     1      24.859   8.065  49.817  1.00  0.00    -0.015 A 
HETATM   20  C17 UNL     1      25.479   6.852  50.392  1.00  0.00     0.099 A 
BRANCH  18  21
HETATM   21  O2  UNL     1      22.729   8.952  49.530  1.00  0.00    -0.355 OA
HETATM   22  C5  UNL     1      21.410   8.724  49.060  1.00  0.00     0.210 C 
ENDBRANCH  18  21
BRANCH  19  23
HETATM   23  P1  UNL     1      25.951   9.336  49.117  1.00  0.00    -0.071 P 
HETATM   24  H6  UNL     1      25.245  10.599  49.080  1.00  0.00     0.064 HD
BRANCH  23  25
HETATM   25  C2  UNL     1      27.545   9.452  50.022  1.00  0.00     0.202 C 
BRANCH  25  26
HETATM   26  O1  UNL     1      28.569   8.769  49.364  1.00  0.00    -0.392 OA
HETATM   27  C1  UNL     1      29.581   9.666  49.092  1.00  0.00     0.201 C 
ENDBRANCH  25  26
ENDBRANCH  23  25
ENDBRANCH  19  23
ENDBRANCH  14  16
ENDBRANCH   1  13
TORSDOF 8
ENDMDL
MODEL 3
REMARK VINA RESULT:      -6.7      1.742      2.458
REMARK  8 active torsions:
REMARK  status: ('A' for Active; 'I' for Inactive)
REMARK    1  A    between atoms: O1_2  and  C2_3 
REMARK    2  A    between atoms: C2_3  and  P1_4 
REMARK    3  A    between atoms: P1_4  and  C3_5 
REMARK    4  A    between atoms: C4_6  and  O2_7 
REMARK    5  A    between atoms: C7_10  and  N1_11 
REMARK    6  A    between atoms: C8_12  and  C9_13 
REMARK    7  A    between atoms: C11_15  and  O3_16 
REMARK    8  A    between atoms: C16_22  and  N3_23 
ROOT
HETATM    1  C9  UNL     1      26.176   1.477  51.615  1.00  0.00     0.010 A 
HETATM    2  C10 UNL     1      27.148   0.661  52.329  1.00  0.00     0.053 A 
HETATM    3  C11 UNL     1      26.768  -0.081  53.382  1.00  0.00     0.089 A 
HETATM    4  C13 UNL     1      25.368  -0.030  53.766  1.00  0.00     0.080 A 
HETATM    5  C14 UNL     1      24.957  -0.820  54.884  1.00  0.00     0.102 C 
HETATM    6  N2  UNL     1      24.633  -1.464  55.812  1.00  0.00    -0.191 NA
HETATM    7  C15 UNL     1      24.449   0.691  53.155  1.00  0.00     0.057 A 
HETATM    8  C16 UNL     1      24.775   1.529  51.998  1.00  0.00     0.061 A 
ENDROOT
BRANCH   3   9
HETATM    9  O3  UNL     1      27.785  -0.803  53.961  1.00  0.00    -0.354 OA
HETATM   10  C12 UNL     1      29.162  -0.583  53.845  1.00  0.00     0.210 C 
ENDBRANCH   3   9
BRANCH   8  11
HETATM   11  N3  UNL     1      23.807   2.183  51.488  1.00  0.00    -0.299 NA
HETATM   12  H18 UNL     1      23.205   2.877  51.942  1.00  0.00     0.187 HD
ENDBRANCH   8  11
BRANCH   1  13
HETATM   13  C8  UNL     1      26.470   2.211  50.597  1.00  0.00     0.102 C 
HETATM   14  N1  UNL     1      26.657   3.378  49.972  1.00  0.00    -0.368 N 
HETATM   15  H11 UNL     1      26.216   3.791  50.873  1.00  0.00     0.165 HD
BRANCH  14  16
HETATM   16  C7  UNL     1      26.847   4.581  49.334  1.00  0.00     0.016 A 
HETATM   17  C6  UNL     1      27.922   4.860  48.628  1.00  0.00     0.062 A 
HETATM   18  C4  UNL     1      27.742   6.195  48.142  1.00  0.00     0.077 A 
HETATM   19  C3  UNL     1      26.588   6.762  48.525  1.00  0.00    -0.015 A 
HETATM   20  C17 UNL     1      25.877   5.741  49.325  1.00  0.00     0.099 A 
BRANCH  18  21
HETATM   21  O2  UNL     1      28.585   6.961  47.351  1.00  0.00    -0.355 OA
HETATM   22  C5  UNL     1      29.997   6.829  47.414  1.00  0.00     0.210 C 
ENDBRANCH  18  21
BRANCH  19  23
HETATM   23  P1  UNL     1      25.782   8.369  48.274  1.00  0.00    -0.071 P 
HETATM   24  H6  UNL     1      24.363   8.163  48.076  1.00  0.00     0.064 HD
BRANCH  23  25
HETATM   25  C2  UNL     1      26.133   9.540  49.645  1.00  0.00     0.202 C 
BRANCH  25  26
HETATM   26  O1  UNL     1      27.398   9.334  50.196  1.00  0.00    -0.392 OA
HETATM   27  C1  UNL     1      28.331   9.926  49.370  1.00  0.00     0.201 C 
ENDBRANCH  25  26
ENDBRANCH  23  25
ENDBRANCH  19  23
ENDBRANCH  14  16
ENDBRANCH   1  13
TORSDOF 8
ENDMDL
MODEL 4
REMARK VINA RESULT:      -6.6      6.460      9.989
REMARK  8 active torsions:
REMARK  status: ('A' for Active; 'I' for Inactive)
REMARK    1  A    between atoms: O1_2  and  C2_3 
REMARK    2  A    between atoms: C2_3  and  P1_4 
REMARK    3  A    between atoms: P1_4  and  C3_5 
REMARK    4  A    between atoms: C4_6  and  O2_7 
REMARK    5  A    between atoms: C7_10  and  N1_11 
REMARK    6  A    between atoms: C8_12  and  C9_13 
REMARK    7  A    between atoms: C11_15  and  O3_16 
REMARK    8  A    between atoms: C16_22  and  N3_23 
ROOT
HETATM    1  C9  UNL     1      24.184   1.119  53.101  1.00  0.00     0.010 A 
HETATM    2  C10 UNL     1      24.858  -0.168  53.200  1.00  0.00     0.053 A 
HETATM    3  C11 UNL     1      26.164  -0.228  53.507  1.00  0.00     0.089 A 
HETATM    4  C13 UNL     1      26.858   1.029  53.730  1.00  0.00     0.080 A 
HETATM    5  C14 UNL     1      28.247   0.971  54.060  1.00  0.00     0.102 C 
HETATM    6  N2  UNL     1      29.392   0.910  54.319  1.00  0.00    -0.191 NA
HETATM    7  C15 UNL     1      26.297   2.219  53.652  1.00  0.00     0.057 A 
HETATM    8  C16 UNL     1      24.878   2.378  53.324  1.00  0.00     0.061 A 
ENDROOT
BRANCH   3   9
HETATM    9  O3  UNL     1      26.671  -1.505  53.569  1.00  0.00    -0.354 OA
HETATM   10  C12 UNL     1      27.126  -2.297  52.508  1.00  0.00     0.210 C 
ENDBRANCH   3   9
BRANCH   8  11
HETATM   11  N3  UNL     1      24.443   3.575  53.276  1.00  0.00    -0.299 NA
HETATM   12  H18 UNL     1      23.514   3.898  52.987  1.00  0.00     0.187 HD
ENDBRANCH   8  11
BRANCH   1  13
HETATM   13  C8  UNL     1      22.935   1.251  52.813  1.00  0.00     0.102 C 
HETATM   14  N1  UNL     1      21.687   0.801  52.645  1.00  0.00    -0.368 N 
HETATM   15  H11 UNL     1      22.154  -0.172  52.752  1.00  0.00     0.165 HD
BRANCH  14  16
HETATM   16  C7  UNL     1      20.406   0.334  52.474  1.00  0.00     0.016 A 
HETATM   17  C6  UNL     1      19.799  -0.443  53.345  1.00  0.00     0.062 A 
HETATM   18  C4  UNL     1      18.501  -0.712  52.801  1.00  0.00     0.077 A 
HETATM   19  C3  UNL     1      18.278  -0.129  51.614  1.00  0.00    -0.015 A 
HETATM   20  C17 UNL     1      19.503   0.638  51.298  1.00  0.00     0.099 A 
BRANCH  18  21
HETATM   21  O2  UNL     1      17.473  -1.480  53.327  1.00  0.00    -0.355 OA
HETATM   22  C5  UNL     1      17.655  -2.847  53.662  1.00  0.00     0.210 C 
ENDBRANCH  18  21
BRANCH  19  23
HETATM   23  P1  UNL     1      16.904  -0.075  50.429  1.00  0.00    -0.071 P 
HETATM   24  H6  UNL     1      16.452  -1.424  50.164  1.00  0.00     0.064 HD
BRANCH  23  25
HETATM   25  C2  UNL     1      15.543   1.019  50.997  1.00  0.00     0.202 C 
BRANCH  25  26
HETATM   26  O1  UNL     1      14.530   0.303  51.636  1.00  0.00    -0.392 OA
HETATM   27  C1  UNL     1      14.600   0.568  52.988  1.00  0.00     0.201 C 
ENDBRANCH  25  26
ENDBRANCH  23  25
ENDBRANCH  19  23
ENDBRANCH  14  16
ENDBRANCH   1  13
TORSDOF 8
ENDMDL
MODEL 5
REMARK VINA RESULT:      -6.6      1.209      2.006
REMARK  8 active torsions:
REMARK  status: ('A' for Active; 'I' for Inactive)
REMARK    1  A    between atoms: O1_2  and  C2_3 
REMARK    2  A    between atoms: C2_3  and  P1_4 
REMARK    3  A    between atoms: P1_4  and  C3_5 
REMARK    4  A    between atoms: C4_6  and  O2_7 
REMARK    5  A    between atoms: C7_10  and  N1_11 
REMARK    6  A    between atoms: C8_12  and  C9_13 
REMARK    7  A    between atoms: C11_15  and  O3_16 
REMARK    8  A    between atoms: C16_22  and  N3_23 
ROOT
HETATM    1  C9  UNL     1      25.511   2.203  51.447  1.00  0.00     0.010 A 
HETATM    2  C10 UNL     1      24.301   1.442  51.722  1.00  0.00     0.053 A 
HETATM    3  C11 UNL     1      24.253   0.599  52.767  1.00  0.00     0.089 A 
HETATM    4  C13 UNL     1      25.445   0.487  53.591  1.00  0.00     0.080 A 
HETATM    5  C14 UNL     1      25.398  -0.406  54.706  1.00  0.00     0.102 C 
HETATM    6  N2  UNL     1      25.352  -1.152  55.613  1.00  0.00    -0.191 NA
HETATM    7  C15 UNL     1      26.564   1.152  53.386  1.00  0.00     0.057 A 
HETATM    8  C16 UNL     1      26.704   2.092  52.271  1.00  0.00     0.061 A 
ENDROOT
BRANCH   3   9
HETATM    9  O3  UNL     1      23.051  -0.053  52.912  1.00  0.00    -0.354 OA
HETATM   10  C12 UNL     1      21.882   0.433  53.508  1.00  0.00     0.210 C 
ENDBRANCH   3   9
BRANCH   8  11
HETATM   11  N3  UNL     1      27.831   2.678  52.168  1.00  0.00    -0.299 NA
HETATM   12  H18 UNL     1      28.524   2.587  51.419  1.00  0.00     0.187 HD
ENDBRANCH   8  11
BRANCH   1  13
HETATM   13  C8  UNL     1      25.627   3.030  50.464  1.00  0.00     0.102 C 
HETATM   14  N1  UNL     1      26.082   4.142  49.878  1.00  0.00    -0.368 N 
HETATM   15  H11 UNL     1      26.414   4.388  50.881  1.00  0.00     0.165 HD
BRANCH  14  16
HETATM   16  C7  UNL     1      26.552   5.287  49.280  1.00  0.00     0.016 A 
HETATM   17  C6  UNL     1      25.895   6.428  49.290  1.00  0.00     0.062 A 
HETATM   18  C4  UNL     1      26.705   7.359  48.563  1.00  0.00     0.077 A 
HETATM   19  C3  UNL     1      27.848   6.835  48.095  1.00  0.00    -0.015 A 
HETATM   20  C17 UNL     1      27.868   5.427  48.547  1.00  0.00     0.099 A 
BRANCH  18  21
HETATM   21  O2  UNL     1      26.466   8.695  48.282  1.00  0.00    -0.355 OA
HETATM   22  C5  UNL     1      26.743   9.720  49.223  1.00  0.00     0.210 C 
ENDBRANCH  18  21
BRANCH  19  23
HETATM   23  P1  UNL     1      29.257   7.444  47.126  1.00  0.00    -0.071 P 
HETATM   24  H6  UNL     1      28.768   8.284  46.053  1.00  0.00     0.064 HD
BRANCH  23  25
HETATM   25  C2  UNL     1      30.499   8.301  48.173  1.00  0.00     0.202 C 
BRANCH  25  26
HETATM   26  O1  UNL     1      31.686   7.574  48.276  1.00  0.00    -0.392 OA
HETATM   27  C1  UNL     1      31.502   6.575  49.210  1.00  0.00     0.201 C 
ENDBRANCH  25  26
ENDBRANCH  23  25
ENDBRANCH  19  23
ENDBRANCH  14  16
ENDBRANCH   1  13
TORSDOF 8
ENDMDL
MODEL 6
REMARK VINA RESULT:      -6.5      3.521      8.897
REMARK  8 active torsions:
REMARK  status: ('A' for Active; 'I' for Inactive)
REMARK    1  A    between atoms: O1_2  and  C2_3 
REMARK    2  A    between atoms: C2_3  and  P1_4 
REMARK    3  A    between atoms: P1_4  and  C3_5 
REMARK    4  A    between atoms: C4_6  and  O2_7 
REMARK    5  A    between atoms: C7_10  and  N1_11 
REMARK    6  A    between atoms: C8_12  and  C9_13 
REMARK    7  A    between atoms: C11_15  and  O3_16 
REMARK    8  A    between atoms: C16_22  and  N3_23 
ROOT
HETATM    1  C9  UNL     1      25.073   5.115  49.060  1.00  0.00     0.010 A 
HETATM    2  C10 UNL     1      24.445   6.254  48.405  1.00  0.00     0.053 A 
HETATM    3  C11 UNL     1      25.198   7.224  47.862  1.00  0.00     0.089 A 
HETATM    4  C13 UNL     1      26.641   7.086  47.960  1.00  0.00     0.080 A 
HETATM    5  C14 UNL     1      27.447   8.114  47.382  1.00  0.00     0.102 C 
HETATM    6  N2  UNL     1      28.099   8.972  46.913  1.00  0.00    -0.191 NA
HETATM    7  C15 UNL     1      27.259   6.078  48.541  1.00  0.00     0.057 A 
HETATM    8  C16 UNL     1      26.517   4.975  49.158  1.00  0.00     0.061 A 
ENDROOT
BRANCH   3   9
HETATM    9  O3  UNL     1      24.476   8.237  47.275  1.00  0.00    -0.354 OA
HETATM   10  C12 UNL     1      23.939   8.265  45.983  1.00  0.00     0.210 C 
ENDBRANCH   3   9
BRANCH   8  11
HETATM   11  N3  UNL     1      27.219   4.055  49.692  1.00  0.00    -0.299 NA
HETATM   12  H18 UNL     1      28.239   3.968  49.709  1.00  0.00     0.187 HD
ENDBRANCH   8  11
BRANCH   1  13
HETATM   13  C8  UNL     1      24.414   4.148  49.600  1.00  0.00     0.102 C 
HETATM   14  N1  UNL     1      24.248   3.147  50.471  1.00  0.00    -0.368 N 
HETATM   15  H11 UNL     1      25.301   3.310  50.672  1.00  0.00     0.165 HD
BRANCH  14  16
HETATM   16  C7  UNL     1      24.081   2.119  51.368  1.00  0.00     0.016 A 
HETATM   17  C6  UNL     1      22.915   1.563  51.619  1.00  0.00     0.062 A 
HETATM   18  C4  UNL     1      23.162   0.551  52.603  1.00  0.00     0.077 A 
HETATM   19  C3  UNL     1      24.446   0.459  52.978  1.00  0.00    -0.015 A 
HETATM   20  C17 UNL     1      25.179   1.466  52.179  1.00  0.00     0.099 A 
BRANCH  18  21
HETATM   21  O2  UNL     1      22.267  -0.320  53.206  1.00  0.00    -0.355 OA
HETATM   22  C5  UNL     1      21.369   0.109  54.217  1.00  0.00     0.210 C 
ENDBRANCH  18  21
BRANCH  19  23
HETATM   23  P1  UNL     1      25.392  -0.563  54.143  1.00  0.00    -0.071 P 
HETATM   24  H6  UNL     1      25.793  -1.787  53.483  1.00  0.00     0.064 HD
BRANCH  23  25
HETATM   25  C2  UNL     1      26.818   0.345  54.859  1.00  0.00     0.202 C 
BRANCH  25  26
HETATM   26  O1  UNL     1      27.967  -0.445  54.910  1.00  0.00    -0.392 OA
HETATM   27  C1  UNL     1      28.745  -0.148  53.810  1.00  0.00     0.201 C 
ENDBRANCH  25  26
ENDBRANCH  23  25
ENDBRANCH  19  23
ENDBRANCH  14  16
ENDBRANCH   1  13
TORSDOF 8
ENDMDL
MODEL 7
REMARK VINA RESULT:      -6.5      3.173      9.091
REMARK  8 active torsions:
REMARK  status: ('A' for Active; 'I' for Inactive)
REMARK    1  A    between atoms: O1_2  and  C2_3 
REMARK    2  A    between atoms: C2_3  and  P1_4 
REMARK    3  A    between atoms: P1_4  and  C3_5 
REMARK    4  A    between atoms: C4_6  and  O2_7 
REMARK    5  A    between atoms: C7_10  and  N1_11 
REMARK    6  A    between atoms: C8_12  and  C9_13 
REMARK    7  A    between atoms: C11_15  and  O3_16 
REMARK    8  A    between atoms: C16_22  and  N3_23 
ROOT
HETATM    1  C9  UNL     1      27.288   5.323  48.648  1.00  0.00     0.010 A 
HETATM    2  C10 UNL     1      28.597   5.750  48.175  1.00  0.00     0.053 A 
HETATM    3  C11 UNL     1      28.749   6.953  47.597  1.00  0.00     0.089 A 
HETATM    4  C13 UNL     1      27.568   7.789  47.468  1.00  0.00     0.080 A 
HETATM    5  C14 UNL     1      27.725   9.071  46.857  1.00  0.00     0.102 C 
HETATM    6  N2  UNL     1      27.865  10.118  46.342  1.00  0.00    -0.191 NA
HETATM    7  C15 UNL     1      26.362   7.450  47.878  1.00  0.00     0.057 A 
HETATM    8  C16 UNL     1      26.105   6.158  48.520  1.00  0.00     0.061 A 
ENDROOT
BRANCH   3   9
HETATM    9  O3  UNL     1      30.037   7.229  47.200  1.00  0.00    -0.354 OA
HETATM   10  C12 UNL     1      31.183   6.456  47.418  1.00  0.00     0.210 C 
ENDBRANCH   3   9
BRANCH   8  11
HETATM   11  N3  UNL     1      24.900   5.937  48.875  1.00  0.00    -0.299 NA
HETATM   12  H18 UNL     1      24.171   6.622  49.097  1.00  0.00     0.187 HD
ENDBRANCH   8  11
BRANCH   1  13
HETATM   13  C8  UNL     1      27.069   4.185  49.212  1.00  0.00     0.102 C 
HETATM   14  N1  UNL     1      26.400   3.354  50.020  1.00  0.00    -0.368 N 
HETATM   15  H11 UNL     1      25.899   4.261  50.337  1.00  0.00     0.165 HD
BRANCH  14  16
HETATM   16  C7  UNL     1      25.711   2.503  50.851  1.00  0.00     0.016 A 
HETATM   17  C6  UNL     1      24.398   2.472  50.922  1.00  0.00     0.062 A 
HETATM   18  C4  UNL     1      24.077   1.472  51.897  1.00  0.00     0.077 A 
HETATM   19  C3  UNL     1      25.150   0.878  52.440  1.00  0.00    -0.015 A 
HETATM   20  C17 UNL     1      26.329   1.483  51.782  1.00  0.00     0.099 A 
BRANCH  18  21
HETATM   21  O2  UNL     1      22.833   1.052  52.343  1.00  0.00    -0.355 OA
HETATM   22  C5  UNL     1      21.789   0.713  51.445  1.00  0.00     0.210 C 
ENDBRANCH  18  21
BRANCH  19  23
HETATM   23  P1  UNL     1      25.432  -0.409  53.689  1.00  0.00    -0.071 P 
HETATM   24  H6  UNL     1      25.930  -1.601  53.037  1.00  0.00     0.064 HD
BRANCH  23  25
HETATM   25  C2  UNL     1      26.539   0.166  55.036  1.00  0.00     0.202 C 
BRANCH  25  26
HETATM   26  O1  UNL     1      27.794  -0.442  54.976  1.00  0.00    -0.392 OA
HETATM   27  C1  UNL     1      28.720   0.512  54.609  1.00  0.00     0.201 C 
ENDBRANCH  25  26
ENDBRANCH  23  25
ENDBRANCH  19  23
ENDBRANCH  14  16
ENDBRANCH   1  13
TORSDOF 8
ENDMDL
MODEL 8
REMARK VINA RESULT:      -6.4      1.895      2.960
REMARK  8 active torsions:
REMARK  status: ('A' for Active; 'I' for Inactive)
REMARK    1  A    between atoms: O1_2  and  C2_3 
REMARK    2  A    between atoms: C2_3  and  P1_4 
REMARK    3  A    between atoms: P1_4  and  C3_5 
REMARK    4  A    between atoms: C4_6  and  O2_7 
REMARK    5  A    between atoms: C7_10  and  N1_11 
REMARK    6  A    between atoms: C8_12  and  C9_13 
REMARK    7  A    between atoms: C11_15  and  O3_16 
REMARK    8  A    between atoms: C16_22  and  N3_23 
ROOT
HETATM    1  C9  UNL     1      26.229   1.885  51.362  1.00  0.00     0.010 A 
HETATM    2  C10 UNL     1      27.263   1.222  52.142  1.00  0.00     0.053 A 
HETATM    3  C11 UNL     1      26.930   0.422  53.168  1.00  0.00     0.089 A 
HETATM    4  C13 UNL     1      25.516   0.255  53.456  1.00  0.00     0.080 A 
HETATM    5  C14 UNL     1      25.156  -0.598  54.545  1.00  0.00     0.102 C 
HETATM    6  N2  UNL     1      24.873  -1.291  55.450  1.00  0.00    -0.191 NA
HETATM    7  C15 UNL     1      24.541   0.832  52.782  1.00  0.00     0.057 A 
HETATM    8  C16 UNL     1      24.813   1.719  51.648  1.00  0.00     0.061 A 
ENDROOT
BRANCH   3   9
HETATM    9  O3  UNL     1      28.004  -0.141  53.817  1.00  0.00    -0.354 OA
HETATM   10  C12 UNL     1      28.802   0.438  54.811  1.00  0.00     0.210 C 
ENDBRANCH   3   9
BRANCH   8  11
HETATM   11  N3  UNL     1      23.793   2.223  51.072  1.00  0.00    -0.299 NA
HETATM   12  H18 UNL     1      23.679   2.456  50.080  1.00  0.00     0.187 HD
ENDBRANCH   8  11
BRANCH   1  13
HETATM   13  C8  UNL     1      26.475   2.664  50.364  1.00  0.00     0.102 C 
HETATM   14  N1  UNL     1      26.713   3.852  49.799  1.00  0.00    -0.368 N 
HETATM   15  H11 UNL     1      26.437   4.235  50.775  1.00  0.00     0.165 HD
BRANCH  14  16
HETATM   16  C7  UNL     1      26.958   5.075  49.221  1.00  0.00     0.016 A 
HETATM   17  C6  UNL     1      26.155   6.109  49.357  1.00  0.00     0.062 A 
HETATM   18  C4  UNL     1      26.750   7.175  48.606  1.00  0.00     0.077 A 
HETATM   19  C3  UNL     1      27.900   6.838  48.003  1.00  0.00    -0.015 A 
HETATM   20  C17 UNL     1      28.160   5.430  48.374  1.00  0.00     0.099 A 
BRANCH  18  21
HETATM   21  O2  UNL     1      26.302   8.474  48.423  1.00  0.00    -0.355 OA
HETATM   22  C5  UNL     1      26.498   9.480  49.405  1.00  0.00     0.210 C 
ENDBRANCH  18  21
BRANCH  19  23
HETATM   23  P1  UNL     1      29.106   7.680  46.938  1.00  0.00    -0.071 P 
HETATM   24  H6  UNL     1      28.524   8.908  46.441  1.00  0.00     0.064 HD
BRANCH  23  25
HETATM   25  C2  UNL     1      30.707   7.961  47.792  1.00  0.00     0.202 C 
BRANCH  25  26
HETATM   26  O1  UNL     1      30.629   7.670  49.155  1.00  0.00    -0.392 OA
HETATM   27  C1  UNL     1      31.635   6.778  49.464  1.00  0.00     0.201 C 
ENDBRANCH  25  26
ENDBRANCH  23  25
ENDBRANCH  19  23
ENDBRANCH  14  16
ENDBRANCH   1  13
TORSDOF 8
ENDMDL
MODEL 9
REMARK VINA RESULT:      -6.4      3.421      8.834
REMARK  8 active torsions:
REMARK  status: ('A' for Active; 'I' for Inactive)
REMARK    1  A    between atoms: O1_2  and  C2_3 
REMARK    2  A    between atoms: C2_3  and  P1_4 
REMARK    3  A    between atoms: P1_4  and  C3_5 
REMARK    4  A    between atoms: C4_6  and  O2_7 
REMARK    5  A    between atoms: C7_10  and  N1_11 
REMARK    6  A    between atoms: C8_12  and  C9_13 
REMARK    7  A    between atoms: C11_15  and  O3_16 
REMARK    8  A    between atoms: C16_22  and  N3_23 
ROOT
HETATM    1  C9  UNL     1      27.357   5.606  48.550  1.00  0.00     0.010 A 
HETATM    2  C10 UNL     1      26.285   6.571  48.346  1.00  0.00     0.053 A 
HETATM    3  C11 UNL     1      26.544   7.761  47.780  1.00  0.00     0.089 A 
HETATM    4  C13 UNL     1      27.916   8.033  47.389  1.00  0.00     0.080 A 
HETATM    5  C14 UNL     1      28.196   9.297  46.782  1.00  0.00     0.102 C 
HETATM    6  N2  UNL     1      28.416  10.343  46.296  1.00  0.00    -0.191 NA
HETATM    7  C15 UNL     1      28.921   7.196  47.551  1.00  0.00     0.057 A 
HETATM    8  C16 UNL     1      28.731   5.877  48.159  1.00  0.00     0.061 A 
ENDROOT
BRANCH   3   9
HETATM    9  O3  UNL     1      25.442   8.574  47.645  1.00  0.00    -0.354 OA
HETATM   10  C12 UNL     1      24.368   8.710  48.532  1.00  0.00     0.210 C 
ENDBRANCH   3   9
BRANCH   8  11
HETATM   11  N3  UNL     1      29.774   5.152  48.267  1.00  0.00    -0.299 NA
HETATM   12  H18 UNL     1      29.851   4.136  48.155  1.00  0.00     0.187 HD
ENDBRANCH   8  11
BRANCH   1  13
HETATM   13  C8  UNL     1      27.181   4.447  49.085  1.00  0.00     0.102 C 
HETATM   14  N1  UNL     1      26.562   3.577  49.890  1.00  0.00    -0.368 N 
HETATM   15  H11 UNL     1      26.056   4.463  50.256  1.00  0.00     0.165 HD
BRANCH  14  16
HETATM   16  C7  UNL     1      25.922   2.686  50.719  1.00  0.00     0.016 A 
HETATM   17  C6  UNL     1      24.615   2.649  50.866  1.00  0.00     0.062 A 
HETATM   18  C4  UNL     1      24.352   1.603  51.809  1.00  0.00     0.077 A 
HETATM   19  C3  UNL     1      25.455   0.986  52.258  1.00  0.00    -0.015 A 
HETATM   20  C17 UNL     1      26.593   1.623  51.562  1.00  0.00     0.099 A 
BRANCH  18  21
HETATM   21  O2  UNL     1      23.137   1.159  52.308  1.00  0.00    -0.355 OA
HETATM   22  C5  UNL     1      21.928   1.863  52.072  1.00  0.00     0.210 C 
ENDBRANCH  18  21
BRANCH  19  23
HETATM   23  P1  UNL     1      25.809  -0.360  53.425  1.00  0.00    -0.071 P 
HETATM   24  H6  UNL     1      26.540  -1.403  52.738  1.00  0.00     0.064 HD
BRANCH  23  25
HETATM   25  C2  UNL     1      26.686   0.238  54.924  1.00  0.00     0.202 C 
BRANCH  25  26
HETATM   26  O1  UNL     1      27.970  -0.298  55.025  1.00  0.00    -0.392 OA
HETATM   27  C1  UNL     1      28.870   0.649  54.580  1.00  0.00     0.201 C 
ENDBRANCH  25  26
ENDBRANCH  23  25
ENDBRANCH  19  23
ENDBRANCH  14  16
ENDBRANCH   1  13
TORSDOF 8
ENDMDL
