MODEL 1
REMARK VINA RESULT:      -9.1      0.000      0.000
REMARK  5 active torsions:
REMARK  status: ('A' for Active; 'I' for Inactive)
REMARK    1  A    between atoms: C2_2  and  C3_3 
REMARK    2  A    between atoms: C8_8  and  C9_9 
REMARK    3  A    between atoms: C12_12  and  S1_13 
REMARK    4  A    between atoms: S1_13  and  C13_15 
REMARK    5  A    between atoms: C20_22  and  O2_23 
ROOT
HETATM    1  C3  UNL     1      29.634   0.166  53.789  1.00  0.00    -0.021 C 
HETATM    2  C4  UNL     1      28.497   0.737  54.157  1.00  0.00    -0.047 C 
HETATM    3  C5  UNL     1      27.387  -0.005  54.761  1.00  0.00     0.076 C 
HETATM    4  C6  UNL     1      26.078   0.398  54.131  1.00  0.00    -0.043 A 
HETATM    5  C7  UNL     1      24.905  -0.163  54.043  1.00  0.00     0.020 A 
HETATM    6  C8  UNL     1      23.989   0.709  53.295  1.00  0.00    -0.025 A 
HETATM    7  C17 UNL     1      24.601   1.829  52.912  1.00  0.00     0.024 A 
HETATM    8  C18 UNL     1      25.950   1.665  53.433  1.00  0.00    -0.030 A 
HETATM    9  C19 UNL     1      27.015   2.449  53.371  1.00  0.00     0.021 C 
HETATM   10  C20 UNL     1      28.366   2.200  53.936  1.00  0.00     0.171 C 
ENDROOT
BRANCH   6  11
HETATM   11  C9  UNL     1      22.588   0.408  52.999  1.00  0.00    -0.026 A 
HETATM   12  C10 UNL     1      21.785  -0.077  54.012  1.00  0.00     0.013 A 
HETATM   13  C11 UNL     1      20.465  -0.355  53.713  1.00  0.00     0.022 A 
HETATM   14  C12 UNL     1      19.936  -0.163  52.438  1.00  0.00     0.031 A 
HETATM   15  C15 UNL     1      20.754   0.326  51.425  1.00  0.00     0.022 A 
HETATM   16  C16 UNL     1      22.090   0.609  51.727  1.00  0.00     0.013 A 
BRANCH  14  17
HETATM   17  S1  UNL     1      18.249  -0.512  52.030  1.00  0.00     0.049 S 
HETATM   18  O1  UNL     1      17.513   0.785  51.734  1.00  0.00    -0.253 OA
BRANCH  17  19
HETATM   19  C13 UNL     1      17.469  -1.280  53.458  1.00  0.00     0.109 C 
HETATM   20  C14 UNL     1      17.765  -2.755  53.457  1.00  0.00     0.019 C 
ENDBRANCH  17  19
ENDBRANCH  14  17
ENDBRANCH   6  11
BRANCH  10  21
HETATM   21  O2  UNL     1      29.353   2.683  53.083  1.00  0.00    -0.387 OA
HETATM   22  H22 UNL     1      30.112   2.028  53.075  1.00  0.00     0.210 HD
ENDBRANCH  10  21
BRANCH   1  23
HETATM   23  C2  UNL     1      30.013  -1.268  53.900  1.00  0.00     0.023 C 
HETATM   24  C1  UNL     1      29.013  -2.015  53.012  1.00  0.00     0.009 C 
ENDBRANCH   1  23
TORSDOF 5
ENDMDL
MODEL 2
REMARK VINA RESULT:      -8.6      1.562      2.549
REMARK  5 active torsions:
REMARK  status: ('A' for Active; 'I' for Inactive)
REMARK    1  A    between atoms: C2_2  and  C3_3 
REMARK    2  A    between atoms: C8_8  and  C9_9 
REMARK    3  A    between atoms: C12_12  and  S1_13 
REMARK    4  A    between atoms: S1_13  and  C13_15 
REMARK    5  A    between atoms: C20_22  and  O2_23 
ROOT
HETATM    1  C3  UNL     1      27.624  -0.065  53.129  1.00  0.00    -0.021 C 
HETATM    2  C4  UNL     1      26.487   0.414  53.609  1.00  0.00    -0.047 C 
HETATM    3  C5  UNL     1      25.430  -0.437  54.164  1.00  0.00     0.076 C 
HETATM    4  C6  UNL     1      24.082  -0.014  53.639  1.00  0.00    -0.043 A 
HETATM    5  C7  UNL     1      22.926  -0.606  53.531  1.00  0.00     0.020 A 
HETATM    6  C8  UNL     1      21.949   0.312  52.930  1.00  0.00    -0.025 A 
HETATM    7  C17 UNL     1      22.504   1.492  52.660  1.00  0.00     0.024 A 
HETATM    8  C18 UNL     1      23.879   1.321  53.103  1.00  0.00    -0.030 A 
HETATM    9  C19 UNL     1      24.913   2.148  53.093  1.00  0.00     0.021 C 
HETATM   10  C20 UNL     1      26.296   1.887  53.571  1.00  0.00     0.171 C 
ENDROOT
BRANCH   6  11
HETATM   11  C9  UNL     1      20.547  -0.007  52.657  1.00  0.00    -0.026 A 
HETATM   12  C10 UNL     1      19.965   0.492  51.509  1.00  0.00     0.013 A 
HETATM   13  C11 UNL     1      18.640   0.180  51.268  1.00  0.00     0.022 A 
HETATM   14  C12 UNL     1      17.893  -0.612  52.138  1.00  0.00     0.031 A 
HETATM   15  C15 UNL     1      18.491  -1.110  53.292  1.00  0.00     0.022 A 
HETATM   16  C16 UNL     1      19.831  -0.795  53.536  1.00  0.00     0.013 A 
BRANCH  14  17
HETATM   17  S1  UNL     1      16.197  -1.026  51.852  1.00  0.00     0.049 S 
HETATM   18  O1  UNL     1      15.857  -0.818  50.384  1.00  0.00    -0.253 OA
BRANCH  17  19
HETATM   19  C13 UNL     1      15.171   0.090  52.822  1.00  0.00     0.109 C 
HETATM   20  C14 UNL     1      15.180   1.455  52.193  1.00  0.00     0.019 C 
ENDBRANCH  17  19
ENDBRANCH  14  17
ENDBRANCH   6  11
BRANCH  10  21
HETATM   21  O2  UNL     1      27.227   2.505  52.742  1.00  0.00    -0.387 OA
HETATM   22  H22 UNL     1      27.457   1.874  51.998  1.00  0.00     0.210 HD
ENDBRANCH  10  21
BRANCH   1  23
HETATM   23  C2  UNL     1      28.058  -1.485  53.053  1.00  0.00     0.023 C 
HETATM   24  C1  UNL     1      29.545  -1.469  53.419  1.00  0.00     0.009 C 
ENDBRANCH   1  23
TORSDOF 5
ENDMDL
MODEL 3
REMARK VINA RESULT:      -8.1      5.131      6.824
REMARK  5 active torsions:
REMARK  status: ('A' for Active; 'I' for Inactive)
REMARK    1  A    between atoms: C2_2  and  C3_3 
REMARK    2  A    between atoms: C8_8  and  C9_9 
REMARK    3  A    between atoms: C12_12  and  S1_13 
REMARK    4  A    between atoms: S1_13  and  C13_15 
REMARK    5  A    between atoms: C20_22  and  O2_23 
ROOT
HETATM    1  C3  UNL     1      28.434   8.563  48.828  1.00  0.00    -0.021 C 
HETATM    2  C4  UNL     1      27.897   7.435  48.389  1.00  0.00    -0.047 C 
HETATM    3  C5  UNL     1      26.452   7.191  48.366  1.00  0.00     0.076 C 
HETATM    4  C6  UNL     1      26.141   5.816  48.899  1.00  0.00    -0.043 A 
HETATM    5  C7  UNL     1      25.074   5.260  49.400  1.00  0.00     0.020 A 
HETATM    6  C8  UNL     1      25.361   3.864  49.758  1.00  0.00    -0.025 A 
HETATM    7  C17 UNL     1      26.624   3.547  49.475  1.00  0.00     0.024 A 
HETATM    8  C18 UNL     1      27.159   4.780  48.919  1.00  0.00    -0.030 A 
HETATM    9  C19 UNL     1      28.362   5.084  48.456  1.00  0.00     0.021 C 
HETATM   10  C20 UNL     1      28.825   6.382  47.901  1.00  0.00     0.171 C 
ENDROOT
BRANCH   6  11
HETATM   11  C9  UNL     1      24.402   2.928  50.347  1.00  0.00    -0.026 A 
HETATM   12  C10 UNL     1      23.189   2.736  49.716  1.00  0.00     0.013 A 
HETATM   13  C11 UNL     1      22.297   1.849  50.288  1.00  0.00     0.022 A 
HETATM   14  C12 UNL     1      22.587   1.157  51.463  1.00  0.00     0.031 A 
HETATM   15  C15 UNL     1      23.813   1.359  52.090  1.00  0.00     0.022 A 
HETATM   16  C16 UNL     1      24.716   2.256  51.512  1.00  0.00     0.013 A 
BRANCH  14  17
HETATM   17  S1  UNL     1      21.462   0.017  52.215  1.00  0.00     0.049 S 
HETATM   18  O1  UNL     1      20.394   0.779  52.983  1.00  0.00    -0.253 OA
BRANCH  17  19
HETATM   19  C13 UNL     1      22.379  -0.991  53.390  1.00  0.00     0.109 C 
HETATM   20  C14 UNL     1      21.769  -0.849  54.757  1.00  0.00     0.019 C 
ENDBRANCH  17  19
ENDBRANCH  14  17
ENDBRANCH   6  11
BRANCH  10  21
HETATM   21  O2  UNL     1      30.139   6.638  48.281  1.00  0.00    -0.387 OA
HETATM   22  H22 UNL     1      30.624   5.763  48.351  1.00  0.00     0.210 HD
ENDBRANCH  10  21
BRANCH   1  23
HETATM   23  C2  UNL     1      27.733   9.761  49.362  1.00  0.00     0.023 C 
HETATM   24  C1  UNL     1      28.587  10.953  48.919  1.00  0.00     0.009 C 
ENDBRANCH   1  23
TORSDOF 5
ENDMDL
MODEL 4
REMARK VINA RESULT:      -7.9      2.055      3.326
REMARK  5 active torsions:
REMARK  status: ('A' for Active; 'I' for Inactive)
REMARK    1  A    between atoms: C2_2  and  C3_3 
REMARK    2  A    between atoms: C8_8  and  C9_9 
REMARK    3  A    between atoms: C12_12  and  S1_13 
REMARK    4  A    between atoms: S1_13  and  C13_15 
REMARK    5  A    between atoms: C20_22  and  O2_23 
ROOT
HETATM    1  C3  UNL     1      26.500   0.242  52.743  1.00  0.00    -0.021 C 
HETATM    2  C4  UNL     1      25.343   0.615  53.269  1.00  0.00    -0.047 C 
HETATM    3  C5  UNL     1      24.380  -0.331  53.839  1.00  0.00     0.076 C 
HETATM    4  C6  UNL     1      22.984  -0.013  53.367  1.00  0.00    -0.043 A 
HETATM    5  C7  UNL     1      21.878  -0.697  53.283  1.00  0.00     0.020 A 
HETATM    6  C8  UNL     1      20.809   0.148  52.734  1.00  0.00    -0.025 A 
HETATM    7  C17 UNL     1      21.255   1.375  52.472  1.00  0.00     0.024 A 
HETATM    8  C18 UNL     1      22.654   1.311  52.867  1.00  0.00    -0.030 A 
HETATM    9  C19 UNL     1      23.615   2.221  52.841  1.00  0.00     0.021 C 
HETATM   10  C20 UNL     1      25.030   2.067  53.268  1.00  0.00     0.171 C 
ENDROOT
BRANCH   6  11
HETATM   11  C9  UNL     1      19.430  -0.282  52.499  1.00  0.00    -0.026 A 
HETATM   12  C10 UNL     1      18.835  -1.132  53.409  1.00  0.00     0.013 A 
HETATM   13  C11 UNL     1      17.532  -1.526  53.169  1.00  0.00     0.022 A 
HETATM   14  C12 UNL     1      16.819  -1.094  52.053  1.00  0.00     0.031 A 
HETATM   15  C15 UNL     1      17.428  -0.237  51.142  1.00  0.00     0.022 A 
HETATM   16  C16 UNL     1      18.747   0.163  51.384  1.00  0.00     0.013 A 
BRANCH  14  17
HETATM   17  S1  UNL     1      15.151  -1.585  51.723  1.00  0.00     0.049 S 
HETATM   18  O1  UNL     1      14.188  -0.576  52.331  1.00  0.00    -0.253 OA
BRANCH  17  19
HETATM   19  C13 UNL     1      14.862  -3.174  52.515  1.00  0.00     0.109 C 
HETATM   20  C14 UNL     1      13.421  -3.566  52.342  1.00  0.00     0.019 C 
ENDBRANCH  17  19
ENDBRANCH  14  17
ENDBRANCH   6  11
BRANCH  10  21
HETATM   21  O2  UNL     1      25.878   2.776  52.423  1.00  0.00    -0.387 OA
HETATM   22  H22 UNL     1      25.521   3.708  52.326  1.00  0.00     0.210 HD
ENDBRANCH  10  21
BRANCH   1  23
HETATM   23  C2  UNL     1      27.046  -1.136  52.622  1.00  0.00     0.023 C 
HETATM   24  C1  UNL     1      28.452  -1.062  53.226  1.00  0.00     0.009 C 
ENDBRANCH   1  23
TORSDOF 5
ENDMDL
MODEL 5
REMARK VINA RESULT:      -7.8      5.829      8.513
REMARK  5 active torsions:
REMARK  status: ('A' for Active; 'I' for Inactive)
REMARK    1  A    between atoms: C2_2  and  C3_3 
REMARK    2  A    between atoms: C8_8  and  C9_9 
REMARK    3  A    between atoms: C12_12  and  S1_13 
REMARK    4  A    between atoms: S1_13  and  C13_15 
REMARK    5  A    between atoms: C20_22  and  O2_23 
ROOT
HETATM    1  C3  UNL     1      23.638  -0.586  53.170  1.00  0.00    -0.021 C 
HETATM    2  C4  UNL     1      24.513   0.401  53.055  1.00  0.00    -0.047 C 
HETATM    3  C5  UNL     1      24.130   1.816  53.067  1.00  0.00     0.076 C 
HETATM    4  C6  UNL     1      24.838   2.564  51.966  1.00  0.00    -0.043 A 
HETATM    5  C7  UNL     1      24.611   3.684  51.341  1.00  0.00     0.020 A 
HETATM    6  C8  UNL     1      25.659   3.919  50.339  1.00  0.00    -0.025 A 
HETATM    7  C17 UNL     1      26.552   2.930  50.340  1.00  0.00     0.024 A 
HETATM    8  C18 UNL     1      26.056   2.037  51.376  1.00  0.00    -0.030 A 
HETATM    9  C19 UNL     1      26.520   0.885  51.836  1.00  0.00     0.021 C 
HETATM   10  C20 UNL     1      25.944   0.032  52.908  1.00  0.00     0.171 C 
ENDROOT
BRANCH   6  11
HETATM   11  C9  UNL     1      25.733   5.077  49.448  1.00  0.00    -0.026 A 
HETATM   12  C10 UNL     1      24.571   5.765  49.156  1.00  0.00     0.013 A 
HETATM   13  C11 UNL     1      24.661   6.856  48.313  1.00  0.00     0.022 A 
HETATM   14  C12 UNL     1      25.872   7.271  47.762  1.00  0.00     0.031 A 
HETATM   15  C15 UNL     1      27.036   6.571  48.063  1.00  0.00     0.022 A 
HETATM   16  C16 UNL     1      26.946   5.467  48.916  1.00  0.00     0.013 A 
BRANCH  14  17
HETATM   17  S1  UNL     1      26.013   8.664  46.679  1.00  0.00     0.049 S 
HETATM   18  O1  UNL     1      25.325   8.361  45.358  1.00  0.00    -0.253 OA
BRANCH  17  19
HETATM   19  C13 UNL     1      27.758   8.946  46.345  1.00  0.00     0.109 C 
HETATM   20  C14 UNL     1      28.086   8.474  44.956  1.00  0.00     0.019 C 
ENDBRANCH  17  19
ENDBRANCH  14  17
ENDBRANCH   6  11
BRANCH  10  21
HETATM   21  O2  UNL     1      26.099  -1.316  52.599  1.00  0.00    -0.387 OA
HETATM   22  H22 UNL     1      25.318  -1.604  52.041  1.00  0.00     0.210 HD
ENDBRANCH  10  21
BRANCH   1  23
HETATM   23  C2  UNL     1      22.163  -0.486  53.328  1.00  0.00     0.023 C 
HETATM   24  C1  UNL     1      21.893  -0.850  54.791  1.00  0.00     0.009 C 
ENDBRANCH   1  23
TORSDOF 5
ENDMDL
MODEL 6
REMARK VINA RESULT:      -7.7      4.837      5.896
REMARK  5 active torsions:
REMARK  status: ('A' for Active; 'I' for Inactive)
REMARK    1  A    between atoms: C2_2  and  C3_3 
REMARK    2  A    between atoms: C8_8  and  C9_9 
REMARK    3  A    between atoms: C12_12  and  S1_13 
REMARK    4  A    between atoms: S1_13  and  C13_15 
REMARK    5  A    between atoms: C20_22  and  O2_23 
ROOT
HETATM    1  C3  UNL     1      27.731  -0.195  54.143  1.00  0.00    -0.021 C 
HETATM    2  C4  UNL     1      26.706  -0.070  53.313  1.00  0.00    -0.047 C 
HETATM    3  C5  UNL     1      26.785   0.665  52.048  1.00  0.00     0.076 C 
HETATM    4  C6  UNL     1      25.581   1.556  51.879  1.00  0.00    -0.043 A 
HETATM    5  C7  UNL     1      25.333   2.616  51.164  1.00  0.00     0.020 A 
HETATM    6  C8  UNL     1      23.957   3.072  51.407  1.00  0.00    -0.025 A 
HETATM    7  C17 UNL     1      23.341   2.284  52.287  1.00  0.00     0.024 A 
HETATM    8  C18 UNL     1      24.356   1.294  52.614  1.00  0.00    -0.030 A 
HETATM    9  C19 UNL     1      24.333   0.253  53.431  1.00  0.00     0.021 C 
HETATM   10  C20 UNL     1      25.426  -0.715  53.707  1.00  0.00     0.171 C 
ENDROOT
BRANCH   6  11
HETATM   11  C9  UNL     1      23.328   4.235  50.779  1.00  0.00    -0.026 A 
HETATM   12  C10 UNL     1      22.435   4.985  51.516  1.00  0.00     0.013 A 
HETATM   13  C11 UNL     1      21.852   6.079  50.905  1.00  0.00     0.022 A 
HETATM   14  C12 UNL     1      22.139   6.435  49.588  1.00  0.00     0.031 A 
HETATM   15  C15 UNL     1      23.041   5.671  48.855  1.00  0.00     0.022 A 
HETATM   16  C16 UNL     1      23.632   4.564  49.473  1.00  0.00     0.013 A 
BRANCH  14  17
HETATM   17  S1  UNL     1      21.405   7.830  48.783  1.00  0.00     0.049 S 
HETATM   18  O1  UNL     1      22.139   9.100  49.184  1.00  0.00    -0.253 OA
BRANCH  17  19
HETATM   19  C13 UNL     1      19.701   7.973  49.342  1.00  0.00     0.109 C 
HETATM   20  C14 UNL     1      19.533   9.251  50.117  1.00  0.00     0.019 C 
ENDBRANCH  17  19
ENDBRANCH  14  17
ENDBRANCH   6  11
BRANCH  10  21
HETATM   21  O2  UNL     1      25.428  -1.086  55.048  1.00  0.00    -0.387 OA
HETATM   22  H22 UNL     1      25.709  -2.046  55.110  1.00  0.00     0.210 HD
ENDBRANCH  10  21
BRANCH   1  23
HETATM   23  C2  UNL     1      29.106   0.349  53.984  1.00  0.00     0.023 C 
HETATM   24  C1  UNL     1      29.945  -0.830  53.482  1.00  0.00     0.009 C 
ENDBRANCH   1  23
TORSDOF 5
ENDMDL
MODEL 7
REMARK VINA RESULT:      -7.6      3.091      8.784
REMARK  5 active torsions:
REMARK  status: ('A' for Active; 'I' for Inactive)
REMARK    1  A    between atoms: C2_2  and  C3_3 
REMARK    2  A    between atoms: C8_8  and  C9_9 
REMARK    3  A    between atoms: C12_12  and  S1_13 
REMARK    4  A    between atoms: S1_13  and  C13_15 
REMARK    5  A    between atoms: C20_22  and  O2_23 
ROOT
HETATM    1  C3  UNL     1      18.537   2.556  49.057  1.00  0.00    -0.021 C 
HETATM    2  C4  UNL     1      18.988   2.194  50.249  1.00  0.00    -0.047 C 
HETATM    3  C5  UNL     1      19.966   2.979  51.007  1.00  0.00     0.076 C 
HETATM    4  C6  UNL     1      21.036   2.082  51.576  1.00  0.00    -0.043 A 
HETATM    5  C7  UNL     1      22.253   2.280  51.998  1.00  0.00     0.020 A 
HETATM    6  C8  UNL     1      22.836   1.010  52.452  1.00  0.00    -0.025 A 
HETATM    7  C17 UNL     1      21.970   0.008  52.311  1.00  0.00     0.024 A 
HETATM    8  C18 UNL     1      20.797   0.660  51.749  1.00  0.00    -0.030 A 
HETATM    9  C19 UNL     1      19.615   0.182  51.393  1.00  0.00     0.021 C 
HETATM   10  C20 UNL     1      18.463   0.928  50.822  1.00  0.00     0.171 C 
ENDROOT
BRANCH   6  11
HETATM   11  C9  UNL     1      24.187   0.846  52.991  1.00  0.00    -0.026 A 
HETATM   12  C10 UNL     1      24.972   1.967  53.169  1.00  0.00     0.013 A 
HETATM   13  C11 UNL     1      26.244   1.791  53.679  1.00  0.00     0.022 A 
HETATM   14  C12 UNL     1      26.744   0.533  54.011  1.00  0.00     0.031 A 
HETATM   15  C15 UNL     1      25.944  -0.590  53.828  1.00  0.00     0.022 A 
HETATM   16  C16 UNL     1      24.656  -0.413  53.312  1.00  0.00     0.013 A 
BRANCH  14  17
HETATM   17  S1  UNL     1      28.369   0.282  54.665  1.00  0.00     0.049 S 
HETATM   18  O1  UNL     1      28.960   1.614  55.099  1.00  0.00    -0.253 OA
BRANCH  17  19
HETATM   19  C13 UNL     1      29.408  -0.387  53.358  1.00  0.00     0.109 C 
HETATM   20  C14 UNL     1      30.138  -1.598  53.868  1.00  0.00     0.019 C 
ENDBRANCH  17  19
ENDBRANCH  14  17
ENDBRANCH   6  11
BRANCH  10  21
HETATM   21  O2  UNL     1      17.808   0.161  49.863  1.00  0.00    -0.387 OA
HETATM   22  H22 UNL     1      17.333  -0.588  50.328  1.00  0.00     0.210 HD
ENDBRANCH  10  21
BRANCH   1  23
HETATM   23  C2  UNL     1      18.899   3.765  48.272  1.00  0.00     0.023 C 
HETATM   24  C1  UNL     1      20.112   3.348  47.434  1.00  0.00     0.009 C 
ENDBRANCH   1  23
TORSDOF 5
ENDMDL
MODEL 8
REMARK VINA RESULT:      -7.5      3.064      4.676
REMARK  5 active torsions:
REMARK  status: ('A' for Active; 'I' for Inactive)
REMARK    1  A    between atoms: C2_2  and  C3_3 
REMARK    2  A    between atoms: C8_8  and  C9_9 
REMARK    3  A    between atoms: C12_12  and  S1_13 
REMARK    4  A    between atoms: S1_13  and  C13_15 
REMARK    5  A    between atoms: C20_22  and  O2_23 
ROOT
HETATM    1  C3  UNL     1      25.990   4.723  49.751  1.00  0.00    -0.021 C 
HETATM    2  C4  UNL     1      25.534   3.485  49.866  1.00  0.00    -0.047 C 
HETATM    3  C5  UNL     1      24.322   3.012  49.192  1.00  0.00     0.076 C 
HETATM    4  C6  UNL     1      23.465   2.216  50.143  1.00  0.00    -0.043 A 
HETATM    5  C7  UNL     1      22.203   1.892  50.170  1.00  0.00     0.020 A 
HETATM    6  C8  UNL     1      21.920   1.087  51.366  1.00  0.00    -0.025 A 
HETATM    7  C17 UNL     1      23.021   0.908  52.095  1.00  0.00     0.024 A 
HETATM    8  C18 UNL     1      24.039   1.622  51.338  1.00  0.00    -0.030 A 
HETATM    9  C19 UNL     1      25.332   1.800  51.560  1.00  0.00     0.021 C 
HETATM   10  C20 UNL     1      26.306   2.551  50.726  1.00  0.00     0.171 C 
ENDROOT
BRANCH   6  11
HETATM   11  C9  UNL     1      20.610   0.543  51.729  1.00  0.00    -0.026 A 
HETATM   12  C10 UNL     1      20.482  -0.141  52.921  1.00  0.00     0.013 A 
HETATM   13  C11 UNL     1      19.238  -0.646  53.245  1.00  0.00     0.022 A 
HETATM   14  C12 UNL     1      18.131  -0.484  52.414  1.00  0.00     0.031 A 
HETATM   15  C15 UNL     1      18.271   0.208  51.216  1.00  0.00     0.022 A 
HETATM   16  C16 UNL     1      19.530   0.719  50.886  1.00  0.00     0.013 A 
BRANCH  14  17
HETATM   17  S1  UNL     1      16.527  -1.122  52.807  1.00  0.00     0.049 S 
HETATM   18  O1  UNL     1      16.583  -2.639  52.889  1.00  0.00    -0.253 OA
BRANCH  17  19
HETATM   19  C13 UNL     1      15.400  -0.677  51.477  1.00  0.00     0.109 C 
HETATM   20  C14 UNL     1      15.061  -1.903  50.676  1.00  0.00     0.019 C 
ENDBRANCH  17  19
ENDBRANCH  14  17
ENDBRANCH   6  11
BRANCH  10  21
HETATM   21  O2  UNL     1      27.221   3.226  51.527  1.00  0.00    -0.387 OA
HETATM   22  H22 UNL     1      26.839   3.300  52.451  1.00  0.00     0.210 HD
ENDBRANCH  10  21
BRANCH   1  23
HETATM   23  C2  UNL     1      25.409   5.840  48.959  1.00  0.00     0.023 C 
HETATM   24  C1  UNL     1      26.608   6.697  48.541  1.00  0.00     0.009 C 
ENDBRANCH   1  23
TORSDOF 5
ENDMDL
MODEL 9
REMARK VINA RESULT:      -7.5      7.470     11.290
REMARK  5 active torsions:
REMARK  status: ('A' for Active; 'I' for Inactive)
REMARK    1  A    between atoms: C2_2  and  C3_3 
REMARK    2  A    between atoms: C8_8  and  C9_9 
REMARK    3  A    between atoms: C12_12  and  S1_13 
REMARK    4  A    between atoms: S1_13  and  C13_15 
REMARK    5  A    between atoms: C20_22  and  O2_23 
ROOT
HETATM    1  C3  UNL     1      23.964   3.482  52.286  1.00  0.00    -0.021 C 
HETATM    2  C4  UNL     1      24.203   4.012  51.096  1.00  0.00    -0.047 C 
HETATM    3  C5  UNL     1      25.153   3.437  50.139  1.00  0.00     0.076 C 
HETATM    4  C6  UNL     1      26.022   4.516  49.547  1.00  0.00    -0.043 A 
HETATM    5  C7  UNL     1      27.185   4.521  48.958  1.00  0.00     0.020 A 
HETATM    6  C8  UNL     1      27.548   5.893  48.581  1.00  0.00    -0.025 A 
HETATM    7  C17 UNL     1      26.598   6.756  48.939  1.00  0.00     0.024 A 
HETATM    8  C18 UNL     1      25.597   5.905  49.565  1.00  0.00    -0.030 A 
HETATM    9  C19 UNL     1      24.427   6.188  50.116  1.00  0.00     0.021 C 
HETATM   10  C20 UNL     1      23.459   5.248  50.738  1.00  0.00     0.171 C 
ENDROOT
BRANCH   6  11
HETATM   11  C9  UNL     1      28.784   6.284  47.901  1.00  0.00    -0.026 A 
HETATM   12  C10 UNL     1      28.771   7.401  47.090  1.00  0.00     0.013 A 
HETATM   13  C11 UNL     1      29.948   7.754  46.457  1.00  0.00     0.022 A 
HETATM   14  C12 UNL     1      31.124   7.023  46.614  1.00  0.00     0.031 A 
HETATM   15  C15 UNL     1      31.125   5.898  47.434  1.00  0.00     0.022 A 
HETATM   16  C16 UNL     1      29.935   5.541  48.075  1.00  0.00     0.013 A 
BRANCH  14  17
HETATM   17  S1  UNL     1      32.643   7.453  45.814  1.00  0.00     0.049 S 
HETATM   18  O1  UNL     1      32.912   6.489  44.669  1.00  0.00    -0.253 OA
BRANCH  17  19
HETATM   19  C13 UNL     1      33.978   7.285  47.008  1.00  0.00     0.109 C 
HETATM   20  C14 UNL     1      34.111   8.559  47.795  1.00  0.00     0.019 C 
ENDBRANCH  17  19
ENDBRANCH  14  17
ENDBRANCH   6  11
BRANCH  10  21
HETATM   21  O2  UNL     1      22.856   5.826  51.850  1.00  0.00    -0.387 OA
HETATM   22  H22 UNL     1      22.243   5.151  52.265  1.00  0.00     0.210 HD
ENDBRANCH  10  21
BRANCH   1  23
HETATM   23  C2  UNL     1      24.569   2.260  52.880  1.00  0.00     0.023 C 
HETATM   24  C1  UNL     1      23.537   1.152  52.648  1.00  0.00     0.009 C 
ENDBRANCH   1  23
TORSDOF 5
ENDMDL
