MODEL 1
REMARK VINA RESULT:      -8.2      0.000      0.000
REMARK  6 active torsions:
REMARK  status: ('A' for Active; 'I' for Inactive)
REMARK    1  A    between atoms: N1_3  and  C3_4 
REMARK    2  A    between atoms: C3_4  and  C4_5 
REMARK    3  A    between atoms: C5_6  and  C6_7 
REMARK    4  A    between atoms: N3_10  and  C8_11 
REMARK    5  A    between atoms: C12_15  and  N4_16 
REMARK       I    between atoms: N4_16  and  C13_17 
REMARK    6  A    between atoms: C13_17  and  C14_19 
ROOT
HETATM    1  C8  UNL     1      24.531   0.603  52.707  1.00  0.00     0.049 A 
HETATM    2  C9  UNL     1      25.531  -0.113  53.333  1.00  0.00     0.031 A 
HETATM    3  C10 UNL     1      26.862   0.234  53.207  1.00  0.00     0.005 A 
HETATM    4  C11 UNL     1      27.231   1.334  52.432  1.00  0.00     0.029 A 
HETATM    5  C12 UNL     1      26.259   2.077  51.789  1.00  0.00     0.037 A 
HETATM    6  C19 UNL     1      24.949   1.680  51.952  1.00  0.00     0.060 A 
ENDROOT
BRANCH   1   7
HETATM    7  N3  UNL     1      23.166   0.239  52.842  1.00  0.00    -0.293 N 
HETATM    8  C7  UNL     1      22.164   0.967  52.124  1.00  0.00     0.292 C 
HETATM    9  N2  UNL     1      20.877   0.298  52.274  1.00  0.00    -0.272 NA
HETATM   10  C6  UNL     1      20.578  -0.397  53.316  1.00  0.00     0.045 C 
HETATM   11  C20 UNL     1      21.628  -0.478  54.364  1.00  0.00     0.169 C 
HETATM   12  N5  UNL     1      22.875  -0.845  53.701  1.00  0.00    -0.231 NA
HETATM   13  H21 UNL     1      22.624  -1.657  53.091  1.00  0.00     0.147 HD
BRANCH  10  14
HETATM   14  C5  UNL     1      19.303  -1.063  53.470  1.00  0.00     0.026 C 
HETATM   15  C4  UNL     1      18.301  -0.802  52.671  1.00  0.00    -0.003 C 
BRANCH  15  16
HETATM   16  C3  UNL     1      16.964  -1.469  52.796  1.00  0.00     0.175 C 
BRANCH  16  17
HETATM   17  N1  UNL     1      17.082  -2.758  53.399  1.00  0.00    -0.302 NA
HETATM   18  C2  UNL     1      16.288  -3.739  53.180  1.00  0.00     0.079 C 
HETATM   19  C1  UNL     1      15.148  -3.551  52.231  1.00  0.00     0.056 C 
ENDBRANCH  16  17
ENDBRANCH  15  16
ENDBRANCH  10  14
ENDBRANCH   1   7
BRANCH   5  20
HETATM   20  N4  UNL     1      26.626   3.200  50.996  1.00  0.00    -0.323 N 
HETATM   21  C13 UNL     1      26.052   3.691  49.802  1.00  0.00     0.252 C 
HETATM   22  O1  UNL     1      25.062   3.134  49.261  1.00  0.00    -0.268 OA
HETATM   23  H14 UNL     1      27.456   3.618  51.501  1.00  0.00     0.169 HD
BRANCH  21  24
HETATM   24  C14 UNL     1      26.649   4.881  49.205  1.00  0.00     0.013 A 
HETATM   25  C15 UNL     1      26.093   6.082  49.180  1.00  0.00     0.013 A 
HETATM   26  C16 UNL     1      26.979   7.023  48.503  1.00  0.00    -0.003 A 
HETATM   27  C17 UNL     1      28.075   6.384  48.120  1.00  0.00    -0.022 A 
HETATM   28  C18 UNL     1      27.970   4.940  48.535  1.00  0.00     0.071 A 
ENDBRANCH  21  24
ENDBRANCH   5  20
TORSDOF 6
ENDMDL
MODEL 2
REMARK VINA RESULT:      -8.2      2.294     10.222
REMARK  6 active torsions:
REMARK  status: ('A' for Active; 'I' for Inactive)
REMARK    1  A    between atoms: N1_3  and  C3_4 
REMARK    2  A    between atoms: C3_4  and  C4_5 
REMARK    3  A    between atoms: C5_6  and  C6_7 
REMARK    4  A    between atoms: N3_10  and  C8_11 
REMARK    5  A    between atoms: C12_15  and  N4_16 
REMARK       I    between atoms: N4_16  and  C13_17 
REMARK    6  A    between atoms: C13_17  and  C14_19 
ROOT
HETATM    1  C8  UNL     1      24.706   1.853  51.916  1.00  0.00     0.049 A 
HETATM    2  C9  UNL     1      25.585   1.205  52.760  1.00  0.00     0.031 A 
HETATM    3  C10 UNL     1      25.191   0.133  53.537  1.00  0.00     0.005 A 
HETATM    4  C11 UNL     1      23.874  -0.327  53.484  1.00  0.00     0.029 A 
HETATM    5  C12 UNL     1      22.964   0.295  52.650  1.00  0.00     0.037 A 
HETATM    6  C19 UNL     1      23.417   1.360  51.900  1.00  0.00     0.060 A 
ENDROOT
BRANCH   1   7
HETATM    7  N3  UNL     1      25.121   2.953  51.121  1.00  0.00    -0.293 N 
HETATM    8  C7  UNL     1      24.143   3.726  50.415  1.00  0.00     0.292 C 
HETATM    9  N2  UNL     1      24.782   4.900  49.831  1.00  0.00    -0.272 NA
HETATM   10  C6  UNL     1      26.020   4.907  49.476  1.00  0.00     0.045 C 
HETATM   11  C20 UNL     1      26.765   3.640  49.700  1.00  0.00     0.169 C 
HETATM   12  N5  UNL     1      26.508   3.222  51.074  1.00  0.00    -0.231 NA
HETATM   13  H21 UNL     1      26.670   4.080  51.649  1.00  0.00     0.147 HD
BRANCH  10  14
HETATM   14  C5  UNL     1      26.659   6.068  48.896  1.00  0.00     0.026 C 
HETATM   15  C4  UNL     1      27.804   5.969  48.271  1.00  0.00    -0.003 C 
BRANCH  15  16
HETATM   16  C3  UNL     1      28.500   7.146  47.656  1.00  0.00     0.175 C 
BRANCH  16  17
HETATM   17  N1  UNL     1      29.803   7.327  48.211  1.00  0.00    -0.302 NA
HETATM   18  C2  UNL     1      30.139   8.296  48.977  1.00  0.00     0.079 C 
HETATM   19  C1  UNL     1      29.116   9.327  49.333  1.00  0.00     0.056 C 
ENDBRANCH  16  17
ENDBRANCH  15  16
ENDBRANCH  10  14
ENDBRANCH   1   7
BRANCH   5  20
HETATM   20  N4  UNL     1      21.619  -0.166  52.589  1.00  0.00    -0.323 N 
HETATM   21  C13 UNL     1      20.597  -0.109  53.563  1.00  0.00     0.252 C 
HETATM   22  O1  UNL     1      20.786   0.405  54.696  1.00  0.00    -0.268 OA
HETATM   23  H14 UNL     1      21.528  -0.581  51.620  1.00  0.00     0.169 HD
BRANCH  21  24
HETATM   24  C14 UNL     1      19.297  -0.669  53.212  1.00  0.00     0.013 A 
HETATM   25  C15 UNL     1      18.472  -0.172  52.304  1.00  0.00     0.013 A 
HETATM   26  C16 UNL     1      17.271  -0.995  52.223  1.00  0.00    -0.003 A 
HETATM   27  C17 UNL     1      17.375  -1.994  53.087  1.00  0.00    -0.022 A 
HETATM   28  C18 UNL     1      18.691  -1.883  53.809  1.00  0.00     0.071 A 
ENDBRANCH  21  24
ENDBRANCH   5  20
TORSDOF 6
ENDMDL
MODEL 3
REMARK VINA RESULT:      -8.2      4.262      7.606
REMARK  6 active torsions:
REMARK  status: ('A' for Active; 'I' for Inactive)
REMARK    1  A    between atoms: N1_3  and  C3_4 
REMARK    2  A    between atoms: C3_4  and  C4_5 
REMARK    3  A    between atoms: C5_6  and  C6_7 
REMARK    4  A    between atoms: N3_10  and  C8_11 
REMARK    5  A    between atoms: C12_15  and  N4_16 
REMARK       I    between atoms: N4_16  and  C13_17 
REMARK    6  A    between atoms: C13_17  and  C14_19 
ROOT
HETATM    1  C8  UNL     1      22.046   1.287  53.038  1.00  0.00     0.049 A 
HETATM    2  C9  UNL     1      21.220   0.491  53.806  1.00  0.00     0.031 A 
HETATM    3  C10 UNL     1      21.700  -0.610  54.488  1.00  0.00     0.005 A 
HETATM    4  C11 UNL     1      23.054  -0.946  54.416  1.00  0.00     0.029 A 
HETATM    5  C12 UNL     1      23.912  -0.172  53.658  1.00  0.00     0.037 A 
HETATM    6  C19 UNL     1      23.373   0.913  52.999  1.00  0.00     0.060 A 
ENDROOT
BRANCH   1   7
HETATM    7  N3  UNL     1      21.543   2.417  52.340  1.00  0.00    -0.293 N 
HETATM    8  C7  UNL     1      20.128   2.594  52.207  1.00  0.00     0.292 C 
HETATM    9  N2  UNL     1      19.856   3.904  51.627  1.00  0.00    -0.272 NA
HETATM   10  C6  UNL     1      20.680   4.489  50.828  1.00  0.00     0.045 C 
HETATM   11  C20 UNL     1      21.933   3.746  50.531  1.00  0.00     0.169 C 
HETATM   12  N5  UNL     1      22.494   3.316  51.807  1.00  0.00    -0.231 NA
HETATM   13  H21 UNL     1      22.475   4.170  52.409  1.00  0.00     0.147 HD
BRANCH  10  14
HETATM   14  C5  UNL     1      20.416   5.788  50.248  1.00  0.00     0.026 C 
HETATM   15  C4  UNL     1      21.242   6.787  50.420  1.00  0.00    -0.003 C 
BRANCH  15  16
HETATM   16  C3  UNL     1      21.007   8.148  49.837  1.00  0.00     0.175 C 
BRANCH  16  17
HETATM   17  N1  UNL     1      19.612   8.435  49.736  1.00  0.00    -0.302 NA
HETATM   18  C2  UNL     1      19.121   9.605  49.562  1.00  0.00     0.079 C 
HETATM   19  C1  UNL     1      20.049  10.772  49.453  1.00  0.00     0.056 C 
ENDBRANCH  16  17
ENDBRANCH  15  16
ENDBRANCH  10  14
ENDBRANCH   1   7
BRANCH   5  20
HETATM   20  N4  UNL     1      25.293  -0.507  53.578  1.00  0.00    -0.323 N 
HETATM   21  C13 UNL     1      26.426   0.209  54.025  1.00  0.00     0.252 C 
HETATM   22  O1  UNL     1      26.324   1.325  54.596  1.00  0.00    -0.268 OA
HETATM   23  H14 UNL     1      25.307  -1.448  53.093  1.00  0.00     0.169 HD
BRANCH  21  24
HETATM   24  C14 UNL     1      27.737  -0.394  53.804  1.00  0.00     0.013 A 
HETATM   25  C15 UNL     1      27.960  -1.501  53.115  1.00  0.00     0.013 A 
HETATM   26  C16 UNL     1      29.388  -1.798  53.106  1.00  0.00    -0.003 A 
HETATM   27  C17 UNL     1      30.027  -0.863  53.793  1.00  0.00    -0.022 A 
HETATM   28  C18 UNL     1      29.025   0.135  54.310  1.00  0.00     0.071 A 
ENDBRANCH  21  24
ENDBRANCH   5  20
TORSDOF 6
ENDMDL
MODEL 4
REMARK VINA RESULT:      -8.1      3.475      6.591
REMARK  6 active torsions:
REMARK  status: ('A' for Active; 'I' for Inactive)
REMARK    1  A    between atoms: N1_3  and  C3_4 
REMARK    2  A    between atoms: C3_4  and  C4_5 
REMARK    3  A    between atoms: C5_6  and  C6_7 
REMARK    4  A    between atoms: N3_10  and  C8_11 
REMARK    5  A    between atoms: C12_15  and  N4_16 
REMARK       I    between atoms: N4_16  and  C13_17 
REMARK    6  A    between atoms: C13_17  and  C14_19 
ROOT
HETATM    1  C8  UNL     1      26.927   5.435  48.940  1.00  0.00     0.049 A 
HETATM    2  C9  UNL     1      26.621   6.703  48.490  1.00  0.00     0.031 A 
HETATM    3  C10 UNL     1      27.523   7.455  47.762  1.00  0.00     0.005 A 
HETATM    4  C11 UNL     1      28.784   6.939  47.460  1.00  0.00     0.029 A 
HETATM    5  C12 UNL     1      29.129   5.673  47.893  1.00  0.00     0.037 A 
HETATM    6  C19 UNL     1      28.186   4.973  48.616  1.00  0.00     0.060 A 
ENDROOT
BRANCH   1   7
HETATM    7  N3  UNL     1      25.993   4.671  49.687  1.00  0.00    -0.293 N 
HETATM    8  C7  UNL     1      24.898   5.327  50.336  1.00  0.00     0.292 C 
HETATM    9  N2  UNL     1      23.983   4.328  50.873  1.00  0.00    -0.272 NA
HETATM   10  C6  UNL     1      24.378   3.162  51.250  1.00  0.00     0.045 C 
HETATM   11  C20 UNL     1      25.833   2.892  51.103  1.00  0.00     0.169 C 
HETATM   12  N5  UNL     1      26.210   3.275  49.746  1.00  0.00    -0.231 NA
HETATM   13  H21 UNL     1      25.490   2.830  49.133  1.00  0.00     0.147 HD
BRANCH  10  14
HETATM   14  C5  UNL     1      23.475   2.166  51.784  1.00  0.00     0.026 C 
HETATM   15  C4  UNL     1      23.927   1.084  52.364  1.00  0.00    -0.003 C 
BRANCH  15  16
HETATM   16  C3  UNL     1      23.026   0.028  52.931  1.00  0.00     0.175 C 
BRANCH  16  17
HETATM   17  N1  UNL     1      21.919   0.606  53.623  1.00  0.00    -0.302 NA
HETATM   18  C2  UNL     1      21.084  -0.052  54.337  1.00  0.00     0.079 C 
HETATM   19  C1  UNL     1      21.254  -1.531  54.475  1.00  0.00     0.056 C 
ENDBRANCH  16  17
ENDBRANCH  15  16
ENDBRANCH  10  14
ENDBRANCH   1   7
BRANCH   5  20
HETATM   20  N4  UNL     1      30.412   5.139  47.590  1.00  0.00    -0.323 N 
HETATM   21  C13 UNL     1      31.575   5.066  48.390  1.00  0.00     0.252 C 
HETATM   22  O1  UNL     1      31.600   5.510  49.567  1.00  0.00    -0.268 OA
HETATM   23  H14 UNL     1      30.322   4.786  46.596  1.00  0.00     0.169 HD
BRANCH  21  24
HETATM   24  C14 UNL     1      32.762   4.453  47.804  1.00  0.00     0.013 A 
HETATM   25  C15 UNL     1      32.753   3.475  46.912  1.00  0.00     0.013 A 
HETATM   26  C16 UNL     1      34.122   3.120  46.555  1.00  0.00    -0.003 A 
HETATM   27  C17 UNL     1      34.958   3.889  47.236  1.00  0.00    -0.022 A 
HETATM   28  C18 UNL     1      34.164   4.825  48.108  1.00  0.00     0.071 A 
ENDBRANCH  21  24
ENDBRANCH   5  20
TORSDOF 6
ENDMDL
MODEL 5
REMARK VINA RESULT:      -7.7      4.479      6.713
REMARK  6 active torsions:
REMARK  status: ('A' for Active; 'I' for Inactive)
REMARK    1  A    between atoms: N1_3  and  C3_4 
REMARK    2  A    between atoms: C3_4  and  C4_5 
REMARK    3  A    between atoms: C5_6  and  C6_7 
REMARK    4  A    between atoms: N3_10  and  C8_11 
REMARK    5  A    between atoms: C12_15  and  N4_16 
REMARK       I    between atoms: N4_16  and  C13_17 
REMARK    6  A    between atoms: C13_17  and  C14_19 
ROOT
HETATM    1  C8  UNL     1      21.937   0.168  52.720  1.00  0.00     0.049 A 
HETATM    2  C9  UNL     1      21.294  -0.311  53.843  1.00  0.00     0.031 A 
HETATM    3  C10 UNL     1      21.988  -0.898  54.883  1.00  0.00     0.005 A 
HETATM    4  C11 UNL     1      23.377  -1.020  54.820  1.00  0.00     0.029 A 
HETATM    5  C12 UNL     1      24.057  -0.551  53.712  1.00  0.00     0.037 A 
HETATM    6  C19 UNL     1      23.309   0.024  52.707  1.00  0.00     0.060 A 
ENDROOT
BRANCH   1   7
HETATM    7  N3  UNL     1      21.214   0.770  51.656  1.00  0.00    -0.293 N 
HETATM    8  C7  UNL     1      19.784   0.708  51.647  1.00  0.00     0.292 C 
HETATM    9  N2  UNL     1      19.269   1.548  50.572  1.00  0.00    -0.272 NA
HETATM   10  C6  UNL     1      19.933   1.770  49.491  1.00  0.00     0.045 C 
HETATM   11  C20 UNL     1      21.265   1.117  49.404  1.00  0.00     0.169 C 
HETATM   12  N5  UNL     1      21.973   1.407  50.647  1.00  0.00    -0.231 NA
HETATM   13  H21 UNL     1      21.858   2.437  50.786  1.00  0.00     0.147 HD
BRANCH  10  14
HETATM   14  C5  UNL     1      19.427   2.602  48.421  1.00  0.00     0.026 C 
HETATM   15  C4  UNL     1      20.099   3.640  47.996  1.00  0.00    -0.003 C 
BRANCH  15  16
HETATM   16  C3  UNL     1      19.611   4.528  46.890  1.00  0.00     0.175 C 
BRANCH  16  17
HETATM   17  N1  UNL     1      18.900   3.783  45.901  1.00  0.00    -0.302 NA
HETATM   18  C2  UNL     1      19.352   3.502  44.737  1.00  0.00     0.079 C 
HETATM   19  C1  UNL     1      20.719   3.975  44.357  1.00  0.00     0.056 C 
ENDBRANCH  16  17
ENDBRANCH  15  16
ENDBRANCH  10  14
ENDBRANCH   1   7
BRANCH   5  20
HETATM   20  N4  UNL     1      25.473  -0.671  53.639  1.00  0.00    -0.323 N 
HETATM   21  C13 UNL     1      26.481   0.234  54.040  1.00  0.00     0.252 C 
HETATM   22  O1  UNL     1      26.207   1.349  54.553  1.00  0.00    -0.268 OA
HETATM   23  H14 UNL     1      25.633  -1.622  53.202  1.00  0.00     0.169 HD
BRANCH  21  24
HETATM   24  C14 UNL     1      27.869  -0.168  53.840  1.00  0.00     0.013 A 
HETATM   25  C15 UNL     1      28.261  -1.313  53.304  1.00  0.00     0.013 A 
HETATM   26  C16 UNL     1      29.719  -1.366  53.264  1.00  0.00    -0.003 A 
HETATM   27  C17 UNL     1      30.205  -0.247  53.779  1.00  0.00    -0.022 A 
HETATM   28  C18 UNL     1      29.060   0.636  54.201  1.00  0.00     0.071 A 
ENDBRANCH  21  24
ENDBRANCH   5  20
TORSDOF 6
ENDMDL
MODEL 6
REMARK VINA RESULT:      -7.6      2.936      4.673
REMARK  6 active torsions:
REMARK  status: ('A' for Active; 'I' for Inactive)
REMARK    1  A    between atoms: N1_3  and  C3_4 
REMARK    2  A    between atoms: C3_4  and  C4_5 
REMARK    3  A    between atoms: C5_6  and  C6_7 
REMARK    4  A    between atoms: N3_10  and  C8_11 
REMARK    5  A    between atoms: C12_15  and  N4_16 
REMARK       I    between atoms: N4_16  and  C13_17 
REMARK    6  A    between atoms: C13_17  and  C14_19 
ROOT
HETATM    1  C8  UNL     1      22.260   1.441  52.170  1.00  0.00     0.049 A 
HETATM    2  C9  UNL     1      22.316   2.763  51.778  1.00  0.00     0.031 A 
HETATM    3  C10 UNL     1      23.518   3.426  51.623  1.00  0.00     0.005 A 
HETATM    4  C11 UNL     1      24.722   2.762  51.863  1.00  0.00     0.029 A 
HETATM    5  C12 UNL     1      24.708   1.437  52.257  1.00  0.00     0.037 A 
HETATM    6  C19 UNL     1      23.477   0.831  52.395  1.00  0.00     0.060 A 
ENDROOT
BRANCH   1   7
HETATM    7  N3  UNL     1      21.020   0.769  52.326  1.00  0.00    -0.293 N 
HETATM    8  C7  UNL     1      19.810   1.407  51.901  1.00  0.00     0.292 C 
HETATM    9  N2  UNL     1      18.706   0.458  51.987  1.00  0.00    -0.272 NA
HETATM   10  C6  UNL     1      18.687  -0.503  52.843  1.00  0.00     0.045 C 
HETATM   11  C20 UNL     1      19.865  -0.591  53.745  1.00  0.00     0.169 C 
HETATM   12  N5  UNL     1      21.058  -0.519  52.908  1.00  0.00    -0.231 NA
HETATM   13  H21 UNL     1      20.886  -1.205  52.138  1.00  0.00     0.147 HD
BRANCH  10  14
HETATM   14  C5  UNL     1      17.594  -1.447  52.934  1.00  0.00     0.026 C 
HETATM   15  C4  UNL     1      16.492  -1.274  52.252  1.00  0.00    -0.003 C 
BRANCH  15  16
HETATM   16  C3  UNL     1      15.336  -2.227  52.316  1.00  0.00     0.175 C 
BRANCH  16  17
HETATM   17  N1  UNL     1      14.089  -1.533  52.293  1.00  0.00    -0.302 NA
HETATM   18  C2  UNL     1      13.059  -1.911  51.633  1.00  0.00     0.079 C 
HETATM   19  C1  UNL     1      13.137  -3.164  50.821  1.00  0.00     0.056 C 
ENDBRANCH  16  17
ENDBRANCH  15  16
ENDBRANCH  10  14
ENDBRANCH   1   7
BRANCH   5  20
HETATM   20  N4  UNL     1      25.930   0.752  52.504  1.00  0.00    -0.323 N 
HETATM   21  C13 UNL     1      26.810   0.839  53.606  1.00  0.00     0.252 C 
HETATM   22  O1  UNL     1      26.586   1.605  54.578  1.00  0.00    -0.268 OA
HETATM   23  H14 UNL     1      26.058   0.130  51.657  1.00  0.00     0.169 HD
BRANCH  21  24
HETATM   24  C14 UNL     1      28.005   0.001  53.584  1.00  0.00     0.013 A 
HETATM   25  C15 UNL     1      28.068  -1.223  53.085  1.00  0.00     0.013 A 
HETATM   26  C16 UNL     1      29.420  -1.749  53.238  1.00  0.00    -0.003 A 
HETATM   27  C17 UNL     1      30.174  -0.836  53.831  1.00  0.00    -0.022 A 
HETATM   28  C18 UNL     1      29.336   0.383  54.112  1.00  0.00     0.071 A 
ENDBRANCH  21  24
ENDBRANCH   5  20
TORSDOF 6
ENDMDL
MODEL 7
REMARK VINA RESULT:      -7.3      3.601      5.777
REMARK  6 active torsions:
REMARK  status: ('A' for Active; 'I' for Inactive)
REMARK    1  A    between atoms: N1_3  and  C3_4 
REMARK    2  A    between atoms: C3_4  and  C4_5 
REMARK    3  A    between atoms: C5_6  and  C6_7 
REMARK    4  A    between atoms: N3_10  and  C8_11 
REMARK    5  A    between atoms: C12_15  and  N4_16 
REMARK       I    between atoms: N4_16  and  C13_17 
REMARK    6  A    between atoms: C13_17  and  C14_19 
ROOT
HETATM    1  C8  UNL     1      21.537   2.745  52.285  1.00  0.00     0.049 A 
HETATM    2  C9  UNL     1      21.923   4.069  52.336  1.00  0.00     0.031 A 
HETATM    3  C10 UNL     1      23.240   4.436  52.536  1.00  0.00     0.005 A 
HETATM    4  C11 UNL     1      24.226   3.459  52.690  1.00  0.00     0.029 A 
HETATM    5  C12 UNL     1      23.878   2.122  52.644  1.00  0.00     0.037 A 
HETATM    6  C19 UNL     1      22.548   1.820  52.443  1.00  0.00     0.060 A 
ENDROOT
BRANCH   1   7
HETATM    7  N3  UNL     1      20.181   2.379  52.079  1.00  0.00    -0.293 N 
HETATM    8  C7  UNL     1      19.857   1.027  51.739  1.00  0.00     0.292 C 
HETATM    9  N2  UNL     1      18.409   0.854  51.766  1.00  0.00    -0.272 NA
HETATM   10  C6  UNL     1      17.594   1.819  51.513  1.00  0.00     0.045 C 
HETATM   11  C20 UNL     1      18.220   3.128  51.191  1.00  0.00     0.169 C 
HETATM   12  N5  UNL     1      19.214   3.399  52.226  1.00  0.00    -0.231 NA
HETATM   13  H21 UNL     1      18.717   3.219  53.128  1.00  0.00     0.147 HD
BRANCH  10  14
HETATM   14  C5  UNL     1      16.157   1.654  51.538  1.00  0.00     0.026 C 
HETATM   15  C4  UNL     1      15.387   2.513  52.154  1.00  0.00    -0.003 C 
BRANCH  15  16
HETATM   16  C3  UNL     1      13.895   2.379  52.204  1.00  0.00     0.175 C 
BRANCH  16  17
HETATM   17  N1  UNL     1      13.252   3.569  51.745  1.00  0.00    -0.302 NA
HETATM   18  C2  UNL     1      12.725   4.451  52.508  1.00  0.00     0.079 C 
HETATM   19  C1  UNL     1      12.770   4.250  53.989  1.00  0.00     0.056 C 
ENDBRANCH  16  17
ENDBRANCH  15  16
ENDBRANCH  10  14
ENDBRANCH   1   7
BRANCH   5  20
HETATM   20  N4  UNL     1      24.875   1.119  52.801  1.00  0.00    -0.323 N 
HETATM   21  C13 UNL     1      26.071   0.909  52.077  1.00  0.00     0.252 C 
HETATM   22  O1  UNL     1      26.412   1.657  51.125  1.00  0.00    -0.268 OA
HETATM   23  H14 UNL     1      24.530   0.529  53.609  1.00  0.00     0.169 HD
BRANCH  21  24
HETATM   24  C14 UNL     1      26.910  -0.218  52.471  1.00  0.00     0.013 A 
HETATM   25  C15 UNL     1      28.090  -0.119  53.062  1.00  0.00     0.013 A 
HETATM   26  C16 UNL     1      28.634  -1.450  53.305  1.00  0.00    -0.003 A 
HETATM   27  C17 UNL     1      27.776  -2.355  52.858  1.00  0.00    -0.022 A 
HETATM   28  C18 UNL     1      26.579  -1.649  52.277  1.00  0.00     0.071 A 
ENDBRANCH  21  24
ENDBRANCH   5  20
TORSDOF 6
ENDMDL
MODEL 8
REMARK VINA RESULT:      -7.2      3.946      9.017
REMARK  6 active torsions:
REMARK  status: ('A' for Active; 'I' for Inactive)
REMARK    1  A    between atoms: N1_3  and  C3_4 
REMARK    2  A    between atoms: C3_4  and  C4_5 
REMARK    3  A    between atoms: C5_6  and  C6_7 
REMARK    4  A    between atoms: N3_10  and  C8_11 
REMARK    5  A    between atoms: C12_15  and  N4_16 
REMARK       I    between atoms: N4_16  and  C13_17 
REMARK    6  A    between atoms: C13_17  and  C14_19 
ROOT
HETATM    1  C8  UNL     1      19.335  -0.328  52.766  1.00  0.00     0.049 A 
HETATM    2  C9  UNL     1      18.525  -1.319  53.281  1.00  0.00     0.031 A 
HETATM    3  C10 UNL     1      17.165  -1.345  53.042  1.00  0.00     0.005 A 
HETATM    4  C11 UNL     1      16.571  -0.354  52.259  1.00  0.00     0.029 A 
HETATM    5  C12 UNL     1      17.349   0.656  51.724  1.00  0.00     0.037 A 
HETATM    6  C19 UNL     1      18.700   0.627  52.000  1.00  0.00     0.060 A 
ENDROOT
BRANCH   1   7
HETATM    7  N3  UNL     1      20.732  -0.310  53.018  1.00  0.00    -0.293 N 
HETATM    8  C7  UNL     1      21.230  -0.774  54.278  1.00  0.00     0.292 C 
HETATM    9  N2  UNL     1      22.686  -0.837  54.230  1.00  0.00    -0.272 NA
HETATM   10  C6  UNL     1      23.387  -0.055  53.484  1.00  0.00     0.045 C 
HETATM   11  C20 UNL     1      22.618   0.920  52.667  1.00  0.00     0.169 C 
HETATM   12  N5  UNL     1      21.563   0.178  51.984  1.00  0.00    -0.231 NA
HETATM   13  H21 UNL     1      22.046  -0.650  51.566  1.00  0.00     0.147 HD
BRANCH  10  14
HETATM   14  C5  UNL     1      24.831  -0.112  53.432  1.00  0.00     0.026 C 
HETATM   15  C4  UNL     1      25.549   0.979  53.358  1.00  0.00    -0.003 C 
BRANCH  15  16
HETATM   16  C3  UNL     1      27.048   0.965  53.303  1.00  0.00     0.175 C 
BRANCH  16  17
HETATM   17  N1  UNL     1      27.614   0.859  54.609  1.00  0.00    -0.302 NA
HETATM   18  C2  UNL     1      28.689   0.221  54.886  1.00  0.00     0.079 C 
HETATM   19  C1  UNL     1      29.426  -0.472  53.785  1.00  0.00     0.056 C 
ENDBRANCH  16  17
ENDBRANCH  15  16
ENDBRANCH  10  14
ENDBRANCH   1   7
BRANCH   5  20
HETATM   20  N4  UNL     1      16.752   1.671  50.925  1.00  0.00    -0.323 N 
HETATM   21  C13 UNL     1      16.794   3.076  51.066  1.00  0.00     0.252 C 
HETATM   22  O1  UNL     1      17.422   3.632  52.004  1.00  0.00    -0.268 OA
HETATM   23  H14 UNL     1      16.245   1.140  50.163  1.00  0.00     0.169 HD
BRANCH  21  24
HETATM   24  C14 UNL     1      16.077   3.876  50.079  1.00  0.00     0.013 A 
HETATM   25  C15 UNL     1      14.799   4.212  50.153  1.00  0.00     0.013 A 
HETATM   26  C16 UNL     1      14.431   5.013  48.990  1.00  0.00    -0.003 A 
HETATM   27  C17 UNL     1      15.494   5.160  48.214  1.00  0.00    -0.022 A 
HETATM   28  C18 UNL     1      16.660   4.442  48.840  1.00  0.00     0.071 A 
ENDBRANCH  21  24
ENDBRANCH   5  20
TORSDOF 6
ENDMDL
MODEL 9
REMARK VINA RESULT:      -7.2      3.339      6.097
REMARK  6 active torsions:
REMARK  status: ('A' for Active; 'I' for Inactive)
REMARK    1  A    between atoms: N1_3  and  C3_4 
REMARK    2  A    between atoms: C3_4  and  C4_5 
REMARK    3  A    between atoms: C5_6  and  C6_7 
REMARK    4  A    between atoms: N3_10  and  C8_11 
REMARK    5  A    between atoms: C12_15  and  N4_16 
REMARK       I    between atoms: N4_16  and  C13_17 
REMARK    6  A    between atoms: C13_17  and  C14_19 
ROOT
HETATM    1  C8  UNL     1      26.380   5.263  49.164  1.00  0.00     0.049 A 
HETATM    2  C9  UNL     1      27.580   4.695  48.788  1.00  0.00     0.031 A 
HETATM    3  C10 UNL     1      28.594   5.444  48.222  1.00  0.00     0.005 A 
HETATM    4  C11 UNL     1      28.424   6.814  48.016  1.00  0.00     0.029 A 
HETATM    5  C12 UNL     1      27.236   7.420  48.380  1.00  0.00     0.037 A 
HETATM    6  C19 UNL     1      26.262   6.619  48.939  1.00  0.00     0.060 A 
ENDROOT
BRANCH   1   7
HETATM    7  N3  UNL     1      25.344   4.485  49.745  1.00  0.00    -0.293 N 
HETATM    8  C7  UNL     1      24.105   4.322  49.047  1.00  0.00     0.292 C 
HETATM    9  N2  UNL     1      23.281   3.340  49.744  1.00  0.00    -0.272 NA
HETATM   10  C6  UNL     1      23.361   3.151  51.016  1.00  0.00     0.045 C 
HETATM   11  C20 UNL     1      24.348   3.997  51.736  1.00  0.00     0.169 C 
HETATM   12  N5  UNL     1      25.609   3.907  51.008  1.00  0.00    -0.231 NA
HETATM   13  H21 UNL     1      25.754   2.884  50.849  1.00  0.00     0.147 HD
BRANCH  10  14
HETATM   14  C5  UNL     1      22.547   2.180  51.713  1.00  0.00     0.026 C 
HETATM   15  C4  UNL     1      22.117   1.100  51.112  1.00  0.00    -0.003 C 
BRANCH  15  16
HETATM   16  C3  UNL     1      21.272   0.069  51.797  1.00  0.00     0.175 C 
BRANCH  16  17
HETATM   17  N1  UNL     1      20.481   0.651  52.834  1.00  0.00    -0.302 NA
HETATM   18  C2  UNL     1      20.542   0.319  54.069  1.00  0.00     0.079 C 
HETATM   19  C1  UNL     1      21.500  -0.751  54.486  1.00  0.00     0.056 C 
ENDBRANCH  16  17
ENDBRANCH  15  16
ENDBRANCH  10  14
ENDBRANCH   1   7
BRANCH   5  20
HETATM   20  N4  UNL     1      27.053   8.816  48.174  1.00  0.00    -0.323 N 
HETATM   21  C13 UNL     1      26.991   9.870  49.113  1.00  0.00     0.252 C 
HETATM   22  O1  UNL     1      27.100   9.666  50.349  1.00  0.00    -0.268 OA
HETATM   23  H14 UNL     1      26.969   8.917  47.124  1.00  0.00     0.169 HD
BRANCH  21  24
HETATM   24  C14 UNL     1      26.794  11.221  48.599  1.00  0.00     0.013 A 
HETATM   25  C15 UNL     1      25.670  11.680  48.072  1.00  0.00     0.013 A 
HETATM   26  C16 UNL     1      25.845  13.072  47.671  1.00  0.00    -0.003 A 
HETATM   27  C17 UNL     1      27.080  13.452  47.959  1.00  0.00    -0.022 A 
HETATM   28  C18 UNL     1      27.814  12.296  48.587  1.00  0.00     0.071 A 
ENDBRANCH  21  24
ENDBRANCH   5  20
TORSDOF 6
ENDMDL
