MODEL 1
REMARK VINA RESULT:      -8.6      0.000      0.000
REMARK  3 active torsions:
REMARK  status: ('A' for Active; 'I' for Inactive)
REMARK    1  A    between atoms: C2_2  and  C3_3 
REMARK    2  A    between atoms: C6_6  and  C7_7 
REMARK    3  A    between atoms: C17_22  and  N5_23 
ROOT
HETATM    1  C3  UNL     1      21.929   2.297  51.890  1.00  0.00     0.042 C 
HETATM    2  C4  UNL     1      22.923   1.536  52.572  1.00  0.00     0.031 C 
HETATM    3  C5  UNL     1      24.209   1.849  52.254  1.00  0.00     0.208 A 
HETATM    4  C6  UNL     1      25.417   1.266  52.776  1.00  0.00     0.081 A 
HETATM    5  N2  UNL     1      25.662   2.165  51.819  1.00  0.00    -0.388 N 
HETATM    6  C12 UNL     1      26.924   2.576  51.303  1.00  0.00     0.138 C 
HETATM    7  C13 UNL     1      26.529   3.548  50.121  1.00  0.00     0.138 C 
HETATM    8  N3  UNL     1      25.842   4.613  50.752  1.00  0.00    -0.397 N 
HETATM    9  C14 UNL     1      24.824   5.480  50.352  1.00  0.00     0.084 C 
HETATM   10  C15 UNL     1      24.240   4.849  49.359  1.00  0.00     0.069 C 
HETATM   11  C16 UNL     1      23.102   4.993  48.389  1.00  0.00     0.377 A 
HETATM   12  O1  UNL     1      22.869   6.034  49.120  1.00  0.00    -0.143 OA
HETATM   13  N4  UNL     1      22.025   5.820  48.111  1.00  0.00     0.136 N 
HETATM   14  C17 UNL     1      21.408   6.976  48.653  1.00  0.00     0.422 C 
HETATM   15  C19 UNL     1      20.427   6.169  49.331  1.00  0.00     0.068 C 
HETATM   16  C20 UNL     1      20.478   4.671  49.179  1.00  0.00     0.028 A 
HETATM   17  C21 UNL     1      19.773   4.297  48.052  1.00  0.00     0.133 A 
HETATM   18  N6  UNL     1      19.603   3.046  47.525  1.00  0.00    -0.253 NA
HETATM   19  C22 UNL     1      20.238   2.080  48.254  1.00  0.00     0.234 A 
HETATM   20  N7  UNL     1      20.940   2.369  49.364  1.00  0.00    -0.224 NA
HETATM   21  C23 UNL     1      21.056   3.612  49.809  1.00  0.00     0.141 A 
HETATM   22  N8  UNL     1      21.825   3.297  50.927  1.00  0.00    -0.340 N 
HETATM   23  H13 UNL     1      25.879   5.081  51.706  1.00  0.00     0.158 HD
HETATM   24  H16 UNL     1      21.379   5.929  47.252  1.00  0.00     0.326 HD
HETATM   25  H22 UNL     1      22.553   3.814  51.296  1.00  0.00     0.167 HD
ENDROOT
BRANCH   4  26
HETATM   26  C7  UNL     1      26.648   0.735  53.249  1.00  0.00     0.059 A 
HETATM   27  C8  UNL     1      26.855  -0.465  52.552  1.00  0.00     0.029 A 
HETATM   28  C9  UNL     1      27.987  -1.101  52.982  1.00  0.00     0.003 A 
HETATM   29  C10 UNL     1      28.848  -0.684  53.951  1.00  0.00     0.019 A 
HETATM   30  C11 UNL     1      28.502   0.546  54.558  1.00  0.00     0.117 A 
HETATM   31  N1  UNL     1      27.406   1.274  54.222  1.00  0.00    -0.263 NA
ENDBRANCH   4  26
BRANCH   1  32
HETATM   32  C2  UNL     1      20.624   2.176  52.139  1.00  0.00    -0.007 C 
HETATM   33  C1  UNL     1      19.462   1.563  52.360  1.00  0.00     0.026 C 
ENDBRANCH   1  32
BRANCH  14  34
HETATM   34  N5  UNL     1      20.578   7.877  49.327  1.00  0.00     0.062 NA
HETATM   35  C18 UNL     1      19.507   8.266  48.623  1.00  0.00     0.716 C 
ENDBRANCH  14  34
TORSDOF 3
ENDMDL
MODEL 2
REMARK VINA RESULT:      -8.5      2.834      8.295
REMARK  3 active torsions:
REMARK  status: ('A' for Active; 'I' for Inactive)
REMARK    1  A    between atoms: C2_2  and  C3_3 
REMARK    2  A    between atoms: C6_6  and  C7_7 
REMARK    3  A    between atoms: C17_22  and  N5_23 
ROOT
HETATM    1  C3  UNL     1      22.658   4.757  51.768  1.00  0.00     0.042 C 
HETATM    2  C4  UNL     1      21.289   5.074  51.529  1.00  0.00     0.031 C 
HETATM    3  C5  UNL     1      20.430   4.020  51.599  1.00  0.00     0.208 A 
HETATM    4  C6  UNL     1      19.004   4.026  51.414  1.00  0.00     0.081 A 
HETATM    5  N2  UNL     1      19.483   2.794  51.605  1.00  0.00    -0.388 N 
HETATM    6  C12 UNL     1      18.761   1.567  51.643  1.00  0.00     0.138 C 
HETATM    7  C13 UNL     1      19.904   0.482  51.769  1.00  0.00     0.138 C 
HETATM    8  N3  UNL     1      20.530   0.768  53.006  1.00  0.00    -0.397 N 
HETATM    9  C14 UNL     1      21.828   0.608  53.494  1.00  0.00     0.084 C 
HETATM   10  C15 UNL     1      22.568   0.534  52.411  1.00  0.00     0.069 C 
HETATM   11  C16 UNL     1      23.999   0.392  51.980  1.00  0.00     0.377 A 
HETATM   12  O1  UNL     1      24.190   0.518  53.253  1.00  0.00    -0.143 OA
HETATM   13  N4  UNL     1      25.282   0.367  52.505  1.00  0.00     0.136 N 
HETATM   14  C17 UNL     1      25.915   0.509  53.766  1.00  0.00     0.422 C 
HETATM   15  C19 UNL     1      26.210   1.893  53.494  1.00  0.00     0.068 C 
HETATM   16  C20 UNL     1      25.784   2.487  52.177  1.00  0.00     0.028 A 
HETATM   17  C21 UNL     1      26.762   2.259  51.230  1.00  0.00     0.133 A 
HETATM   18  N6  UNL     1      26.762   2.589  49.902  1.00  0.00    -0.253 NA
HETATM   19  C22 UNL     1      25.616   3.229  49.522  1.00  0.00     0.234 A 
HETATM   20  N7  UNL     1      24.621   3.489  50.390  1.00  0.00    -0.224 NA
HETATM   21  C23 UNL     1      24.702   3.134  51.664  1.00  0.00     0.141 A 
HETATM   22  N8  UNL     1      23.467   3.657  52.040  1.00  0.00    -0.340 N 
HETATM   23  H13 UNL     1      20.222   1.184  53.935  1.00  0.00     0.158 HD
HETATM   24  H16 UNL     1      26.239   0.059  52.107  1.00  0.00     0.326 HD
HETATM   25  H22 UNL     1      22.842   3.277  52.673  1.00  0.00     0.167 HD
ENDROOT
BRANCH   4  26
HETATM   26  C7  UNL     1      17.594   3.961  51.242  1.00  0.00     0.059 A 
HETATM   27  C8  UNL     1      17.363   3.952  49.859  1.00  0.00     0.029 A 
HETATM   28  C9  UNL     1      16.024   3.960  49.578  1.00  0.00     0.003 A 
HETATM   29  C10 UNL     1      14.996   3.973  50.470  1.00  0.00     0.019 A 
HETATM   30  C11 UNL     1      15.392   3.979  51.828  1.00  0.00     0.117 A 
HETATM   31  N1  UNL     1      16.687   3.971  52.238  1.00  0.00    -0.263 NA
ENDBRANCH   4  26
BRANCH   1  32
HETATM   32  C2  UNL     1      23.619   5.680  51.816  1.00  0.00    -0.007 C 
HETATM   33  C1  UNL     1      24.262   6.808  51.518  1.00  0.00     0.026 C 
ENDBRANCH   1  32
BRANCH  14  34
HETATM   34  N5  UNL     1      26.596   0.981  54.893  1.00  0.00     0.062 NA
HETATM   35  C18 UNL     1      27.876   0.593  54.963  1.00  0.00     0.716 C 
ENDBRANCH  14  34
TORSDOF 3
ENDMDL
MODEL 3
REMARK VINA RESULT:      -8.4      1.696      4.060
REMARK  3 active torsions:
REMARK  status: ('A' for Active; 'I' for Inactive)
REMARK    1  A    between atoms: C2_2  and  C3_3 
REMARK    2  A    between atoms: C6_6  and  C7_7 
REMARK    3  A    between atoms: C17_22  and  N5_23 
ROOT
HETATM    1  C3  UNL     1      25.129   4.334  49.773  1.00  0.00     0.042 C 
HETATM    2  C4  UNL     1      26.216   3.621  50.362  1.00  0.00     0.031 C 
HETATM    3  C5  UNL     1      25.857   2.612  51.202  1.00  0.00     0.208 A 
HETATM    4  C6  UNL     1      26.718   1.719  51.931  1.00  0.00     0.081 A 
HETATM    5  N2  UNL     1      25.428   1.521  52.215  1.00  0.00    -0.388 N 
HETATM    6  C12 UNL     1      24.862   0.569  53.110  1.00  0.00     0.138 C 
HETATM    7  C13 UNL     1      23.323   0.931  53.093  1.00  0.00     0.138 C 
HETATM    8  N3  UNL     1      22.921   0.705  51.754  1.00  0.00    -0.397 N 
HETATM    9  C14 UNL     1      21.945   1.266  50.929  1.00  0.00     0.084 C 
HETATM   10  C15 UNL     1      21.700   2.435  51.475  1.00  0.00     0.069 C 
HETATM   11  C16 UNL     1      20.864   3.667  51.277  1.00  0.00     0.377 A 
HETATM   12  O1  UNL     1      20.576   3.056  50.174  1.00  0.00    -0.143 OA
HETATM   13  N4  UNL     1      19.996   4.241  50.362  1.00  0.00     0.136 N 
HETATM   14  C17 UNL     1      19.471   3.956  49.075  1.00  0.00     0.422 C 
HETATM   15  C19 UNL     1      20.456   4.804  48.454  1.00  0.00     0.068 C 
HETATM   16  C20 UNL     1      21.458   5.520  49.321  1.00  0.00     0.028 A 
HETATM   17  C21 UNL     1      20.925   6.721  49.745  1.00  0.00     0.133 A 
HETATM   18  N6  UNL     1      21.478   7.656  50.578  1.00  0.00    -0.253 NA
HETATM   19  C22 UNL     1      22.722   7.298  51.016  1.00  0.00     0.234 A 
HETATM   20  N7  UNL     1      23.306   6.145  50.642  1.00  0.00    -0.224 NA
HETATM   21  C23 UNL     1      22.700   5.292  49.829  1.00  0.00     0.141 A 
HETATM   22  N8  UNL     1      23.738   4.363  49.792  1.00  0.00    -0.340 N 
HETATM   23  H13 UNL     1      23.223   0.053  50.970  1.00  0.00     0.158 HD
HETATM   24  H16 UNL     1      19.293   5.060  50.421  1.00  0.00     0.326 HD
HETATM   25  H22 UNL     1      23.656   3.400  49.768  1.00  0.00     0.167 HD
ENDROOT
BRANCH   4  26
HETATM   26  C7  UNL     1      27.510   0.806  52.680  1.00  0.00     0.059 A 
HETATM   27  C8  UNL     1      28.332   1.582  53.509  1.00  0.00     0.029 A 
HETATM   28  C9  UNL     1      29.193   0.799  54.230  1.00  0.00     0.003 A 
HETATM   29  C10 UNL     1      29.291  -0.559  54.199  1.00  0.00     0.019 A 
HETATM   30  C11 UNL     1      28.391  -1.196  53.314  1.00  0.00     0.117 A 
HETATM   31  N1  UNL     1      27.490  -0.534  52.544  1.00  0.00    -0.263 NA
ENDBRANCH   4  26
BRANCH   1  32
HETATM   32  C2  UNL     1      25.300   5.299  48.869  1.00  0.00    -0.007 C 
HETATM   33  C1  UNL     1      25.853   6.363  48.289  1.00  0.00     0.026 C 
ENDBRANCH   1  32
BRANCH  14  34
HETATM   34  N5  UNL     1      19.209   3.899  47.703  1.00  0.00     0.062 NA
HETATM   35  C18 UNL     1      18.082   3.248  47.386  1.00  0.00     0.716 C 
ENDBRANCH  14  34
TORSDOF 3
ENDMDL
MODEL 4
REMARK VINA RESULT:      -8.3      2.933      5.765
REMARK  3 active torsions:
REMARK  status: ('A' for Active; 'I' for Inactive)
REMARK    1  A    between atoms: C2_2  and  C3_3 
REMARK    2  A    between atoms: C6_6  and  C7_7 
REMARK    3  A    between atoms: C17_22  and  N5_23 
ROOT
HETATM    1  C3  UNL     1      26.165   5.109  49.240  1.00  0.00     0.042 C 
HETATM    2  C4  UNL     1      25.976   3.880  49.939  1.00  0.00     0.031 C 
HETATM    3  C5  UNL     1      24.731   3.697  50.458  1.00  0.00     0.208 A 
HETATM    4  C6  UNL     1      24.240   2.567  51.201  1.00  0.00     0.081 A 
HETATM    5  N2  UNL     1      23.333   3.543  51.109  1.00  0.00    -0.388 N 
HETATM    6  C12 UNL     1      22.012   3.568  51.639  1.00  0.00     0.138 C 
HETATM    7  C13 UNL     1      21.517   5.031  51.303  1.00  0.00     0.138 C 
HETATM    8  N3  UNL     1      21.522   5.090  49.888  1.00  0.00    -0.397 N 
HETATM    9  C14 UNL     1      21.716   6.118  48.964  1.00  0.00     0.084 C 
HETATM   10  C15 UNL     1      22.371   7.034  49.639  1.00  0.00     0.069 C 
HETATM   11  C16 UNL     1      22.991   8.392  49.470  1.00  0.00     0.377 A 
HETATM   12  O1  UNL     1      22.676   8.166  48.236  1.00  0.00    -0.143 OA
HETATM   13  N4  UNL     1      23.277   9.328  48.489  1.00  0.00     0.136 N 
HETATM   14  C17 UNL     1      23.157   9.461  47.082  1.00  0.00     0.422 C 
HETATM   15  C19 UNL     1      24.529   9.064  46.898  1.00  0.00     0.068 C 
HETATM   16  C20 UNL     1      25.366   8.738  48.108  1.00  0.00     0.028 A 
HETATM   17  C21 UNL     1      25.935   9.896  48.600  1.00  0.00     0.133 A 
HETATM   18  N6  UNL     1      26.726  10.058  49.705  1.00  0.00    -0.253 NA
HETATM   19  C22 UNL     1      26.949   8.883  50.366  1.00  0.00     0.234 A 
HETATM   20  N7  UNL     1      26.430   7.716  49.943  1.00  0.00    -0.224 NA
HETATM   21  C23 UNL     1      25.671   7.646  48.860  1.00  0.00     0.141 A 
HETATM   22  N8  UNL     1      25.467   6.268  48.912  1.00  0.00    -0.340 N 
HETATM   23  H13 UNL     1      21.384   4.393  49.098  1.00  0.00     0.158 HD
HETATM   24  H16 UNL     1      23.558  10.371  48.521  1.00  0.00     0.326 HD
HETATM   25  H22 UNL     1      24.657   5.792  48.689  1.00  0.00     0.167 HD
ENDROOT
BRANCH   4  26
HETATM   26  C7  UNL     1      23.691   1.483  51.941  1.00  0.00     0.059 A 
HETATM   27  C8  UNL     1      24.619   1.182  52.948  1.00  0.00     0.029 A 
HETATM   28  C9  UNL     1      24.219   0.098  53.684  1.00  0.00     0.003 A 
HETATM   29  C10 UNL     1      23.084  -0.635  53.518  1.00  0.00     0.019 A 
HETATM   30  C11 UNL     1      22.251  -0.203  52.461  1.00  0.00     0.117 A 
HETATM   31  N1  UNL     1      22.533   0.856  51.659  1.00  0.00    -0.263 NA
ENDBRANCH   4  26
BRANCH   1  32
HETATM   32  C2  UNL     1      27.296   5.415  48.603  1.00  0.00    -0.007 C 
HETATM   33  C1  UNL     1      28.597   5.390  48.318  1.00  0.00     0.026 C 
ENDBRANCH   1  32
BRANCH  14  34
HETATM   34  N5  UNL     1      23.380   9.498  45.702  1.00  0.00     0.062 NA
HETATM   35  C18 UNL     1      23.847  10.670  45.253  1.00  0.00     0.716 C 
ENDBRANCH  14  34
TORSDOF 3
ENDMDL
MODEL 5
REMARK VINA RESULT:      -8.1      3.084      4.199
REMARK  3 active torsions:
REMARK  status: ('A' for Active; 'I' for Inactive)
REMARK    1  A    between atoms: C2_2  and  C3_3 
REMARK    2  A    between atoms: C6_6  and  C7_7 
REMARK    3  A    between atoms: C17_22  and  N5_23 
ROOT
HETATM    1  C3  UNL     1      19.876  -0.356  53.104  1.00  0.00     0.042 C 
HETATM    2  C4  UNL     1      21.218  -0.749  53.382  1.00  0.00     0.031 C 
HETATM    3  C5  UNL     1      22.169   0.165  53.045  1.00  0.00     0.208 A 
HETATM    4  C6  UNL     1      23.595   0.060  53.208  1.00  0.00     0.081 A 
HETATM    5  N2  UNL     1      23.240   1.184  52.581  1.00  0.00    -0.388 N 
HETATM    6  C12 UNL     1      24.084   2.222  52.093  1.00  0.00     0.138 C 
HETATM    7  C13 UNL     1      23.076   3.186  51.350  1.00  0.00     0.138 C 
HETATM    8  N3  UNL     1      22.206   3.645  52.370  1.00  0.00    -0.397 N 
HETATM    9  C14 UNL     1      20.870   4.047  52.394  1.00  0.00     0.084 C 
HETATM   10  C15 UNL     1      20.353   3.497  51.320  1.00  0.00     0.069 C 
HETATM   11  C16 UNL     1      19.050   3.368  50.584  1.00  0.00     0.377 A 
HETATM   12  O1  UNL     1      18.619   3.980  51.639  1.00  0.00    -0.143 OA
HETATM   13  N4  UNL     1      17.705   3.680  50.715  1.00  0.00     0.136 N 
HETATM   14  C17 UNL     1      16.843   4.270  51.674  1.00  0.00     0.422 C 
HETATM   15  C19 UNL     1      16.439   2.973  52.151  1.00  0.00     0.068 C 
HETATM   16  C20 UNL     1      17.022   1.741  51.508  1.00  0.00     0.028 A 
HETATM   17  C21 UNL     1      16.265   1.394  50.407  1.00  0.00     0.133 A 
HETATM   18  N6  UNL     1      16.466   0.373  49.517  1.00  0.00    -0.253 NA
HETATM   19  C22 UNL     1      17.577  -0.366  49.811  1.00  0.00     0.234 A 
HETATM   20  N7  UNL     1      18.360  -0.089  50.870  1.00  0.00    -0.224 NA
HETATM   21  C23 UNL     1      18.094   0.921  51.684  1.00  0.00     0.141 A 
HETATM   22  N8  UNL     1      19.169   0.705  52.544  1.00  0.00    -0.340 N 
HETATM   23  H13 UNL     1      22.289   3.824  53.415  1.00  0.00     0.158 HD
HETATM   24  H16 UNL     1      16.881   3.707  50.018  1.00  0.00     0.326 HD
HETATM   25  H22 UNL     1      19.709   1.376  52.980  1.00  0.00     0.167 HD
ENDROOT
BRANCH   4  26
HETATM   26  C7  UNL     1      25.010   0.022  53.339  1.00  0.00     0.059 A 
HETATM   27  C8  UNL     1      25.470  -0.904  52.392  1.00  0.00     0.029 A 
HETATM   28  C9  UNL     1      26.826  -1.073  52.479  1.00  0.00     0.003 A 
HETATM   29  C10 UNL     1      27.678  -0.456  53.343  1.00  0.00     0.019 A 
HETATM   30  C11 UNL     1      27.060   0.452  54.234  1.00  0.00     0.117 A 
HETATM   31  N1  UNL     1      25.726   0.708  54.250  1.00  0.00    -0.263 NA
ENDBRANCH   4  26
BRANCH   1  32
HETATM   32  C2  UNL     1      18.819  -1.095  53.442  1.00  0.00    -0.007 C 
HETATM   33  C1  UNL     1      18.129  -2.190  53.757  1.00  0.00     0.026 C 
ENDBRANCH   1  32
BRANCH  14  34
HETATM   34  N5  UNL     1      15.918   4.513  52.695  1.00  0.00     0.062 NA
HETATM   35  C18 UNL     1      14.684   4.064  52.436  1.00  0.00     0.716 C 
ENDBRANCH  14  34
TORSDOF 3
ENDMDL
MODEL 6
REMARK VINA RESULT:      -8.0      3.067      5.199
REMARK  3 active torsions:
REMARK  status: ('A' for Active; 'I' for Inactive)
REMARK    1  A    between atoms: C2_2  and  C3_3 
REMARK    2  A    between atoms: C6_6  and  C7_7 
REMARK    3  A    between atoms: C17_22  and  N5_23 
ROOT
HETATM    1  C3  UNL     1      22.990   1.912  50.535  1.00  0.00     0.042 C 
HETATM    2  C4  UNL     1      24.364   1.788  50.897  1.00  0.00     0.031 C 
HETATM    3  C5  UNL     1      24.603   1.039  52.009  1.00  0.00     0.208 A 
HETATM    4  C6  UNL     1      25.872   0.730  52.612  1.00  0.00     0.081 A 
HETATM    5  N2  UNL     1      24.846   0.251  53.320  1.00  0.00    -0.388 N 
HETATM    6  C12 UNL     1      24.888  -0.492  54.534  1.00  0.00     0.138 C 
HETATM    7  C13 UNL     1      23.362  -0.639  54.918  1.00  0.00     0.138 C 
HETATM    8  N3  UNL     1      22.800  -1.389  53.857  1.00  0.00    -0.397 N 
HETATM    9  C14 UNL     1      21.533  -1.443  53.274  1.00  0.00     0.084 C 
HETATM   10  C15 UNL     1      20.985  -0.293  53.597  1.00  0.00     0.069 C 
HETATM   11  C16 UNL     1      19.723   0.497  53.402  1.00  0.00     0.377 A 
HETATM   12  O1  UNL     1      19.461  -0.490  52.608  1.00  0.00    -0.143 OA
HETATM   13  N4  UNL     1      18.529   0.459  52.700  1.00  0.00     0.136 N 
HETATM   14  C17 UNL     1      17.890  -0.365  51.738  1.00  0.00     0.422 C 
HETATM   15  C19 UNL     1      18.323   0.498  50.669  1.00  0.00     0.068 C 
HETATM   16  C20 UNL     1      19.138   1.721  50.999  1.00  0.00     0.028 A 
HETATM   17  C21 UNL     1      18.293   2.773  51.291  1.00  0.00     0.133 A 
HETATM   18  N6  UNL     1      18.614   4.045  51.682  1.00  0.00    -0.253 NA
HETATM   19  C22 UNL     1      19.963   4.240  51.777  1.00  0.00     0.234 A 
HETATM   20  N7  UNL     1      20.846   3.262  51.505  1.00  0.00    -0.224 NA
HETATM   21  C23 UNL     1      20.451   2.054  51.132  1.00  0.00     0.141 A 
HETATM   22  N8  UNL     1      21.730   1.522  50.979  1.00  0.00    -0.340 N 
HETATM   23  H13 UNL     1      23.152  -2.132  53.183  1.00  0.00     0.158 HD
HETATM   24  H16 UNL     1      17.598   1.000  52.792  1.00  0.00     0.326 HD
HETATM   25  H22 UNL     1      22.016   0.625  51.196  1.00  0.00     0.167 HD
ENDROOT
BRANCH   4  26
HETATM   26  C7  UNL     1      27.091   0.387  53.258  1.00  0.00     0.059 A 
HETATM   27  C8  UNL     1      27.538  -0.798  52.656  1.00  0.00     0.029 A 
HETATM   28  C9  UNL     1      28.680  -1.260  53.255  1.00  0.00     0.003 A 
HETATM   29  C10 UNL     1      29.348  -0.695  54.298  1.00  0.00     0.019 A 
HETATM   30  C11 UNL     1      28.771   0.498  54.792  1.00  0.00     0.117 A 
HETATM   31  N1  UNL     1      27.642   1.059  54.287  1.00  0.00    -0.263 NA
ENDBRANCH   4  26
BRANCH   1  32
HETATM   32  C2  UNL     1      22.585   2.543  49.432  1.00  0.00    -0.007 C 
HETATM   33  C1  UNL     1      22.575   2.902  48.149  1.00  0.00     0.026 C 
ENDBRANCH   1  32
BRANCH  14  34
HETATM   34  N5  UNL     1      17.383  -0.932  50.564  1.00  0.00     0.062 NA
HETATM   35  C18 UNL     1      16.242  -0.376  50.135  1.00  0.00     0.716 C 
ENDBRANCH  14  34
TORSDOF 3
ENDMDL
MODEL 7
REMARK VINA RESULT:      -7.8      4.015      6.961
REMARK  3 active torsions:
REMARK  status: ('A' for Active; 'I' for Inactive)
REMARK    1  A    between atoms: C2_2  and  C3_3 
REMARK    2  A    between atoms: C6_6  and  C7_7 
REMARK    3  A    between atoms: C17_22  and  N5_23 
ROOT
HETATM    1  C3  UNL     1      27.271   5.555  48.584  1.00  0.00     0.042 C 
HETATM    2  C4  UNL     1      26.779   4.428  49.306  1.00  0.00     0.031 C 
HETATM    3  C5  UNL     1      25.442   4.449  49.569  1.00  0.00     0.208 A 
HETATM    4  C6  UNL     1      24.662   3.462  50.266  1.00  0.00     0.081 A 
HETATM    5  N2  UNL     1      23.937   4.531  49.927  1.00  0.00    -0.388 N 
HETATM    6  C12 UNL     1      22.555   4.768  50.171  1.00  0.00     0.138 C 
HETATM    7  C13 UNL     1      22.346   6.245  49.647  1.00  0.00     0.138 C 
HETATM    8  N3  UNL     1      22.635   6.175  48.263  1.00  0.00    -0.397 N 
HETATM    9  C14 UNL     1      23.149   7.081  47.334  1.00  0.00     0.084 C 
HETATM   10  C15 UNL     1      23.781   7.967  48.069  1.00  0.00     0.069 C 
HETATM   11  C16 UNL     1      24.607   9.215  47.945  1.00  0.00     0.377 A 
HETATM   12  O1  UNL     1      24.510   8.919  46.690  1.00  0.00    -0.143 OA
HETATM   13  N4  UNL     1      25.208  10.015  46.986  1.00  0.00     0.136 N 
HETATM   14  C17 UNL     1      25.384  10.033  45.579  1.00  0.00     0.422 C 
HETATM   15  C19 UNL     1      26.696   9.453  45.707  1.00  0.00     0.068 C 
HETATM   16  C20 UNL     1      27.226   9.137  47.081  1.00  0.00     0.028 A 
HETATM   17  C21 UNL     1      27.845  10.255  47.605  1.00  0.00     0.133 A 
HETATM   18  N6  UNL     1      28.421  10.416  48.836  1.00  0.00    -0.253 NA
HETATM   19  C22 UNL     1      28.342   9.288  49.603  1.00  0.00     0.234 A 
HETATM   20  N7  UNL     1      27.757   8.161  49.158  1.00  0.00    -0.224 NA
HETATM   21  C23 UNL     1      27.222   8.088  47.949  1.00  0.00     0.141 A 
HETATM   22  N8  UNL     1      26.820   6.757  48.046  1.00  0.00    -0.340 N 
HETATM   23  H13 UNL     1      22.557   5.430  47.507  1.00  0.00     0.158 HD
HETATM   24  H16 UNL     1      25.620  11.014  47.009  1.00  0.00     0.326 HD
HETATM   25  H22 UNL     1      26.010   6.367  47.692  1.00  0.00     0.167 HD
ENDROOT
BRANCH   4  26
HETATM   26  C7  UNL     1      23.832   2.527  50.944  1.00  0.00     0.059 A 
HETATM   27  C8  UNL     1      24.253   2.524  52.282  1.00  0.00     0.029 A 
HETATM   28  C9  UNL     1      23.561   1.600  53.019  1.00  0.00     0.003 A 
HETATM   29  C10 UNL     1      22.581   0.764  52.578  1.00  0.00     0.019 A 
HETATM   30  C11 UNL     1      22.270   0.891  51.205  1.00  0.00     0.117 A 
HETATM   31  N1  UNL     1      22.882   1.768  50.367  1.00  0.00    -0.263 NA
ENDBRANCH   4  26
BRANCH   1  32
HETATM   32  C2  UNL     1      28.536   5.658  48.175  1.00  0.00    -0.007 C 
HETATM   33  C1  UNL     1      29.859   5.507  48.207  1.00  0.00     0.026 C 
ENDBRANCH   1  32
BRANCH  14  34
HETATM   34  N5  UNL     1      25.875   9.916  44.275  1.00  0.00     0.062 NA
HETATM   35  C18 UNL     1      26.597  10.967  43.864  1.00  0.00     0.716 C 
ENDBRANCH  14  34
TORSDOF 3
ENDMDL
MODEL 8
REMARK VINA RESULT:      -7.6      5.334      8.323
REMARK  3 active torsions:
REMARK  status: ('A' for Active; 'I' for Inactive)
REMARK    1  A    between atoms: C2_2  and  C3_3 
REMARK    2  A    between atoms: C6_6  and  C7_7 
REMARK    3  A    between atoms: C17_22  and  N5_23 
ROOT
HETATM    1  C3  UNL     1      28.523   6.520  48.036  1.00  0.00     0.042 C 
HETATM    2  C4  UNL     1      27.872   5.373  48.577  1.00  0.00     0.031 C 
HETATM    3  C5  UNL     1      26.608   5.588  49.035  1.00  0.00     0.208 A 
HETATM    4  C6  UNL     1      25.705   4.634  49.623  1.00  0.00     0.081 A 
HETATM    5  N2  UNL     1      25.203   5.871  49.623  1.00  0.00    -0.388 N 
HETATM    6  C12 UNL     1      23.940   6.306  50.115  1.00  0.00     0.138 C 
HETATM    7  C13 UNL     1      24.008   7.876  49.944  1.00  0.00     0.138 C 
HETATM    8  N3  UNL     1      24.130   8.075  48.547  1.00  0.00    -0.397 N 
HETATM    9  C14 UNL     1      24.732   9.056  47.758  1.00  0.00     0.084 C 
HETATM   10  C15 UNL     1      25.616   9.609  48.556  1.00  0.00     0.069 C 
HETATM   11  C16 UNL     1      26.679  10.670  48.569  1.00  0.00     0.377 A 
HETATM   12  O1  UNL     1      26.390  10.697  47.309  1.00  0.00    -0.143 OA
HETATM   13  N4  UNL     1      27.339  11.540  47.716  1.00  0.00     0.136 N 
HETATM   14  C17 UNL     1      27.368  11.850  46.333  1.00  0.00     0.422 C 
HETATM   15  C19 UNL     1      28.526  11.016  46.141  1.00  0.00     0.068 C 
HETATM   16  C20 UNL     1      29.113  10.294  47.325  1.00  0.00     0.028 A 
HETATM   17  C21 UNL     1      30.013  11.119  47.969  1.00  0.00     0.133 A 
HETATM   18  N6  UNL     1      30.735  10.877  49.106  1.00  0.00    -0.253 NA
HETATM   19  C22 UNL     1      30.490   9.638  49.628  1.00  0.00     0.234 A 
HETATM   20  N7  UNL     1      29.628   8.779  49.054  1.00  0.00    -0.224 NA
HETATM   21  C23 UNL     1      28.968   9.093  47.949  1.00  0.00     0.141 A 
HETATM   22  N8  UNL     1      28.295   7.878  47.830  1.00  0.00    -0.340 N 
HETATM   23  H13 UNL     1      23.812   7.556  47.675  1.00  0.00     0.158 HD
HETATM   24  H16 UNL     1      27.961  12.408  47.881  1.00  0.00     0.326 HD
HETATM   25  H22 UNL     1      27.387   7.744  47.529  1.00  0.00     0.167 HD
ENDROOT
BRANCH   4  26
HETATM   26  C7  UNL     1      24.765   3.745  50.212  1.00  0.00     0.059 A 
HETATM   27  C8  UNL     1      23.979   3.248  49.162  1.00  0.00     0.029 A 
HETATM   28  C9  UNL     1      22.987   2.428  49.628  1.00  0.00     0.003 A 
HETATM   29  C10 UNL     1      22.739   2.092  50.924  1.00  0.00     0.019 A 
HETATM   30  C11 UNL     1      23.621   2.672  51.864  1.00  0.00     0.117 A 
HETATM   31  N1  UNL     1      24.644   3.502  51.531  1.00  0.00    -0.263 NA
ENDBRANCH   4  26
BRANCH   1  32
HETATM   32  C2  UNL     1      29.730   6.471  47.472  1.00  0.00    -0.007 C 
HETATM   33  C1  UNL     1      30.984   6.066  47.274  1.00  0.00     0.026 C 
ENDBRANCH   1  32
BRANCH  14  34
HETATM   34  N5  UNL     1      27.684  11.947  44.973  1.00  0.00     0.062 NA
HETATM   35  C18 UNL     1      26.902  12.791  44.288  1.00  0.00     0.716 C 
ENDBRANCH  14  34
TORSDOF 3
ENDMDL
MODEL 9
REMARK VINA RESULT:      -7.5      5.326      8.230
REMARK  3 active torsions:
REMARK  status: ('A' for Active; 'I' for Inactive)
REMARK    1  A    between atoms: C2_2  and  C3_3 
REMARK    2  A    between atoms: C6_6  and  C7_7 
REMARK    3  A    between atoms: C17_22  and  N5_23 
ROOT
HETATM    1  C3  UNL     1      17.839  -0.536  52.429  1.00  0.00     0.042 C 
HETATM    2  C4  UNL     1      19.137  -0.132  52.000  1.00  0.00     0.031 C 
HETATM    3  C5  UNL     1      19.203   1.114  51.455  1.00  0.00     0.208 A 
HETATM    4  C6  UNL     1      20.363   1.794  50.943  1.00  0.00     0.081 A 
HETATM    5  N2  UNL     1      19.243   2.500  50.764  1.00  0.00    -0.388 N 
HETATM    6  C12 UNL     1      19.099   3.780  50.158  1.00  0.00     0.138 C 
HETATM    7  C13 UNL     1      17.533   3.994  50.139  1.00  0.00     0.138 C 
HETATM    8  N3  UNL     1      17.160   4.009  51.505  1.00  0.00    -0.397 N 
HETATM    9  C14 UNL     1      16.005   3.643  52.197  1.00  0.00     0.084 C 
HETATM   10  C15 UNL     1      15.396   2.811  51.384  1.00  0.00     0.069 C 
HETATM   11  C16 UNL     1      14.171   1.947  51.295  1.00  0.00     0.377 A 
HETATM   12  O1  UNL     1      14.054   2.327  52.526  1.00  0.00    -0.143 OA
HETATM   13  N4  UNL     1      13.107   1.509  52.068  1.00  0.00     0.136 N 
HETATM   14  C17 UNL     1      12.643   1.633  53.402  1.00  0.00     0.422 C 
HETATM   15  C19 UNL     1      13.231   0.367  53.755  1.00  0.00     0.068 C 
HETATM   16  C20 UNL     1      13.965  -0.419  52.700  1.00  0.00     0.028 A 
HETATM   17  C21 UNL     1      13.069  -1.209  52.007  1.00  0.00     0.133 A 
HETATM   18  N6  UNL     1      13.305  -2.042  50.946  1.00  0.00    -0.253 NA
HETATM   19  C22 UNL     1      14.618  -2.051  50.569  1.00  0.00     0.234 A 
HETATM   20  N7  UNL     1      15.547  -1.310  51.199  1.00  0.00    -0.224 NA
HETATM   21  C23 UNL     1      15.235  -0.528  52.221  1.00  0.00     0.141 A 
HETATM   22  N8  UNL     1      16.528  -0.066  52.454  1.00  0.00    -0.340 N 
HETATM   23  H13 UNL     1      17.627   4.296  52.416  1.00  0.00     0.158 HD
HETATM   24  H16 UNL     1      12.166   1.034  51.830  1.00  0.00     0.326 HD
HETATM   25  H22 UNL     1      16.788   0.826  52.722  1.00  0.00     0.167 HD
ENDROOT
BRANCH   4  26
HETATM   26  C7  UNL     1      21.466   2.524  50.420  1.00  0.00     0.059 A 
HETATM   27  C8  UNL     1      21.725   1.992  49.148  1.00  0.00     0.029 A 
HETATM   28  C9  UNL     1      22.822   2.579  48.577  1.00  0.00     0.003 A 
HETATM   29  C10 UNL     1      23.604   3.557  49.113  1.00  0.00     0.019 A 
HETATM   30  C11 UNL     1      23.211   3.988  50.401  1.00  0.00     0.117 A 
HETATM   31  N1  UNL     1      22.143   3.486  51.074  1.00  0.00    -0.263 NA
ENDBRANCH   4  26
BRANCH   1  32
HETATM   32  C2  UNL     1      17.608  -1.691  53.056  1.00  0.00    -0.007 C 
HETATM   33  C1  UNL     1      17.876  -2.777  53.778  1.00  0.00     0.026 C 
ENDBRANCH   1  32
BRANCH  14  34
HETATM   34  N5  UNL     1      12.340   1.438  54.754  1.00  0.00     0.062 NA
HETATM   35  C18 UNL     1      11.517   2.359  55.270  1.00  0.00     0.716 C 
ENDBRANCH  14  34
TORSDOF 3
ENDMDL
