MODEL 1
REMARK VINA RESULT:      -6.9      0.000      0.000
REMARK  6 active torsions:
REMARK  status: ('A' for Active; 'I' for Inactive)
REMARK    1  A    between atoms: C3_3  and  C4_4 
REMARK    2  A    between atoms: C4_4  and  O1_5 
REMARK    3  A    between atoms: C4_4  and  C5_6 
REMARK    4  A    between atoms: C9_11  and  C10_12 
REMARK    5  A    between atoms: C10_12  and  N2_13 
REMARK    6  A    between atoms: C17_21  and  N4_22 
ROOT
HETATM    1  C1  UNL     1      27.902   5.113  48.607  1.00  0.00     0.112 C 
HETATM    2  C2  UNL     1      26.464   5.053  48.884  1.00  0.00    -0.108 C 
HETATM    3  C3  UNL     1      25.270   5.009  49.094  1.00  0.00    -0.070 C 
ENDROOT
BRANCH   3   4
HETATM    4  C4  UNL     1      23.809   4.954  49.344  1.00  0.00     0.230 C 
BRANCH   4   5
HETATM    5  O1  UNL     1      23.177   4.162  48.390  1.00  0.00    -0.379 OA
HETATM    6  H5  UNL     1      22.452   3.615  48.820  1.00  0.00     0.211 HD
ENDBRANCH   4   5
BRANCH   4   7
HETATM    7  C5  UNL     1      23.622   4.429  50.722  1.00  0.00     0.022 C 
HETATM    8  C6  UNL     1      23.814   3.132  51.012  1.00  0.00     0.041 C 
HETATM    9  N1  UNL     1      24.130   1.736  50.810  1.00  0.00    -0.379 N 
HETATM   10  C15 UNL     1      23.574   2.767  52.450  1.00  0.00     0.185 C 
HETATM   11  C7  UNL     1      24.594   1.720  52.140  1.00  0.00     0.059 C 
HETATM   12  H6  UNL     1      23.916   1.317  49.861  1.00  0.00     0.160 HD
HETATM   13  C8  UNL     1      26.003   2.003  52.469  1.00  0.00     0.040 C 
HETATM   14  C14 UNL     1      24.573   0.455  52.934  1.00  0.00     0.040 C 
HETATM   15  C9  UNL     1      26.085   0.555  52.985  1.00  0.00     0.019 C 
HETATM   16  N3  UNL     1      24.043   3.768  53.351  1.00  0.00    -0.289 NA
HETATM   17  C16 UNL     1      23.888   4.988  53.061  1.00  0.00     0.124 C 
HETATM   18  C17 UNL     1      23.213   5.399  51.774  1.00  0.00     0.292 C 
BRANCH  15  19
HETATM   19  C10 UNL     1      26.627   0.547  54.398  1.00  0.00     0.277 C 
BRANCH  19  20
HETATM   20  N2  UNL     1      27.869  -0.141  54.456  1.00  0.00     0.088 N 
HETATM   21  C11 UNL     1      29.031   0.698  54.255  1.00  0.00     0.274 C 
HETATM   22  C12 UNL     1      29.711  -0.573  53.704  1.00  0.00     0.060 C 
HETATM   23  C13 UNL     1      28.273  -0.850  53.259  1.00  0.00     0.274 C 
ENDBRANCH  19  20
ENDBRANCH  15  19
BRANCH  18  24
HETATM   24  N4  UNL     1      21.794   5.417  52.009  1.00  0.00     0.092 N 
HETATM   25  H23 UNL     1      21.430   4.534  52.455  1.00  0.00     0.314 HD
HETATM   26  H24 UNL     1      21.217   5.683  51.198  1.00  0.00     0.314 HD
ENDBRANCH  18  24
ENDBRANCH   4   7
ENDBRANCH   3   4
TORSDOF 6
ENDMDL
MODEL 2
REMARK VINA RESULT:      -6.6      6.664      9.458
REMARK  6 active torsions:
REMARK  status: ('A' for Active; 'I' for Inactive)
REMARK    1  A    between atoms: C3_3  and  C4_4 
REMARK    2  A    between atoms: C4_4  and  O1_5 
REMARK    3  A    between atoms: C4_4  and  C5_6 
REMARK    4  A    between atoms: C9_11  and  C10_12 
REMARK    5  A    between atoms: C10_12  and  N2_13 
REMARK    6  A    between atoms: C17_21  and  N4_22 
ROOT
HETATM    1  C1  UNL     1      26.852   5.607  48.583  1.00  0.00     0.112 C 
HETATM    2  C2  UNL     1      27.071   6.991  49.016  1.00  0.00    -0.108 C 
HETATM    3  C3  UNL     1      27.272   8.131  49.377  1.00  0.00    -0.070 C 
ENDROOT
BRANCH   3   4
HETATM    4  C4  UNL     1      27.524   9.525  49.817  1.00  0.00     0.230 C 
BRANCH   4   5
HETATM    5  O1  UNL     1      27.531   9.608  51.206  1.00  0.00    -0.379 OA
HETATM    6  H5  UNL     1      27.530   8.687  51.607  1.00  0.00     0.211 HD
ENDBRANCH   4   5
BRANCH   4   7
HETATM    7  C5  UNL     1      28.823   9.940  49.224  1.00  0.00     0.022 C 
HETATM    8  C6  UNL     1      29.922   9.175  49.332  1.00  0.00     0.041 C 
HETATM    9  N1  UNL     1      30.756   8.056  49.708  1.00  0.00    -0.379 N 
HETATM   10  C15 UNL     1      31.151   9.745  48.684  1.00  0.00     0.185 C 
HETATM   11  C7  UNL     1      31.492   8.298  48.532  1.00  0.00     0.059 C 
HETATM   12  H6  UNL     1      30.521   7.549  50.609  1.00  0.00     0.160 HD
HETATM   13  C8  UNL     1      31.155   7.636  47.259  1.00  0.00     0.040 C 
HETATM   14  C14 UNL     1      32.933   7.916  48.448  1.00  0.00     0.040 C 
HETATM   15  C9  UNL     1      32.533   6.956  47.346  1.00  0.00     0.019 C 
HETATM   16  N3  UNL     1      30.863  10.395  47.448  1.00  0.00    -0.289 NA
HETATM   17  C16 UNL     1      29.813  11.089  47.339  1.00  0.00     0.124 C 
HETATM   18  C17 UNL     1      28.861  11.240  48.502  1.00  0.00     0.292 C 
BRANCH  15  19
HETATM   19  C10 UNL     1      33.297   7.186  46.060  1.00  0.00     0.277 C 
BRANCH  19  20
HETATM   20  N2  UNL     1      33.925   5.987  45.627  1.00  0.00     0.088 N 
HETATM   21  C11 UNL     1      33.014   4.967  45.154  1.00  0.00     0.274 C 
HETATM   22  C12 UNL     1      34.087   3.957  45.611  1.00  0.00     0.060 C 
HETATM   23  C13 UNL     1      34.312   5.049  46.661  1.00  0.00     0.274 C 
ENDBRANCH  19  20
ENDBRANCH  15  19
BRANCH  18  24
HETATM   24  N4  UNL     1      29.331  12.329  49.316  1.00  0.00     0.092 N 
HETATM   25  H23 UNL     1      29.633  12.033  50.281  1.00  0.00     0.314 HD
HETATM   26  H24 UNL     1      28.706  13.147  49.362  1.00  0.00     0.314 HD
ENDBRANCH  18  24
ENDBRANCH   4   7
ENDBRANCH   3   4
TORSDOF 6
ENDMDL
MODEL 3
REMARK VINA RESULT:      -6.5      3.004      7.135
REMARK  6 active torsions:
REMARK  status: ('A' for Active; 'I' for Inactive)
REMARK    1  A    between atoms: C3_3  and  C4_4 
REMARK    2  A    between atoms: C4_4  and  O1_5 
REMARK    3  A    between atoms: C4_4  and  C5_6 
REMARK    4  A    between atoms: C9_11  and  C10_12 
REMARK    5  A    between atoms: C10_12  and  N2_13 
REMARK    6  A    between atoms: C17_21  and  N4_22 
ROOT
HETATM    1  C1  UNL     1      20.387  -1.659  54.195  1.00  0.00     0.112 C 
HETATM    2  C2  UNL     1      21.770  -1.352  54.574  1.00  0.00    -0.108 C 
HETATM    3  C3  UNL     1      22.908  -1.102  54.907  1.00  0.00    -0.070 C 
ENDROOT
BRANCH   3   4
HETATM    4  C4  UNL     1      24.301  -0.799  55.320  1.00  0.00     0.230 C 
BRANCH   4   5
HETATM    5  O1  UNL     1      24.916  -1.933  55.841  1.00  0.00    -0.379 OA
HETATM    6  H5  UNL     1      24.565  -2.757  55.386  1.00  0.00     0.211 HD
ENDBRANCH   4   5
BRANCH   4   7
HETATM    7  C5  UNL     1      25.007  -0.278  54.120  1.00  0.00     0.022 C 
HETATM    8  C6  UNL     1      24.344   0.330  53.122  1.00  0.00     0.041 C 
HETATM    9  N1  UNL     1      23.233   0.872  52.374  1.00  0.00    -0.379 N 
HETATM   10  C15 UNL     1      25.207   0.788  51.982  1.00  0.00     0.185 C 
HETATM   11  C7  UNL     1      24.135   1.821  51.856  1.00  0.00     0.059 C 
HETATM   12  H6  UNL     1      22.289   0.405  52.490  1.00  0.00     0.160 HD
HETATM   13  C8  UNL     1      24.346   3.125  52.510  1.00  0.00     0.040 C 
HETATM   14  C14 UNL     1      23.900   2.435  50.515  1.00  0.00     0.040 C 
HETATM   15  C9  UNL     1      23.769   3.763  51.235  1.00  0.00     0.019 C 
HETATM   16  N3  UNL     1      26.457   1.316  52.422  1.00  0.00    -0.289 NA
HETATM   17  C16 UNL     1      27.064   0.761  53.382  1.00  0.00     0.124 C 
HETATM   18  C17 UNL     1      26.484  -0.455  54.065  1.00  0.00     0.292 C 
BRANCH  15  19
HETATM   19  C10 UNL     1      24.726   4.812  50.712  1.00  0.00     0.277 C 
BRANCH  19  20
HETATM   20  N2  UNL     1      24.017   5.954  50.250  1.00  0.00     0.088 N 
HETATM   21  C11 UNL     1      24.525   7.216  50.741  1.00  0.00     0.274 C 
HETATM   22  C12 UNL     1      23.079   7.731  50.578  1.00  0.00     0.060 C 
HETATM   23  C13 UNL     1      22.783   6.273  50.939  1.00  0.00     0.274 C 
ENDBRANCH  19  20
ENDBRANCH  15  19
BRANCH  18  24
HETATM   24  N4  UNL     1      26.890  -1.614  53.318  1.00  0.00     0.092 N 
HETATM   25  H23 UNL     1      26.351  -2.485  53.566  1.00  0.00     0.314 HD
HETATM   26  H24 UNL     1      27.904  -1.800  53.309  1.00  0.00     0.314 HD
ENDBRANCH  18  24
ENDBRANCH   4   7
ENDBRANCH   3   4
TORSDOF 6
ENDMDL
MODEL 4
REMARK VINA RESULT:      -6.4      2.859      3.441
REMARK  6 active torsions:
REMARK  status: ('A' for Active; 'I' for Inactive)
REMARK    1  A    between atoms: C3_3  and  C4_4 
REMARK    2  A    between atoms: C4_4  and  O1_5 
REMARK    3  A    between atoms: C4_4  and  C5_6 
REMARK    4  A    between atoms: C9_11  and  C10_12 
REMARK    5  A    between atoms: C10_12  and  N2_13 
REMARK    6  A    between atoms: C17_21  and  N4_22 
ROOT
HETATM    1  C1  UNL     1      21.482   4.192  47.880  1.00  0.00     0.112 C 
HETATM    2  C2  UNL     1      21.326   3.934  49.315  1.00  0.00    -0.108 C 
HETATM    3  C3  UNL     1      21.200   3.740  50.505  1.00  0.00    -0.070 C 
ENDROOT
BRANCH   3   4
HETATM    4  C4  UNL     1      21.045   3.510  51.963  1.00  0.00     0.230 C 
BRANCH   4   5
HETATM    5  O1  UNL     1      19.705   3.589  52.333  1.00  0.00    -0.379 OA
HETATM    6  H5  UNL     1      19.627   3.925  53.276  1.00  0.00     0.211 HD
ENDBRANCH   4   5
BRANCH   4   7
HETATM    7  C5  UNL     1      21.630   2.175  52.257  1.00  0.00     0.022 C 
HETATM    8  C6  UNL     1      22.899   1.876  51.931  1.00  0.00     0.041 C 
HETATM    9  N1  UNL     1      24.234   2.051  51.408  1.00  0.00    -0.379 N 
HETATM   10  C15 UNL     1      23.329   0.482  52.291  1.00  0.00     0.185 C 
HETATM   11  C7  UNL     1      24.665   1.143  52.395  1.00  0.00     0.059 C 
HETATM   12  H6  UNL     1      24.358   2.710  50.588  1.00  0.00     0.160 HD
HETATM   13  C8  UNL     1      25.113   1.600  53.722  1.00  0.00     0.040 C 
HETATM   14  C14 UNL     1      25.884   0.309  52.176  1.00  0.00     0.040 C 
HETATM   15  C9  UNL     1      26.497   1.035  53.357  1.00  0.00     0.019 C 
HETATM   16  N3  UNL     1      22.804   0.058  53.547  1.00  0.00    -0.289 NA
HETATM   17  C16 UNL     1      21.621   0.367  53.864  1.00  0.00     0.124 C 
HETATM   18  C17 UNL     1      20.755   1.177  52.929  1.00  0.00     0.292 C 
BRANCH  15  19
HETATM   19  C10 UNL     1      26.969   0.096  54.445  1.00  0.00     0.277 C 
BRANCH  19  20
HETATM   20  N2  UNL     1      28.385  -0.011  54.438  1.00  0.00     0.088 N 
HETATM   21  C11 UNL     1      29.057   0.946  53.586  1.00  0.00     0.274 C 
HETATM   22  C12 UNL     1      30.167  -0.119  53.457  1.00  0.00     0.060 C 
HETATM   23  C13 UNL     1      28.953  -1.042  53.593  1.00  0.00     0.274 C 
ENDBRANCH  19  20
ENDBRANCH  15  19
BRANCH  18  24
HETATM   24  N4  UNL     1      20.125   0.264  52.013  1.00  0.00     0.092 N 
HETATM   25  H23 UNL     1      19.661   0.741  51.196  1.00  0.00     0.314 HD
HETATM   26  H24 UNL     1      19.492  -0.425  52.444  1.00  0.00     0.314 HD
ENDBRANCH  18  24
ENDBRANCH   4   7
ENDBRANCH   3   4
TORSDOF 6
ENDMDL
MODEL 5
REMARK VINA RESULT:      -6.0      2.115      2.817
REMARK  6 active torsions:
REMARK  status: ('A' for Active; 'I' for Inactive)
REMARK    1  A    between atoms: C3_3  and  C4_4 
REMARK    2  A    between atoms: C4_4  and  O1_5 
REMARK    3  A    between atoms: C4_4  and  C5_6 
REMARK    4  A    between atoms: C9_11  and  C10_12 
REMARK    5  A    between atoms: C10_12  and  N2_13 
REMARK    6  A    between atoms: C17_21  and  N4_22 
ROOT
HETATM    1  C1  UNL     1      21.984   4.145  45.576  1.00  0.00     0.112 C 
HETATM    2  C2  UNL     1      21.670   3.434  46.819  1.00  0.00    -0.108 C 
HETATM    3  C3  UNL     1      21.430   2.840  47.849  1.00  0.00    -0.070 C 
ENDROOT
BRANCH   3   4
HETATM    4  C4  UNL     1      21.143   2.113  49.110  1.00  0.00     0.230 C 
BRANCH   4   5
HETATM    5  O1  UNL     1      21.469   0.766  48.986  1.00  0.00    -0.379 OA
HETATM    6  H5  UNL     1      21.494   0.333  49.892  1.00  0.00     0.211 HD
ENDBRANCH   4   5
BRANCH   4   7
HETATM    7  C5  UNL     1      21.922   2.784  50.185  1.00  0.00     0.022 C 
HETATM    8  C6  UNL     1      22.566   2.079  51.130  1.00  0.00     0.041 C 
HETATM    9  N1  UNL     1      23.049   0.932  51.863  1.00  0.00    -0.379 N 
HETATM   10  C15 UNL     1      23.297   2.911  52.145  1.00  0.00     0.185 C 
HETATM   11  C7  UNL     1      24.178   1.705  52.195  1.00  0.00     0.059 C 
HETATM   12  H6  UNL     1      22.444   0.061  51.868  1.00  0.00     0.160 HD
HETATM   13  C8  UNL     1      25.392   1.697  51.360  1.00  0.00     0.040 C 
HETATM   14  C14 UNL     1      24.937   1.436  53.452  1.00  0.00     0.040 C 
HETATM   15  C9  UNL     1      26.119   1.085  52.570  1.00  0.00     0.019 C 
HETATM   16  N3  UNL     1      23.925   4.052  51.564  1.00  0.00    -0.289 NA
HETATM   17  C16 UNL     1      23.330   4.694  50.653  1.00  0.00     0.124 C 
HETATM   18  C17 UNL     1      21.961   4.271  50.175  1.00  0.00     0.292 C 
BRANCH  15  19
HETATM   19  C10 UNL     1      27.354   1.898  52.890  1.00  0.00     0.277 C 
BRANCH  19  20
HETATM   20  N2  UNL     1      28.471   1.050  53.113  1.00  0.00     0.088 N 
HETATM   21  C11 UNL     1      28.174  -0.365  53.058  1.00  0.00     0.274 C 
HETATM   22  C12 UNL     1      29.358  -0.536  54.033  1.00  0.00     0.060 C 
HETATM   23  C13 UNL     1      28.854   0.834  54.494  1.00  0.00     0.274 C 
ENDBRANCH  19  20
ENDBRANCH  15  19
BRANCH  18  24
HETATM   24  N4  UNL     1      20.987   4.871  51.046  1.00  0.00     0.092 N 
HETATM   25  H23 UNL     1      21.141   4.652  52.065  1.00  0.00     0.314 HD
HETATM   26  H24 UNL     1      20.003   4.713  50.782  1.00  0.00     0.314 HD
ENDBRANCH  18  24
ENDBRANCH   4   7
ENDBRANCH   3   4
TORSDOF 6
ENDMDL
MODEL 6
REMARK VINA RESULT:      -6.0      1.341      2.091
REMARK  6 active torsions:
REMARK  status: ('A' for Active; 'I' for Inactive)
REMARK    1  A    between atoms: C3_3  and  C4_4 
REMARK    2  A    between atoms: C4_4  and  O1_5 
REMARK    3  A    between atoms: C4_4  and  C5_6 
REMARK    4  A    between atoms: C9_11  and  C10_12 
REMARK    5  A    between atoms: C10_12  and  N2_13 
REMARK    6  A    between atoms: C17_21  and  N4_22 
ROOT
HETATM    1  C1  UNL     1      20.957   3.608  46.527  1.00  0.00     0.112 C 
HETATM    2  C2  UNL     1      21.999   4.169  47.393  1.00  0.00    -0.108 C 
HETATM    3  C3  UNL     1      22.848   4.630  48.126  1.00  0.00    -0.070 C 
ENDROOT
BRANCH   3   4
HETATM    4  C4  UNL     1      23.884   5.191  49.028  1.00  0.00     0.230 C 
BRANCH   4   5
HETATM    5  O1  UNL     1      23.885   6.582  48.970  1.00  0.00    -0.379 OA
HETATM    6  H5  UNL     1      24.676   6.905  48.443  1.00  0.00     0.211 HD
ENDBRANCH   4   5
BRANCH   4   7
HETATM    7  C5  UNL     1      23.590   4.686  50.395  1.00  0.00     0.022 C 
HETATM    8  C6  UNL     1      23.651   3.377  50.690  1.00  0.00     0.041 C 
HETATM    9  N1  UNL     1      23.849   1.958  50.498  1.00  0.00    -0.379 N 
HETATM   10  C15 UNL     1      23.316   3.037  52.114  1.00  0.00     0.185 C 
HETATM   11  C7  UNL     1      24.251   1.902  51.846  1.00  0.00     0.059 C 
HETATM   12  H6  UNL     1      23.641   1.559  49.538  1.00  0.00     0.160 HD
HETATM   13  C8  UNL     1      25.663   2.057  52.239  1.00  0.00     0.040 C 
HETATM   14  C14 UNL     1      24.081   0.645  52.635  1.00  0.00     0.040 C 
HETATM   15  C9  UNL     1      25.591   0.609  52.754  1.00  0.00     0.019 C 
HETATM   16  N3  UNL     1      23.832   3.993  53.038  1.00  0.00    -0.289 NA
HETATM   17  C16 UNL     1      23.801   5.222  52.745  1.00  0.00     0.124 C 
HETATM   18  C17 UNL     1      23.223   5.690  51.431  1.00  0.00     0.292 C 
BRANCH  15  19
HETATM   19  C10 UNL     1      26.067   0.553  54.189  1.00  0.00     0.277 C 
BRANCH  19  20
HETATM   20  N2  UNL     1      27.237  -0.245  54.301  1.00  0.00     0.088 N 
HETATM   21  C11 UNL     1      28.456   0.501  54.525  1.00  0.00     0.274 C 
HETATM   22  C12 UNL     1      29.168  -0.668  53.812  1.00  0.00     0.060 C 
HETATM   23  C13 UNL     1      27.835  -0.695  53.059  1.00  0.00     0.274 C 
ENDBRANCH  19  20
ENDBRANCH  15  19
BRANCH  18  24
HETATM   24  N4  UNL     1      21.803   5.836  51.603  1.00  0.00     0.092 N 
HETATM   25  H23 UNL     1      21.479   6.838  51.603  1.00  0.00     0.314 HD
HETATM   26  H24 UNL     1      21.400   5.320  52.400  1.00  0.00     0.314 HD
ENDBRANCH  18  24
ENDBRANCH   4   7
ENDBRANCH   3   4
TORSDOF 6
ENDMDL
MODEL 7
REMARK VINA RESULT:      -5.9      3.805      5.559
REMARK  6 active torsions:
REMARK  status: ('A' for Active; 'I' for Inactive)
REMARK    1  A    between atoms: C3_3  and  C4_4 
REMARK    2  A    between atoms: C4_4  and  O1_5 
REMARK    3  A    between atoms: C4_4  and  C5_6 
REMARK    4  A    between atoms: C9_11  and  C10_12 
REMARK    5  A    between atoms: C10_12  and  N2_13 
REMARK    6  A    between atoms: C17_21  and  N4_22 
ROOT
HETATM    1  C1  UNL     1      28.348   6.698  47.828  1.00  0.00     0.112 C 
HETATM    2  C2  UNL     1      27.650   5.585  48.479  1.00  0.00    -0.108 C 
HETATM    3  C3  UNL     1      27.071   4.676  49.035  1.00  0.00    -0.070 C 
ENDROOT
BRANCH   3   4
HETATM    4  C4  UNL     1      26.359   3.569  49.719  1.00  0.00     0.230 C 
BRANCH   4   5
HETATM    5  O1  UNL     1      26.978   3.259  50.926  1.00  0.00    -0.379 OA
HETATM    6  H5  UNL     1      26.943   2.269  51.088  1.00  0.00     0.211 HD
ENDBRANCH   4   5
BRANCH   4   7
HETATM    7  C5  UNL     1      24.950   4.008  49.907  1.00  0.00     0.022 C 
HETATM    8  C6  UNL     1      23.928   3.357  49.327  1.00  0.00     0.041 C 
HETATM    9  N1  UNL     1      23.234   2.369  48.533  1.00  0.00    -0.379 N 
HETATM   10  C15 UNL     1      22.572   3.936  49.612  1.00  0.00     0.185 C 
HETATM   11  C7  UNL     1      22.152   2.514  49.422  1.00  0.00     0.059 C 
HETATM   12  H6  UNL     1      23.743   1.968  47.694  1.00  0.00     0.160 HD
HETATM   13  C8  UNL     1      22.016   1.665  50.619  1.00  0.00     0.040 C 
HETATM   14  C14 UNL     1      20.756   2.245  48.967  1.00  0.00     0.040 C 
HETATM   15  C9  UNL     1      20.727   1.118  49.981  1.00  0.00     0.019 C 
HETATM   16  N3  UNL     1      22.446   4.392  50.958  1.00  0.00    -0.289 NA
HETATM   17  C16 UNL     1      23.420   4.977  51.510  1.00  0.00     0.124 C 
HETATM   18  C17 UNL     1      24.714   5.201  50.764  1.00  0.00     0.292 C 
BRANCH  15  19
HETATM   19  C10 UNL     1      19.581   1.238  50.961  1.00  0.00     0.277 C 
BRANCH  19  20
HETATM   20  N2  UNL     1      19.262  -0.028  51.520  1.00  0.00     0.088 N 
HETATM   21  C11 UNL     1      17.851  -0.240  51.762  1.00  0.00     0.274 C 
HETATM   22  C12 UNL     1      18.304  -1.187  52.894  1.00  0.00     0.060 C 
HETATM   23  C13 UNL     1      19.447  -0.169  52.951  1.00  0.00     0.274 C 
ENDBRANCH  19  20
ENDBRANCH  15  19
BRANCH  18  24
HETATM   24  N4  UNL     1      24.583   6.422  50.016  1.00  0.00     0.092 N 
HETATM   25  H23 UNL     1      24.706   7.289  50.600  1.00  0.00     0.314 HD
HETATM   26  H24 UNL     1      23.737   6.491  49.430  1.00  0.00     0.314 HD
ENDBRANCH  18  24
ENDBRANCH   4   7
ENDBRANCH   3   4
TORSDOF 6
ENDMDL
MODEL 8
REMARK VINA RESULT:      -5.9      8.138      9.309
REMARK  6 active torsions:
REMARK  status: ('A' for Active; 'I' for Inactive)
REMARK    1  A    between atoms: C3_3  and  C4_4 
REMARK    2  A    between atoms: C4_4  and  O1_5 
REMARK    3  A    between atoms: C4_4  and  C5_6 
REMARK    4  A    between atoms: C9_11  and  C10_12 
REMARK    5  A    between atoms: C10_12  and  N2_13 
REMARK    6  A    between atoms: C17_21  and  N4_22 
ROOT
HETATM    1  C1  UNL     1      25.727   9.762  46.391  1.00  0.00     0.112 C 
HETATM    2  C2  UNL     1      26.755   9.936  47.423  1.00  0.00    -0.108 C 
HETATM    3  C3  UNL     1      27.595  10.097  48.281  1.00  0.00    -0.070 C 
ENDROOT
BRANCH   3   4
HETATM    4  C4  UNL     1      28.620  10.299  49.336  1.00  0.00     0.230 C 
BRANCH   4   5
HETATM    5  O1  UNL     1      28.380   9.460  50.420  1.00  0.00    -0.379 OA
HETATM    6  H5  UNL     1      27.631   8.826  50.207  1.00  0.00     0.211 HD
ENDBRANCH   4   5
BRANCH   4   7
HETATM    7  C5  UNL     1      29.944  10.043  48.710  1.00  0.00     0.022 C 
HETATM    8  C6  UNL     1      30.665   8.951  49.012  1.00  0.00     0.041 C 
HETATM    9  N1  UNL     1      31.020   7.699  49.641  1.00  0.00    -0.379 N 
HETATM   10  C15 UNL     1      31.983   8.850  48.298  1.00  0.00     0.185 C 
HETATM   11  C7  UNL     1      31.728   7.388  48.465  1.00  0.00     0.059 C 
HETATM   12  H6  UNL     1      30.656   7.521  50.621  1.00  0.00     0.160 HD
HETATM   13  C8  UNL     1      31.094   6.661  47.350  1.00  0.00     0.040 C 
HETATM   14  C14 UNL     1      32.903   6.466  48.510  1.00  0.00     0.040 C 
HETATM   15  C9  UNL     1      32.104   5.533  47.622  1.00  0.00     0.019 C 
HETATM   16  N3  UNL     1      31.904   9.291  46.944  1.00  0.00    -0.289 NA
HETATM   17  C16 UNL     1      31.200  10.301  46.658  1.00  0.00     0.124 C 
HETATM   18  C17 UNL     1      30.444  11.047  47.732  1.00  0.00     0.292 C 
BRANCH  15  19
HETATM   19  C10 UNL     1      32.828   5.176  46.342  1.00  0.00     0.277 C 
BRANCH  19  20
HETATM   20  N2  UNL     1      32.942   3.767  46.204  1.00  0.00     0.088 N 
HETATM   21  C11 UNL     1      31.777   3.024  46.632  1.00  0.00     0.274 C 
HETATM   22  C12 UNL     1      32.762   1.877  46.940  1.00  0.00     0.060 C 
HETATM   23  C13 UNL     1      33.670   3.072  47.246  1.00  0.00     0.274 C 
ENDBRANCH  19  20
ENDBRANCH  15  19
BRANCH  18  24
HETATM   24  N4  UNL     1      31.341  12.009  48.313  1.00  0.00     0.092 N 
HETATM   25  H23 UNL     1      32.304  12.000  47.884  1.00  0.00     0.314 HD
HETATM   26  H24 UNL     1      31.399  11.992  49.342  1.00  0.00     0.314 HD
ENDBRANCH  18  24
ENDBRANCH   4   7
ENDBRANCH   3   4
TORSDOF 6
ENDMDL
MODEL 9
REMARK VINA RESULT:      -5.8      7.251      8.622
REMARK  6 active torsions:
REMARK  status: ('A' for Active; 'I' for Inactive)
REMARK    1  A    between atoms: C3_3  and  C4_4 
REMARK    2  A    between atoms: C4_4  and  O1_5 
REMARK    3  A    between atoms: C4_4  and  C5_6 
REMARK    4  A    between atoms: C9_11  and  C10_12 
REMARK    5  A    between atoms: C10_12  and  N2_13 
REMARK    6  A    between atoms: C17_21  and  N4_22 
ROOT
HETATM    1  C1  UNL     1      26.839   9.036  43.694  1.00  0.00     0.112 C 
HETATM    2  C2  UNL     1      26.900   8.719  45.124  1.00  0.00    -0.108 C 
HETATM    3  C3  UNL     1      26.941   8.475  46.311  1.00  0.00    -0.070 C 
ENDROOT
BRANCH   3   4
HETATM    4  C4  UNL     1      26.985   8.181  47.764  1.00  0.00     0.230 C 
BRANCH   4   5
HETATM    5  O1  UNL     1      26.647   6.853  48.008  1.00  0.00    -0.379 OA
HETATM    6  H5  UNL     1      25.658   6.721  47.887  1.00  0.00     0.211 HD
ENDBRANCH   4   5
BRANCH   4   7
HETATM    7  C5  UNL     1      28.359   8.505  48.232  1.00  0.00     0.022 C 
HETATM    8  C6  UNL     1      29.207   7.547  48.642  1.00  0.00     0.041 C 
HETATM    9  N1  UNL     1      29.699   6.225  48.958  1.00  0.00    -0.379 N 
HETATM   10  C15 UNL     1      30.551   8.046  49.090  1.00  0.00     0.185 C 
HETATM   11  C7  UNL     1      30.981   6.695  48.616  1.00  0.00     0.059 C 
HETATM   12  H6  UNL     1      28.994   5.504  49.285  1.00  0.00     0.160 HD
HETATM   13  C8  UNL     1      31.507   6.575  47.244  1.00  0.00     0.040 C 
HETATM   14  C14 UNL     1      32.199   6.087  49.228  1.00  0.00     0.040 C 
HETATM   15  C9  UNL     1      32.586   5.648  47.830  1.00  0.00     0.019 C 
HETATM   16  N3  UNL     1      31.033   9.114  48.278  1.00  0.00    -0.289 NA
HETATM   17  C16 UNL     1      30.228   9.998  47.868  1.00  0.00     0.124 C 
HETATM   18  C17 UNL     1      28.763   9.937  48.229  1.00  0.00     0.292 C 
BRANCH  15  19
HETATM   19  C10 UNL     1      33.958   6.138  47.419  1.00  0.00     0.277 C 
BRANCH  19  20
HETATM   20  N2  UNL     1      34.739   5.070  46.902  1.00  0.00     0.088 N 
HETATM   21  C11 UNL     1      34.128   4.354  45.803  1.00  0.00     0.274 C 
HETATM   22  C12 UNL     1      34.948   3.139  46.288  1.00  0.00     0.060 C 
HETATM   23  C13 UNL     1      34.695   3.821  47.636  1.00  0.00     0.274 C 
ENDBRANCH  19  20
ENDBRANCH  15  19
BRANCH  18  24
HETATM   24  N4  UNL     1      28.599  10.576  49.507  1.00  0.00     0.092 N 
HETATM   25  H23 UNL     1      29.489  10.993  49.887  1.00  0.00     0.314 HD
HETATM   26  H24 UNL     1      28.124  10.009  50.225  1.00  0.00     0.314 HD
ENDBRANCH  18  24
ENDBRANCH   4   7
ENDBRANCH   3   4
TORSDOF 6
ENDMDL
