MODEL 1
REMARK VINA RESULT:      -8.5      0.000      0.000
REMARK  6 active torsions:
REMARK  status: ('A' for Active; 'I' for Inactive)
REMARK    1  A    between atoms: N1_2  and  C2_3 
REMARK    2  A    between atoms: C2_3  and  C3_4 
REMARK    3  A    between atoms: C3_4  and  O1_5 
REMARK    4  A    between atoms: O1_5  and  C4_6 
REMARK    5  A    between atoms: C7_9  and  N2_10 
REMARK    6  A    between atoms: N2_10  and  C8_11 
ROOT
HETATM    1  C4  UNL     1      25.491  -0.539  54.677  1.00  0.00     0.164 A 
HETATM    2  C5  UNL     1      24.943   0.010  53.605  1.00  0.00     0.068 A 
HETATM    3  C6  UNL     1      23.492  -0.156  53.479  1.00  0.00    -0.011 A 
HETATM    4  C7  UNL     1      23.120   0.493  52.365  1.00  0.00     0.062 C 
HETATM    5  C13 UNL     1      21.741   0.611  51.837  1.00  0.00     0.089 C 
HETATM    6  C14 UNL     1      21.572   0.801  50.417  1.00  0.00     0.103 C 
HETATM    7  N4  UNL     1      21.457   0.954  49.292  1.00  0.00    -0.191 NA
HETATM    8  C15 UNL     1      20.647   0.554  52.621  1.00  0.00     0.140 C 
HETATM    9  N5  UNL     1      20.537   0.380  54.039  1.00  0.00    -0.275 NA
HETATM   10  C16 UNL     1      21.374  -0.235  54.783  1.00  0.00     0.104 C 
HETATM   11  C17 UNL     1      22.604  -0.892  54.401  1.00  0.00     0.102 A 
HETATM   12  C18 UNL     1      23.439  -1.405  55.512  1.00  0.00     0.107 A 
HETATM   13  N6  UNL     1      24.734  -1.256  55.650  1.00  0.00    -0.240 NA
ENDROOT
BRANCH   4  14
HETATM   14  N2  UNL     1      24.072   1.180  51.538  1.00  0.00    -0.353 N 
HETATM   15  H10 UNL     1      24.827   0.750  50.958  1.00  0.00     0.166 HD
BRANCH  14  16
HETATM   16  C8  UNL     1      23.945   2.598  51.533  1.00  0.00     0.051 A 
HETATM   17  C9  UNL     1      23.632   3.287  52.687  1.00  0.00     0.145 A 
HETATM   18  N3  UNL     1      23.490   4.635  52.774  1.00  0.00    -0.269 NA
HETATM   19  C10 UNL     1      23.668   5.370  51.647  1.00  0.00     0.135 A 
HETATM   20  C11 UNL     1      23.978   4.710  50.492  1.00  0.00     0.030 A 
HETATM   21 BR1  UNL     1      24.243   5.697  48.860  1.00  0.00    -0.050 Br
HETATM   22  C12 UNL     1      24.130   3.339  50.365  1.00  0.00     0.051 A 
ENDBRANCH  14  16
ENDBRANCH   4  14
BRANCH   1  23
HETATM   23  O1  UNL     1      26.857  -0.439  54.899  1.00  0.00    -0.333 OA
BRANCH  23  24
HETATM   24  C3  UNL     1      27.664   0.163  53.920  1.00  0.00     0.207 C 
BRANCH  24  25
HETATM   25  C2  UNL     1      29.014   0.424  54.543  1.00  0.00     0.295 C 
BRANCH  25  26
HETATM   26  N1  UNL     1      29.370   1.811  54.548  1.00  0.00     0.081 N 
HETATM   27  C1  UNL     1      28.567   2.480  53.538  1.00  0.00     0.306 C 
HETATM   28  H4  UNL     1      29.174   2.292  55.454  1.00  0.00     0.315 HD
ENDBRANCH  25  26
ENDBRANCH  24  25
ENDBRANCH  23  24
ENDBRANCH   1  23
TORSDOF 6
ENDMDL
MODEL 2
REMARK VINA RESULT:      -7.0      1.659      2.080
REMARK  6 active torsions:
REMARK  status: ('A' for Active; 'I' for Inactive)
REMARK    1  A    between atoms: N1_2  and  C2_3 
REMARK    2  A    between atoms: C2_3  and  C3_4 
REMARK    3  A    between atoms: C3_4  and  O1_5 
REMARK    4  A    between atoms: O1_5  and  C4_6 
REMARK    5  A    between atoms: C7_9  and  N2_10 
REMARK    6  A    between atoms: N2_10  and  C8_11 
ROOT
HETATM    1  C4  UNL     1      24.648   0.187  53.206  1.00  0.00     0.164 A 
HETATM    2  C5  UNL     1      24.394   0.955  52.159  1.00  0.00     0.068 A 
HETATM    3  C6  UNL     1      22.976   1.178  51.866  1.00  0.00    -0.011 A 
HETATM    4  C7  UNL     1      22.920   2.001  50.807  1.00  0.00     0.062 C 
HETATM    5  C13 UNL     1      21.692   2.516  50.160  1.00  0.00     0.089 C 
HETATM    6  C14 UNL     1      21.760   2.874  48.764  1.00  0.00     0.103 C 
HETATM    7  N4  UNL     1      21.833   3.155  47.660  1.00  0.00    -0.191 NA
HETATM    8  C15 UNL     1      20.524   2.668  50.814  1.00  0.00     0.140 C 
HETATM    9  N5  UNL     1      20.193   2.397  52.182  1.00  0.00    -0.275 NA
HETATM   10  C16 UNL     1      20.751   1.523  52.926  1.00  0.00     0.104 C 
HETATM   11  C17 UNL     1      21.824   0.611  52.595  1.00  0.00     0.102 A 
HETATM   12  C18 UNL     1      22.357  -0.199  53.715  1.00  0.00     0.107 A 
HETATM   13  N6  UNL     1      23.621  -0.400  54.001  1.00  0.00    -0.240 NA
ENDROOT
BRANCH   4  14
HETATM   14  N2  UNL     1      24.110   2.496  50.172  1.00  0.00    -0.353 N 
HETATM   15  H10 UNL     1      24.805   1.943  49.623  1.00  0.00     0.166 HD
BRANCH  14  16
HETATM   16  C8  UNL     1      24.334   3.893  50.330  1.00  0.00     0.051 A 
HETATM   17  C9  UNL     1      23.787   4.584  51.392  1.00  0.00     0.145 A 
HETATM   18  N3  UNL     1      23.948   5.913  51.620  1.00  0.00    -0.269 NA
HETATM   19  C10 UNL     1      24.701   6.626  50.744  1.00  0.00     0.135 A 
HETATM   20  C11 UNL     1      25.252   5.962  49.684  1.00  0.00     0.030 A 
HETATM   21 BR1  UNL     1      26.330   6.918  48.406  1.00  0.00    -0.050 Br
HETATM   22  C12 UNL     1      25.110   4.610  49.420  1.00  0.00     0.051 A 
ENDBRANCH  14  16
ENDBRANCH   4  14
BRANCH   1  23
HETATM   23  O1  UNL     1      25.957  -0.087  53.578  1.00  0.00    -0.333 OA
BRANCH  23  24
HETATM   24  C3  UNL     1      26.548   0.675  54.598  1.00  0.00     0.207 C 
BRANCH  24  25
HETATM   25  C2  UNL     1      28.026   0.367  54.597  1.00  0.00     0.295 C 
BRANCH  25  26
HETATM   26  N1  UNL     1      28.842   1.531  54.770  1.00  0.00     0.081 N 
HETATM   27  C1  UNL     1      28.624   2.400  53.626  1.00  0.00     0.306 C 
HETATM   28  H4  UNL     1      28.604   2.088  55.621  1.00  0.00     0.315 HD
ENDBRANCH  25  26
ENDBRANCH  24  25
ENDBRANCH  23  24
ENDBRANCH   1  23
TORSDOF 6
ENDMDL
MODEL 3
REMARK VINA RESULT:      -6.8      2.105      4.063
REMARK  6 active torsions:
REMARK  status: ('A' for Active; 'I' for Inactive)
REMARK    1  A    between atoms: N1_2  and  C2_3 
REMARK    2  A    between atoms: C2_3  and  C3_4 
REMARK    3  A    between atoms: C3_4  and  O1_5 
REMARK    4  A    between atoms: O1_5  and  C4_6 
REMARK    5  A    between atoms: C7_9  and  N2_10 
REMARK    6  A    between atoms: N2_10  and  C8_11 
ROOT
HETATM    1  C4  UNL     1      26.301   1.844  51.559  1.00  0.00     0.164 A 
HETATM    2  C5  UNL     1      25.008   1.871  51.835  1.00  0.00     0.068 A 
HETATM    3  C6  UNL     1      24.495   0.721  52.584  1.00  0.00    -0.011 A 
HETATM    4  C7  UNL     1      23.189   0.945  52.800  1.00  0.00     0.062 C 
HETATM    5  C13 UNL     1      22.256   0.058  53.531  1.00  0.00     0.089 C 
HETATM    6  C14 UNL     1      20.855   0.119  53.190  1.00  0.00     0.103 C 
HETATM    7  N4  UNL     1      19.751   0.183  52.910  1.00  0.00    -0.191 NA
HETATM    8  C15 UNL     1      22.654  -0.794  54.496  1.00  0.00     0.140 C 
HETATM    9  N5  UNL     1      23.963  -1.043  55.021  1.00  0.00    -0.275 NA
HETATM   10  C16 UNL     1      25.062  -0.898  54.387  1.00  0.00     0.104 C 
HETATM   11  C17 UNL     1      25.264  -0.461  53.024  1.00  0.00     0.102 A 
HETATM   12  C18 UNL     1      26.671  -0.259  52.607  1.00  0.00     0.107 A 
HETATM   13  N6  UNL     1      27.152   0.768  51.949  1.00  0.00    -0.240 NA
ENDROOT
BRANCH   4  14
HETATM   14  N2  UNL     1      22.540   2.135  52.326  1.00  0.00    -0.353 N 
HETATM   15  H10 UNL     1      22.197   2.935  52.903  1.00  0.00     0.166 HD
BRANCH  14  16
HETATM   16  C8  UNL     1      22.362   2.197  50.915  1.00  0.00     0.051 A 
HETATM   17  C9  UNL     1      21.914   1.099  50.208  1.00  0.00     0.145 A 
HETATM   18  N3  UNL     1      21.716   1.068  48.864  1.00  0.00    -0.269 NA
HETATM   19  C10 UNL     1      21.974   2.195  48.154  1.00  0.00     0.135 A 
HETATM   20  C11 UNL     1      22.419   3.294  48.833  1.00  0.00     0.030 A 
HETATM   21 BR1  UNL     1      22.803   4.923  47.881  1.00  0.00    -0.050 Br
HETATM   22  C12 UNL     1      22.632   3.363  50.200  1.00  0.00     0.051 A 
ENDBRANCH  14  16
ENDBRANCH   4  14
BRANCH   1  23
HETATM   23  O1  UNL     1      26.894   2.884  50.858  1.00  0.00    -0.333 OA
BRANCH  23  24
HETATM   24  C3  UNL     1      26.402   3.214  49.585  1.00  0.00     0.207 C 
BRANCH  24  25
HETATM   25  C2  UNL     1      26.556   4.707  49.412  1.00  0.00     0.295 C 
BRANCH  25  26
HETATM   26  N1  UNL     1      25.724   5.462  50.300  1.00  0.00     0.081 N 
HETATM   27  C1  UNL     1      25.708   6.838  49.832  1.00  0.00     0.306 C 
HETATM   28  H4  UNL     1      24.731   5.140  50.321  1.00  0.00     0.315 HD
ENDBRANCH  25  26
ENDBRANCH  24  25
ENDBRANCH  23  24
ENDBRANCH   1  23
TORSDOF 6
ENDMDL
MODEL 4
REMARK VINA RESULT:      -6.7      2.043      2.867
REMARK  6 active torsions:
REMARK  status: ('A' for Active; 'I' for Inactive)
REMARK    1  A    between atoms: N1_2  and  C2_3 
REMARK    2  A    between atoms: C2_3  and  C3_4 
REMARK    3  A    between atoms: C3_4  and  O1_5 
REMARK    4  A    between atoms: O1_5  and  C4_6 
REMARK    5  A    between atoms: C7_9  and  N2_10 
REMARK    6  A    between atoms: N2_10  and  C8_11 
ROOT
HETATM    1  C4  UNL     1      25.411   2.026  53.527  1.00  0.00     0.164 A 
HETATM    2  C5  UNL     1      24.530   2.917  53.103  1.00  0.00     0.068 A 
HETATM    3  C6  UNL     1      23.216   2.384  52.733  1.00  0.00    -0.011 A 
HETATM    4  C7  UNL     1      22.457   3.430  52.370  1.00  0.00     0.062 C 
HETATM    5  C13 UNL     1      21.045   3.379  51.928  1.00  0.00     0.089 C 
HETATM    6  C14 UNL     1      20.570   4.421  51.051  1.00  0.00     0.103 C 
HETATM    7  N4  UNL     1      20.211   5.254  50.359  1.00  0.00    -0.191 NA
HETATM    8  C15 UNL     1      20.190   2.410  52.311  1.00  0.00     0.140 C 
HETATM    9  N5  UNL     1      20.400   1.281  53.167  1.00  0.00    -0.275 NA
HETATM   10  C16 UNL     1      21.512   0.678  53.347  1.00  0.00     0.104 C 
HETATM   11  C17 UNL     1      22.799   0.968  52.756  1.00  0.00     0.102 A 
HETATM   12  C18 UNL     1      23.941   0.174  53.266  1.00  0.00     0.107 A 
HETATM   13  N6  UNL     1      25.119   0.633  53.615  1.00  0.00    -0.240 NA
ENDROOT
BRANCH   4  14
HETATM   14  N2  UNL     1      22.967   4.773  52.385  1.00  0.00    -0.353 N 
HETATM   15  H10 UNL     1      22.827   5.489  53.132  1.00  0.00     0.166 HD
BRANCH  14  16
HETATM   16  C8  UNL     1      23.740   5.131  51.245  1.00  0.00     0.051 A 
HETATM   17  C9  UNL     1      23.775   4.322  50.128  1.00  0.00     0.145 A 
HETATM   18  N3  UNL     1      24.484   4.585  48.999  1.00  0.00    -0.269 NA
HETATM   19  C10 UNL     1      25.217   5.726  48.956  1.00  0.00     0.135 A 
HETATM   20  C11 UNL     1      25.197   6.543  50.051  1.00  0.00     0.030 A 
HETATM   21 BR1  UNL     1      26.217   8.177  50.050  1.00  0.00    -0.050 Br
HETATM   22  C12 UNL     1      24.488   6.309  51.217  1.00  0.00     0.051 A 
ENDBRANCH  14  16
ENDBRANCH   4  14
BRANCH   1  23
HETATM   23  O1  UNL     1      26.685   2.421  53.908  1.00  0.00    -0.333 OA
BRANCH  23  24
HETATM   24  C3  UNL     1      27.768   2.138  53.059  1.00  0.00     0.207 C 
BRANCH  24  25
HETATM   25  C2  UNL     1      29.014   2.101  53.911  1.00  0.00     0.295 C 
BRANCH  25  26
HETATM   26  N1  UNL     1      29.802   0.924  53.702  1.00  0.00     0.081 N 
HETATM   27  C1  UNL     1      29.013  -0.220  54.127  1.00  0.00     0.306 C 
HETATM   28  H4  UNL     1      30.055   0.760  52.702  1.00  0.00     0.315 HD
ENDBRANCH  25  26
ENDBRANCH  24  25
ENDBRANCH  23  24
ENDBRANCH   1  23
TORSDOF 6
ENDMDL
MODEL 5
REMARK VINA RESULT:      -6.7      3.441      5.593
REMARK  6 active torsions:
REMARK  status: ('A' for Active; 'I' for Inactive)
REMARK    1  A    between atoms: N1_2  and  C2_3 
REMARK    2  A    between atoms: C2_3  and  C3_4 
REMARK    3  A    between atoms: C3_4  and  O1_5 
REMARK    4  A    between atoms: O1_5  and  C4_6 
REMARK    5  A    between atoms: C7_9  and  N2_10 
REMARK    6  A    between atoms: N2_10  and  C8_11 
ROOT
HETATM    1  C4  UNL     1      24.420   5.067  50.711  1.00  0.00     0.164 A 
HETATM    2  C5  UNL     1      24.421   3.783  51.029  1.00  0.00     0.068 A 
HETATM    3  C6  UNL     1      23.258   3.318  51.790  1.00  0.00    -0.011 A 
HETATM    4  C7  UNL     1      23.420   1.999  51.983  1.00  0.00     0.062 C 
HETATM    5  C13 UNL     1      22.486   1.095  52.694  1.00  0.00     0.089 C 
HETATM    6  C14 UNL     1      23.028  -0.090  53.312  1.00  0.00     0.103 C 
HETATM    7  N4  UNL     1      23.474  -1.023  53.794  1.00  0.00    -0.191 NA
HETATM    8  C15 UNL     1      21.162   1.328  52.782  1.00  0.00     0.140 C 
HETATM    9  N5  UNL     1      20.380   2.409  52.261  1.00  0.00    -0.275 NA
HETATM   10  C16 UNL     1      20.798   3.596  52.042  1.00  0.00     0.104 C 
HETATM   11  C17 UNL     1      22.122   4.137  52.256  1.00  0.00     0.102 A 
HETATM   12  C18 UNL     1      22.343   5.521  51.778  1.00  0.00     0.107 A 
HETATM   13  N6  UNL     1      23.368   5.954  51.085  1.00  0.00    -0.240 NA
ENDROOT
BRANCH   4  14
HETATM   14  N2  UNL     1      24.569   1.298  51.482  1.00  0.00    -0.353 N 
HETATM   15  H10 UNL     1      24.679   0.864  50.539  1.00  0.00     0.166 HD
BRANCH  14  16
HETATM   16  C8  UNL     1      25.656   1.206  52.397  1.00  0.00     0.051 A 
HETATM   17  C9  UNL     1      25.852   2.168  53.367  1.00  0.00     0.145 A 
HETATM   18  N3  UNL     1      26.860   2.159  54.278  1.00  0.00    -0.269 NA
HETATM   19  C10 UNL     1      27.746   1.133  54.241  1.00  0.00     0.135 A 
HETATM   20  C11 UNL     1      27.573   0.169  53.289  1.00  0.00     0.030 A 
HETATM   21 BR1  UNL     1      28.798  -1.313  53.186  1.00  0.00    -0.050 Br
HETATM   22  C12 UNL     1      26.560   0.144  52.345  1.00  0.00     0.051 A 
ENDBRANCH  14  16
ENDBRANCH   4  14
BRANCH   1  23
HETATM   23  O1  UNL     1      25.469   5.614  49.987  1.00  0.00    -0.333 OA
BRANCH  23  24
HETATM   24  C3  UNL     1      26.363   4.754  49.328  1.00  0.00     0.207 C 
BRANCH  24  25
HETATM   25  C2  UNL     1      27.195   5.596  48.390  1.00  0.00     0.295 C 
BRANCH  25  26
HETATM   26  N1  UNL     1      28.450   5.992  48.956  1.00  0.00     0.081 N 
HETATM   27  C1  UNL     1      29.506   5.441  48.123  1.00  0.00     0.306 C 
HETATM   28  H4  UNL     1      28.593   7.026  48.978  1.00  0.00     0.315 HD
ENDBRANCH  25  26
ENDBRANCH  24  25
ENDBRANCH  23  24
ENDBRANCH   1  23
TORSDOF 6
ENDMDL
MODEL 6
REMARK VINA RESULT:      -6.7      2.975      6.279
REMARK  6 active torsions:
REMARK  status: ('A' for Active; 'I' for Inactive)
REMARK    1  A    between atoms: N1_2  and  C2_3 
REMARK    2  A    between atoms: C2_3  and  C3_4 
REMARK    3  A    between atoms: C3_4  and  O1_5 
REMARK    4  A    between atoms: O1_5  and  C4_6 
REMARK    5  A    between atoms: C7_9  and  N2_10 
REMARK    6  A    between atoms: N2_10  and  C8_11 
ROOT
HETATM    1  C4  UNL     1      19.996  -0.775  53.508  1.00  0.00     0.164 A 
HETATM    2  C5  UNL     1      20.503   0.344  53.016  1.00  0.00     0.068 A 
HETATM    3  C6  UNL     1      21.918   0.582  53.311  1.00  0.00    -0.011 A 
HETATM    4  C7  UNL     1      22.256   1.731  52.704  1.00  0.00     0.062 C 
HETATM    5  C13 UNL     1      23.594   2.367  52.712  1.00  0.00     0.089 C 
HETATM    6  C14 UNL     1      23.665   3.798  52.545  1.00  0.00     0.103 C 
HETATM    7  N4  UNL     1      23.703   4.930  52.410  1.00  0.00    -0.191 NA
HETATM    8  C15 UNL     1      24.738   1.671  52.862  1.00  0.00     0.140 C 
HETATM    9  N5  UNL     1      24.944   0.264  53.037  1.00  0.00    -0.275 NA
HETATM   10  C16 UNL     1      24.119  -0.551  53.571  1.00  0.00     0.104 C 
HETATM   11  C17 UNL     1      22.809  -0.276  54.118  1.00  0.00     0.102 A 
HETATM   12  C18 UNL     1      22.023  -1.456  54.548  1.00  0.00     0.107 A 
HETATM   13  N6  UNL     1      20.761  -1.694  54.284  1.00  0.00    -0.240 NA
ENDROOT
BRANCH   4  14
HETATM   14  N2  UNL     1      21.305   2.488  51.939  1.00  0.00    -0.353 N 
HETATM   15  H10 UNL     1      20.516   3.062  52.310  1.00  0.00     0.166 HD
BRANCH  14  16
HETATM   16  C8  UNL     1      21.490   2.428  50.529  1.00  0.00     0.051 A 
HETATM   17  C9  UNL     1      21.520   1.216  49.869  1.00  0.00     0.145 A 
HETATM   18  N3  UNL     1      21.691   1.065  48.529  1.00  0.00    -0.269 NA
HETATM   19  C10 UNL     1      21.844   2.182  47.774  1.00  0.00     0.135 A 
HETATM   20  C11 UNL     1      21.818   3.393  48.407  1.00  0.00     0.030 A 
HETATM   21 BR1  UNL     1      22.029   5.014  47.390  1.00  0.00    -0.050 Br
HETATM   22  C12 UNL     1      21.646   3.586  49.767  1.00  0.00     0.051 A 
ENDBRANCH  14  16
ENDBRANCH   4  14
BRANCH   1  23
HETATM   23  O1  UNL     1      18.666  -1.103  53.286  1.00  0.00    -0.333 OA
BRANCH  23  24
HETATM   24  C3  UNL     1      17.974  -0.469  52.241  1.00  0.00     0.207 C 
BRANCH  24  25
HETATM   25  C2  UNL     1      16.522  -0.868  52.351  1.00  0.00     0.295 C 
BRANCH  25  26
HETATM   26  N1  UNL     1      16.330  -2.091  53.072  1.00  0.00     0.081 N 
HETATM   27  C1  UNL     1      15.327  -2.870  52.366  1.00  0.00     0.306 C 
HETATM   28  H4  UNL     1      17.187  -2.685  53.128  1.00  0.00     0.315 HD
ENDBRANCH  25  26
ENDBRANCH  24  25
ENDBRANCH  23  24
ENDBRANCH   1  23
TORSDOF 6
ENDMDL
MODEL 7
REMARK VINA RESULT:      -6.7      1.967      5.086
REMARK  6 active torsions:
REMARK  status: ('A' for Active; 'I' for Inactive)
REMARK    1  A    between atoms: N1_2  and  C2_3 
REMARK    2  A    between atoms: C2_3  and  C3_4 
REMARK    3  A    between atoms: C3_4  and  O1_5 
REMARK    4  A    between atoms: O1_5  and  C4_6 
REMARK    5  A    between atoms: C7_9  and  N2_10 
REMARK    6  A    between atoms: N2_10  and  C8_11 
ROOT
HETATM    1  C4  UNL     1      21.103  -0.008  52.319  1.00  0.00     0.164 A 
HETATM    2  C5  UNL     1      22.362   0.393  52.255  1.00  0.00     0.068 A 
HETATM    3  C6  UNL     1      23.165   0.155  53.457  1.00  0.00    -0.011 A 
HETATM    4  C7  UNL     1      24.407   0.589  53.190  1.00  0.00     0.062 C 
HETATM    5  C13 UNL     1      25.569   0.541  54.107  1.00  0.00     0.089 C 
HETATM    6  C14 UNL     1      26.614   1.520  53.929  1.00  0.00     0.103 C 
HETATM    7  N4  UNL     1      27.431   2.301  53.773  1.00  0.00    -0.191 NA
HETATM    8  C15 UNL     1      25.695  -0.374  55.088  1.00  0.00     0.140 C 
HETATM    9  N5  UNL     1      24.819  -1.442  55.468  1.00  0.00    -0.275 NA
HETATM   10  C16 UNL     1      23.553  -1.463  55.308  1.00  0.00     0.104 C 
HETATM   11  C17 UNL     1      22.703  -0.449  54.723  1.00  0.00     0.102 A 
HETATM   12  C18 UNL     1      21.278  -0.817  54.549  1.00  0.00     0.107 A 
HETATM   13  N6  UNL     1      20.547  -0.625  53.478  1.00  0.00    -0.240 NA
ENDROOT
BRANCH   4  14
HETATM   14  N2  UNL     1      24.748   1.163  51.918  1.00  0.00    -0.353 N 
HETATM   15  H10 UNL     1      25.270   0.701  51.141  1.00  0.00     0.166 HD
BRANCH  14  16
HETATM   16  C8  UNL     1      24.313   2.505  51.733  1.00  0.00     0.051 A 
HETATM   17  C9  UNL     1      24.004   3.307  52.813  1.00  0.00     0.145 A 
HETATM   18  N3  UNL     1      23.582   4.596  52.729  1.00  0.00    -0.269 NA
HETATM   19  C10 UNL     1      23.451   5.146  51.496  1.00  0.00     0.135 A 
HETATM   20  C11 UNL     1      23.751   4.371  50.412  1.00  0.00     0.030 A 
HETATM   21 BR1  UNL     1      23.585   5.096  48.636  1.00  0.00    -0.050 Br
HETATM   22  C12 UNL     1      24.183   3.057  50.458  1.00  0.00     0.051 A 
ENDBRANCH  14  16
ENDBRANCH   4  14
BRANCH   1  23
HETATM   23  O1  UNL     1      20.252   0.164  51.236  1.00  0.00    -0.333 OA
BRANCH  23  24
HETATM   24  C3  UNL     1      19.242   1.136  51.311  1.00  0.00     0.207 C 
BRANCH  24  25
HETATM   25  C2  UNL     1      19.432   2.079  50.148  1.00  0.00     0.295 C 
BRANCH  25  26
HETATM   26  N1  UNL     1      20.323   3.161  50.443  1.00  0.00     0.081 N 
HETATM   27  C1  UNL     1      20.070   3.585  51.810  1.00  0.00     0.306 C 
HETATM   28  H4  UNL     1      21.333   2.900  50.392  1.00  0.00     0.315 HD
ENDBRANCH  25  26
ENDBRANCH  24  25
ENDBRANCH  23  24
ENDBRANCH   1  23
TORSDOF 6
ENDMDL
MODEL 8
REMARK VINA RESULT:      -6.3      2.854      5.240
REMARK  6 active torsions:
REMARK  status: ('A' for Active; 'I' for Inactive)
REMARK    1  A    between atoms: N1_2  and  C2_3 
REMARK    2  A    between atoms: C2_3  and  C3_4 
REMARK    3  A    between atoms: C3_4  and  O1_5 
REMARK    4  A    between atoms: O1_5  and  C4_6 
REMARK    5  A    between atoms: C7_9  and  N2_10 
REMARK    6  A    between atoms: N2_10  and  C8_11 
ROOT
HETATM    1  C4  UNL     1      25.564   3.078  51.128  1.00  0.00     0.164 A 
HETATM    2  C5  UNL     1      24.511   2.599  51.770  1.00  0.00     0.068 A 
HETATM    3  C6  UNL     1      24.690   1.282  52.388  1.00  0.00    -0.011 A 
HETATM    4  C7  UNL     1      23.542   0.985  53.016  1.00  0.00     0.062 C 
HETATM    5  C13 UNL     1      23.258  -0.243  53.793  1.00  0.00     0.089 C 
HETATM    6  C14 UNL     1      21.887  -0.680  53.896  1.00  0.00     0.103 C 
HETATM    7  N4  UNL     1      20.797  -1.009  53.969  1.00  0.00    -0.191 NA
HETATM    8  C15 UNL     1      24.218  -0.962  54.408  1.00  0.00     0.140 C 
HETATM    9  N5  UNL     1      25.634  -0.749  54.466  1.00  0.00    -0.275 NA
HETATM   10  C16 UNL     1      26.336  -0.153  53.582  1.00  0.00     0.104 C 
HETATM   11  C17 UNL     1      25.902   0.440  52.336  1.00  0.00     0.102 A 
HETATM   12  C18 UNL     1      26.933   1.185  51.577  1.00  0.00     0.107 A 
HETATM   13  N6  UNL     1      26.797   2.368  51.028  1.00  0.00    -0.240 NA
ENDROOT
BRANCH   4  14
HETATM   14  N2  UNL     1      22.421   1.883  53.003  1.00  0.00    -0.353 N 
HETATM   15  H10 UNL     1      22.227   2.656  53.678  1.00  0.00     0.166 HD
BRANCH  14  16
HETATM   16  C8  UNL     1      21.496   1.668  51.942  1.00  0.00     0.051 A 
HETATM   17  C9  UNL     1      21.893   1.065  50.766  1.00  0.00     0.145 A 
HETATM   18  N3  UNL     1      21.080   0.820  49.705  1.00  0.00    -0.269 NA
HETATM   19  C10 UNL     1      19.779   1.192  49.797  1.00  0.00     0.135 A 
HETATM   20  C11 UNL     1      19.363   1.791  50.953  1.00  0.00     0.030 A 
HETATM   21 BR1  UNL     1      17.528   2.342  51.144  1.00  0.00    -0.050 Br
HETATM   22  C12 UNL     1      20.161   2.057  52.053  1.00  0.00     0.051 A 
ENDBRANCH  14  16
ENDBRANCH   4  14
BRANCH   1  23
HETATM   23  O1  UNL     1      25.508   4.319  50.510  1.00  0.00    -0.333 OA
BRANCH  23  24
HETATM   24  C3  UNL     1      26.380   4.587  49.442  1.00  0.00     0.207 C 
BRANCH  24  25
HETATM   25  C2  UNL     1      26.225   6.046  49.085  1.00  0.00     0.295 C 
BRANCH  25  26
HETATM   26  N1  UNL     1      26.428   6.921  50.202  1.00  0.00     0.081 N 
HETATM   27  C1  UNL     1      25.787   8.188  49.895  1.00  0.00     0.306 C 
HETATM   28  H4  UNL     1      26.001   6.575  51.090  1.00  0.00     0.315 HD
ENDBRANCH  25  26
ENDBRANCH  24  25
ENDBRANCH  23  24
ENDBRANCH   1  23
TORSDOF 6
ENDMDL
MODEL 9
REMARK VINA RESULT:      -6.2      3.272      6.317
REMARK  6 active torsions:
REMARK  status: ('A' for Active; 'I' for Inactive)
REMARK    1  A    between atoms: N1_2  and  C2_3 
REMARK    2  A    between atoms: C2_3  and  C3_4 
REMARK    3  A    between atoms: C3_4  and  O1_5 
REMARK    4  A    between atoms: O1_5  and  C4_6 
REMARK    5  A    between atoms: C7_9  and  N2_10 
REMARK    6  A    between atoms: N2_10  and  C8_11 
ROOT
HETATM    1  C4  UNL     1      21.150   6.049  50.557  1.00  0.00     0.164 A 
HETATM    2  C5  UNL     1      21.623   4.956  51.135  1.00  0.00     0.068 A 
HETATM    3  C6  UNL     1      21.215   3.689  50.524  1.00  0.00    -0.011 A 
HETATM    4  C7  UNL     1      21.817   2.709  51.216  1.00  0.00     0.062 C 
HETATM    5  C13 UNL     1      21.710   1.256  50.953  1.00  0.00     0.089 C 
HETATM    6  C14 UNL     1      21.903   0.350  52.060  1.00  0.00     0.103 C 
HETATM    7  N4  UNL     1      22.060  -0.351  52.946  1.00  0.00    -0.191 NA
HETATM    8  C15 UNL     1      21.448   0.746  49.734  1.00  0.00     0.140 C 
HETATM    9  N5  UNL     1      21.223   1.413  48.486  1.00  0.00    -0.275 NA
HETATM   10  C16 UNL     1      20.743   2.587  48.342  1.00  0.00     0.104 C 
HETATM   11  C17 UNL     1      20.316   3.516  49.365  1.00  0.00     0.102 A 
HETATM   12  C18 UNL     1      19.927   4.866  48.896  1.00  0.00     0.107 A 
HETATM   13  N6  UNL     1      20.292   6.011  49.420  1.00  0.00    -0.240 NA
ENDROOT
BRANCH   4  14
HETATM   14  N2  UNL     1      22.677   2.992  52.331  1.00  0.00    -0.353 N 
HETATM   15  H10 UNL     1      22.387   3.307  53.284  1.00  0.00     0.166 HD
BRANCH  14  16
HETATM   16  C8  UNL     1      24.066   2.814  52.074  1.00  0.00     0.051 A 
HETATM   17  C9  UNL     1      24.854   2.065  52.924  1.00  0.00     0.145 A 
HETATM   18  N3  UNL     1      26.184   1.843  52.756  1.00  0.00    -0.269 NA
HETATM   19  C10 UNL     1      26.793   2.394  51.676  1.00  0.00     0.135 A 
HETATM   20  C11 UNL     1      26.032   3.141  50.822  1.00  0.00     0.030 A 
HETATM   21 BR1  UNL     1      26.839   3.949  49.272  1.00  0.00    -0.050 Br
HETATM   22  C12 UNL     1      24.677   3.388  50.959  1.00  0.00     0.051 A 
ENDBRANCH  14  16
ENDBRANCH   4  14
BRANCH   1  23
HETATM   23  O1  UNL     1      21.477   7.304  51.050  1.00  0.00    -0.333 OA
BRANCH  23  24
HETATM   24  C3  UNL     1      21.875   8.306  50.150  1.00  0.00     0.207 C 
BRANCH  24  25
HETATM   25  C2  UNL     1      23.305   8.021  49.757  1.00  0.00     0.295 C 
BRANCH  25  26
HETATM   26  N1  UNL     1      24.210   8.062  50.866  1.00  0.00     0.081 N 
HETATM   27  C1  UNL     1      25.340   7.205  50.549  1.00  0.00     0.306 C 
HETATM   28  H4  UNL     1      24.598   9.013  51.058  1.00  0.00     0.315 HD
ENDBRANCH  25  26
ENDBRANCH  24  25
ENDBRANCH  23  24
ENDBRANCH   1  23
TORSDOF 6
ENDMDL
