MODEL 1
REMARK VINA RESULT:      -7.6      0.000      0.000
REMARK  1 active torsions:
REMARK  status: ('A' for Active; 'I' for Inactive)
REMARK    1  A    between atoms: O1_2  and  C2_3 
ROOT
HETATM    1  C2  UNL     1      19.774   1.882  49.472  1.00  0.00     0.175 C 
HETATM    2  C3  UNL     1      18.855   1.109  50.021  1.00  0.00     0.039 C 
HETATM    3  C4  UNL     1      18.808   0.253  51.252  1.00  0.00     0.026 C 
HETATM    4  C5  UNL     1      19.306  -0.295  52.377  1.00  0.00     0.140 C 
HETATM    5  N1  UNL     1      20.484  -0.376  53.241  1.00  0.00    -0.381 N 
HETATM    6  C6  UNL     1      21.792   0.266  53.154  1.00  0.00     0.060 A 
HETATM    7  C7  UNL     1      22.896  -0.513  53.287  1.00  0.00     0.055 A 
HETATM    8  C8  UNL     1      24.055   0.184  52.975  1.00  0.00     0.037 A 
HETATM    9 CL1  UNL     1      25.551  -0.703  53.106  1.00  0.00    -0.084 Cl
HETATM   10  C9  UNL     1      23.987   1.505  52.585  1.00  0.00     0.040 A 
HETATM   11  C10 UNL     1      22.807   2.205  52.484  1.00  0.00     0.021 A 
HETATM   12  C11 UNL     1      22.674   3.516  52.099  1.00  0.00     0.048 A 
HETATM   13  N2  UNL     1      21.461   4.085  52.052  1.00  0.00    -0.246 NA
HETATM   14  C12 UNL     1      20.291   3.507  52.346  1.00  0.00     0.234 A 
HETATM   15  N3  UNL     1      20.469   2.245  52.702  1.00  0.00    -0.239 NA
HETATM   16  C13 UNL     1      21.620   1.577  52.784  1.00  0.00     0.097 A 
HETATM   17  C14 UNL     1      23.511   4.620  51.602  1.00  0.00     0.060 C 
HETATM   18  C15 UNL     1      23.235   4.890  50.161  1.00  0.00     0.006 C 
HETATM   19  C16 UNL     1      23.743   3.985  49.139  1.00  0.00     0.002 C 
HETATM   20  C17 UNL     1      23.399   2.580  48.951  1.00  0.00     0.027 C 
HETATM   21  C18 UNL     1      22.029   2.165  48.546  1.00  0.00     0.178 C 
HETATM   22  O2  UNL     1      21.058   2.440  49.472  1.00  0.00    -0.331 OA
HETATM   23  H7  UNL     1      20.272  -1.023  54.008  1.00  0.00     0.160 HD
ENDROOT
BRANCH   1  24
HETATM   24  O1  UNL     1      19.359   2.495  48.306  1.00  0.00    -0.336 OA
HETATM   25  C1  UNL     1      18.181   3.218  48.131  1.00  0.00     0.212 C 
ENDBRANCH   1  24
TORSDOF 1
ENDMDL
MODEL 2
REMARK VINA RESULT:      -7.3     11.171     13.898
REMARK  1 active torsions:
REMARK  status: ('A' for Active; 'I' for Inactive)
REMARK    1  A    between atoms: O1_2  and  C2_3 
ROOT
HETATM    1  C2  UNL     1      34.129   8.678  45.340  1.00  0.00     0.175 C 
HETATM    2  C3  UNL     1      33.829   9.892  45.763  1.00  0.00     0.039 C 
HETATM    3  C4  UNL     1      32.907  10.435  46.814  1.00  0.00     0.026 C 
HETATM    4  C5  UNL     1      31.995  10.346  47.801  1.00  0.00     0.140 C 
HETATM    5  N1  UNL     1      31.190   9.419  48.599  1.00  0.00    -0.381 N 
HETATM    6  C6  UNL     1      31.105   7.962  48.593  1.00  0.00     0.060 A 
HETATM    7  C7  UNL     1      29.873   7.394  48.544  1.00  0.00     0.055 A 
HETATM    8  C8  UNL     1      29.947   6.025  48.332  1.00  0.00     0.037 A 
HETATM    9 CL1  UNL     1      28.429   5.170  48.249  1.00  0.00    -0.084 Cl
HETATM   10  C9  UNL     1      31.174   5.409  48.197  1.00  0.00     0.040 A 
HETATM   11  C10 UNL     1      32.371   6.084  48.265  1.00  0.00     0.021 A 
HETATM   12  C11 UNL     1      33.621   5.530  48.135  1.00  0.00     0.048 A 
HETATM   13  N2  UNL     1      34.713   6.301  48.232  1.00  0.00    -0.246 NA
HETATM   14  C12 UNL     1      34.748   7.620  48.448  1.00  0.00     0.234 A 
HETATM   15  N3  UNL     1      33.523   8.109  48.558  1.00  0.00    -0.239 NA
HETATM   16  C13 UNL     1      32.371   7.443  48.479  1.00  0.00     0.097 A 
HETATM   17  C14 UNL     1      34.234   4.228  47.827  1.00  0.00     0.060 C 
HETATM   18  C15 UNL     1      34.855   4.240  46.470  1.00  0.00     0.006 C 
HETATM   19  C16 UNL     1      34.014   4.176  45.282  1.00  0.00     0.002 C 
HETATM   20  C17 UNL     1      33.022   5.152  44.846  1.00  0.00     0.027 C 
HETATM   21  C18 UNL     1      33.418   6.519  44.414  1.00  0.00     0.178 C 
HETATM   22  O2  UNL     1      33.969   7.289  45.405  1.00  0.00    -0.331 OA
HETATM   23  H7  UNL     1      30.609   9.971  49.238  1.00  0.00     0.160 HD
ENDROOT
BRANCH   1  24
HETATM   24  O1  UNL     1      35.062   8.661  44.321  1.00  0.00    -0.336 OA
HETATM   25  C1  UNL     1      36.000   9.655  44.048  1.00  0.00     0.212 C 
ENDBRANCH   1  24
TORSDOF 1
ENDMDL
MODEL 3
REMARK VINA RESULT:      -7.2      2.331      3.776
REMARK  1 active torsions:
REMARK  status: ('A' for Active; 'I' for Inactive)
REMARK    1  A    between atoms: O1_2  and  C2_3 
ROOT
HETATM    1  C2  UNL     1      21.310   1.010  50.716  1.00  0.00     0.175 C 
HETATM    2  C3  UNL     1      21.773   0.395  51.789  1.00  0.00     0.039 C 
HETATM    3  C4  UNL     1      23.000   0.554  52.637  1.00  0.00     0.026 C 
HETATM    4  C5  UNL     1      24.174   1.111  52.993  1.00  0.00     0.140 C 
HETATM    5  N1  UNL     1      25.155   2.141  52.651  1.00  0.00    -0.381 N 
HETATM    6  C6  UNL     1      25.180   3.135  51.581  1.00  0.00     0.060 A 
HETATM    7  C7  UNL     1      26.312   3.246  50.840  1.00  0.00     0.055 A 
HETATM    8  C8  UNL     1      26.124   4.068  49.738  1.00  0.00     0.037 A 
HETATM    9 CL1  UNL     1      27.505   4.298  48.698  1.00  0.00    -0.084 Cl
HETATM   10  C9  UNL     1      24.896   4.653  49.510  1.00  0.00     0.040 A 
HETATM   11  C10 UNL     1      23.807   4.473  50.332  1.00  0.00     0.021 A 
HETATM   12  C11 UNL     1      22.562   5.023  50.157  1.00  0.00     0.048 A 
HETATM   13  N2  UNL     1      21.585   4.775  51.041  1.00  0.00    -0.246 NA
HETATM   14  C12 UNL     1      21.669   4.012  52.138  1.00  0.00     0.234 A 
HETATM   15  N3  UNL     1      22.883   3.499  52.258  1.00  0.00    -0.239 NA
HETATM   16  C13 UNL     1      23.925   3.674  51.446  1.00  0.00     0.097 A 
HETATM   17  C14 UNL     1      21.835   5.841  49.173  1.00  0.00     0.060 C 
HETATM   18  C15 UNL     1      20.817   5.025  48.450  1.00  0.00     0.006 C 
HETATM   19  C16 UNL     1      21.235   4.081  47.422  1.00  0.00     0.002 C 
HETATM   20  C17 UNL     1      22.074   2.900  47.594  1.00  0.00     0.027 C 
HETATM   21  C18 UNL     1      21.612   1.731  48.389  1.00  0.00     0.178 C 
HETATM   22  O2  UNL     1      21.431   1.989  49.723  1.00  0.00    -0.331 OA
HETATM   23  H7  UNL     1      25.929   2.079  53.321  1.00  0.00     0.160 HD
ENDROOT
BRANCH   1  24
HETATM   24  O1  UNL     1      20.103   0.510  50.268  1.00  0.00    -0.336 OA
HETATM   25  C1  UNL     1      18.989   0.225  51.055  1.00  0.00     0.212 C 
ENDBRANCH   1  24
TORSDOF 1
ENDMDL
MODEL 4
REMARK VINA RESULT:      -6.9      2.467      4.965
REMARK  1 active torsions:
REMARK  status: ('A' for Active; 'I' for Inactive)
REMARK    1  A    between atoms: O1_2  and  C2_3 
ROOT
HETATM    1  C2  UNL     1      22.219   5.693  50.171  1.00  0.00     0.175 C 
HETATM    2  C3  UNL     1      23.275   6.344  49.718  1.00  0.00     0.039 C 
HETATM    3  C4  UNL     1      24.742   6.041  49.654  1.00  0.00     0.026 C 
HETATM    4  C5  UNL     1      25.843   5.291  49.853  1.00  0.00     0.140 C 
HETATM    5  N1  UNL     1      26.338   4.021  50.385  1.00  0.00    -0.381 N 
HETATM    6  C6  UNL     1      25.643   2.893  50.999  1.00  0.00     0.060 A 
HETATM    7  C7  UNL     1      26.123   2.408  52.172  1.00  0.00     0.055 A 
HETATM    8  C8  UNL     1      25.253   1.490  52.742  1.00  0.00     0.037 A 
HETATM    9 CL1  UNL     1      25.753   0.786  54.258  1.00  0.00    -0.084 Cl
HETATM   10  C9  UNL     1      24.066   1.176  52.114  1.00  0.00     0.040 A 
HETATM   11  C10 UNL     1      23.674   1.730  50.917  1.00  0.00     0.021 A 
HETATM   12  C11 UNL     1      22.506   1.462  50.246  1.00  0.00     0.048 A 
HETATM   13  N2  UNL     1      22.247   2.065  49.077  1.00  0.00    -0.246 NA
HETATM   14  C12 UNL     1      23.023   2.950  48.440  1.00  0.00     0.234 A 
HETATM   15  N3  UNL     1      24.130   3.180  49.128  1.00  0.00    -0.239 NA
HETATM   16  C13 UNL     1      24.491   2.644  50.294  1.00  0.00     0.097 A 
HETATM   17  C14 UNL     1      21.267   0.690  50.433  1.00  0.00     0.060 C 
HETATM   18  C15 UNL     1      20.107   1.596  50.680  1.00  0.00     0.006 C 
HETATM   19  C16 UNL     1      19.952   2.244  51.975  1.00  0.00     0.002 C 
HETATM   20  C17 UNL     1      20.851   3.211  52.595  1.00  0.00     0.027 C 
HETATM   21  C18 UNL     1      21.052   4.566  52.013  1.00  0.00     0.178 C 
HETATM   22  O2  UNL     1      21.647   4.568  50.778  1.00  0.00    -0.331 OA
HETATM   23  H7  UNL     1      27.358   4.006  50.278  1.00  0.00     0.160 HD
ENDROOT
BRANCH   1  24
HETATM   24  O1  UNL     1      21.032   6.381  50.013  1.00  0.00    -0.336 OA
HETATM   25  C1  UNL     1      20.864   7.761  50.108  1.00  0.00     0.212 C 
ENDBRANCH   1  24
TORSDOF 1
ENDMDL
MODEL 5
REMARK VINA RESULT:      -6.7      2.851      4.187
REMARK  1 active torsions:
REMARK  status: ('A' for Active; 'I' for Inactive)
REMARK    1  A    between atoms: O1_2  and  C2_3 
ROOT
HETATM    1  C2  UNL     1      20.960   3.295  49.262  1.00  0.00     0.175 C 
HETATM    2  C3  UNL     1      21.101   2.201  49.988  1.00  0.00     0.039 C 
HETATM    3  C4  UNL     1      22.230   1.610  50.779  1.00  0.00     0.026 C 
HETATM    4  C5  UNL     1      23.481   1.567  51.277  1.00  0.00     0.140 C 
HETATM    5  N1  UNL     1      24.766   2.265  51.327  1.00  0.00    -0.381 N 
HETATM    6  C6  UNL     1      25.206   3.524  50.733  1.00  0.00     0.060 A 
HETATM    7  C7  UNL     1      26.379   3.532  50.049  1.00  0.00     0.055 A 
HETATM    8  C8  UNL     1      26.566   4.725  49.366  1.00  0.00     0.037 A 
HETATM    9 CL1  UNL     1      28.040   4.869  48.444  1.00  0.00    -0.084 Cl
HETATM   10  C9  UNL     1      25.615   5.722  49.436  1.00  0.00     0.040 A 
HETATM   11  C10 UNL     1      24.454   5.610  50.166  1.00  0.00     0.021 A 
HETATM   12  C11 UNL     1      23.469   6.561  50.272  1.00  0.00     0.048 A 
HETATM   13  N2  UNL     1      22.386   6.330  51.027  1.00  0.00    -0.246 NA
HETATM   14  C12 UNL     1      22.120   5.224  51.732  1.00  0.00     0.234 A 
HETATM   15  N3  UNL     1      23.091   4.335  51.592  1.00  0.00    -0.239 NA
HETATM   16  C13 UNL     1      24.206   4.455  50.871  1.00  0.00     0.097 A 
HETATM   17  C14 UNL     1      23.137   7.883  49.719  1.00  0.00     0.060 C 
HETATM   18  C15 UNL     1      21.984   7.791  48.775  1.00  0.00     0.006 C 
HETATM   19  C16 UNL     1      22.175   7.233  47.444  1.00  0.00     0.002 C 
HETATM   20  C17 UNL     1      22.574   5.871  47.104  1.00  0.00     0.027 C 
HETATM   21  C18 UNL     1      21.692   4.709  47.395  1.00  0.00     0.178 C 
HETATM   22  O2  UNL     1      21.479   4.481  48.729  1.00  0.00    -0.331 OA
HETATM   23  H7  UNL     1      25.414   1.701  51.886  1.00  0.00     0.160 HD
ENDROOT
BRANCH   1  24
HETATM   24  O1  UNL     1      19.704   3.432  48.705  1.00  0.00    -0.336 OA
HETATM   25  C1  UNL     1      18.581   2.666  49.010  1.00  0.00     0.212 C 
ENDBRANCH   1  24
TORSDOF 1
ENDMDL
MODEL 6
REMARK VINA RESULT:      -6.6      2.721      4.764
REMARK  1 active torsions:
REMARK  status: ('A' for Active; 'I' for Inactive)
REMARK    1  A    between atoms: O1_2  and  C2_3 
ROOT
HETATM    1  C2  UNL     1      22.879   5.213  51.415  1.00  0.00     0.175 C 
HETATM    2  C3  UNL     1      23.764   4.746  52.277  1.00  0.00     0.039 C 
HETATM    3  C4  UNL     1      24.052   3.390  52.849  1.00  0.00     0.026 C 
HETATM    4  C5  UNL     1      23.858   2.067  53.009  1.00  0.00     0.140 C 
HETATM    5  N1  UNL     1      23.038   0.926  52.600  1.00  0.00    -0.381 N 
HETATM    6  C6  UNL     1      21.921   0.824  51.665  1.00  0.00     0.060 A 
HETATM    7  C7  UNL     1      20.796   0.188  52.081  1.00  0.00     0.055 A 
HETATM    8  C8  UNL     1      19.753   0.350  51.181  1.00  0.00     0.037 A 
HETATM    9 CL1  UNL     1      18.244  -0.421  51.595  1.00  0.00    -0.084 Cl
HETATM   10  C9  UNL     1      19.936   1.089  50.031  1.00  0.00     0.040 A 
HETATM   11  C10 UNL     1      21.128   1.695  49.703  1.00  0.00     0.021 A 
HETATM   12  C11 UNL     1      21.371   2.444  48.579  1.00  0.00     0.048 A 
HETATM   13  N2  UNL     1      22.586   2.974  48.372  1.00  0.00    -0.246 NA
HETATM   14  C12 UNL     1      23.656   2.865  49.168  1.00  0.00     0.234 A 
HETATM   15  N3  UNL     1      23.369   2.142  50.239  1.00  0.00    -0.239 NA
HETATM   16  C13 UNL     1      22.206   1.571  50.549  1.00  0.00     0.097 A 
HETATM   17  C14 UNL     1      20.643   2.975  47.416  1.00  0.00     0.060 C 
HETATM   18  C15 UNL     1      20.474   4.454  47.523  1.00  0.00     0.006 C 
HETATM   19  C16 UNL     1      19.496   5.011  48.448  1.00  0.00     0.002 C 
HETATM   20  C17 UNL     1      19.486   4.895  49.902  1.00  0.00     0.027 C 
HETATM   21  C18 UNL     1      20.542   5.529  50.737  1.00  0.00     0.178 C 
HETATM   22  O2  UNL     1      21.798   5.015  50.549  1.00  0.00    -0.331 OA
HETATM   23  H7  UNL     1      23.364   0.100  53.111  1.00  0.00     0.160 HD
ENDROOT
BRANCH   1  24
HETATM   24  O1  UNL     1      22.995   6.569  51.181  1.00  0.00    -0.336 OA
HETATM   25  C1  UNL     1      24.177   7.262  50.929  1.00  0.00     0.212 C 
ENDBRANCH   1  24
TORSDOF 1
ENDMDL
MODEL 7
REMARK VINA RESULT:      -6.5      9.972     12.703
REMARK  1 active torsions:
REMARK  status: ('A' for Active; 'I' for Inactive)
REMARK    1  A    between atoms: O1_2  and  C2_3 
ROOT
HETATM    1  C2  UNL     1      30.927   5.682  47.974  1.00  0.00     0.175 C 
HETATM    2  C3  UNL     1      29.631   5.444  48.055  1.00  0.00     0.039 C 
HETATM    3  C4  UNL     1      28.407   6.310  48.059  1.00  0.00     0.026 C 
HETATM    4  C5  UNL     1      27.738   7.479  48.017  1.00  0.00     0.140 C 
HETATM    5  N1  UNL     1      27.885   8.932  47.920  1.00  0.00    -0.381 N 
HETATM    6  C6  UNL     1      29.069   9.777  47.794  1.00  0.00     0.060 A 
HETATM    7  C7  UNL     1      29.189  10.839  48.631  1.00  0.00     0.055 A 
HETATM    8  C8  UNL     1      30.445  11.421  48.545  1.00  0.00     0.037 A 
HETATM    9 CL1  UNL     1      30.732  12.801  49.572  1.00  0.00    -0.084 Cl
HETATM   10  C9  UNL     1      31.391  10.906  47.683  1.00  0.00     0.040 A 
HETATM   11  C10 UNL     1      31.163   9.819  46.871  1.00  0.00     0.021 A 
HETATM   12  C11 UNL     1      32.063   9.259  45.998  1.00  0.00     0.048 A 
HETATM   13  N2  UNL     1      31.710   8.201  45.253  1.00  0.00    -0.246 NA
HETATM   14  C12 UNL     1      30.526   7.579  45.252  1.00  0.00     0.234 A 
HETATM   15  N3  UNL     1      29.698   8.148  46.113  1.00  0.00    -0.239 NA
HETATM   16  C13 UNL     1      29.937   9.196  46.902  1.00  0.00     0.097 A 
HETATM   17  C14 UNL     1      33.472   9.411  45.602  1.00  0.00     0.060 C 
HETATM   18  C15 UNL     1      34.290   8.265  46.095  1.00  0.00     0.006 C 
HETATM   19  C16 UNL     1      34.648   8.178  47.505  1.00  0.00     0.002 C 
HETATM   20  C17 UNL     1      33.744   8.033  48.640  1.00  0.00     0.027 C 
HETATM   21  C18 UNL     1      32.936   6.799  48.835  1.00  0.00     0.178 C 
HETATM   22  O2  UNL     1      31.998   6.577  47.861  1.00  0.00    -0.331 OA
HETATM   23  H7  UNL     1      26.951   9.351  47.966  1.00  0.00     0.160 HD
ENDROOT
BRANCH   1  24
HETATM   24  O1  UNL     1      31.704   4.542  48.008  1.00  0.00    -0.336 OA
HETATM   25  C1  UNL     1      31.977   3.700  46.932  1.00  0.00     0.212 C 
ENDBRANCH   1  24
TORSDOF 1
ENDMDL
MODEL 8
REMARK VINA RESULT:      -6.4      2.925      5.806
REMARK  1 active torsions:
REMARK  status: ('A' for Active; 'I' for Inactive)
REMARK    1  A    between atoms: O1_2  and  C2_3 
ROOT
HETATM    1  C2  UNL     1      23.459   1.363  51.844  1.00  0.00     0.175 C 
HETATM    2  C3  UNL     1      24.693   1.822  51.734  1.00  0.00     0.039 C 
HETATM    3  C4  UNL     1      25.336   2.905  50.920  1.00  0.00     0.026 C 
HETATM    4  C5  UNL     1      25.356   3.909  50.022  1.00  0.00     0.140 C 
HETATM    5  N1  UNL     1      24.536   4.702  49.105  1.00  0.00    -0.381 N 
HETATM    6  C6  UNL     1      23.108   4.663  48.806  1.00  0.00     0.060 A 
HETATM    7  C7  UNL     1      22.728   4.627  47.503  1.00  0.00     0.055 A 
HETATM    8  C8  UNL     1      21.369   4.380  47.371  1.00  0.00     0.037 A 
HETATM    9 CL1  UNL     1      20.748   4.310  45.743  1.00  0.00    -0.084 Cl
HETATM   10  C9  UNL     1      20.584   4.205  48.491  1.00  0.00     0.040 A 
HETATM   11  C10 UNL     1      21.074   4.263  49.776  1.00  0.00     0.021 A 
HETATM   12  C11 UNL     1      20.346   4.093  50.928  1.00  0.00     0.048 A 
HETATM   13  N2  UNL     1      20.945   4.184  52.123  1.00  0.00    -0.246 NA
HETATM   14  C12 UNL     1      22.240   4.432  52.356  1.00  0.00     0.234 A 
HETATM   15  N3  UNL     1      22.899   4.580  51.218  1.00  0.00    -0.239 NA
HETATM   16  C13 UNL     1      22.412   4.509  49.980  1.00  0.00     0.097 A 
HETATM   17  C14 UNL     1      18.977   3.741  51.337  1.00  0.00     0.060 C 
HETATM   18  C15 UNL     1      18.934   2.372  51.929  1.00  0.00     0.006 C 
HETATM   19  C16 UNL     1      19.026   1.201  51.067  1.00  0.00     0.002 C 
HETATM   20  C17 UNL     1      20.148   0.810  50.222  1.00  0.00     0.027 C 
HETATM   21  C18 UNL     1      21.454   0.402  50.807  1.00  0.00     0.178 C 
HETATM   22  O2  UNL     1      22.108   1.399  51.483  1.00  0.00    -0.331 OA
HETATM   23  H7  UNL     1      25.150   5.366  48.623  1.00  0.00     0.160 HD
ENDROOT
BRANCH   1  24
HETATM   24  O1  UNL     1      23.333   0.325  52.746  1.00  0.00    -0.336 OA
HETATM   25  C1  UNL     1      24.376  -0.410  53.306  1.00  0.00     0.212 C 
ENDBRANCH   1  24
TORSDOF 1
ENDMDL
MODEL 9
REMARK VINA RESULT:      -6.4     10.087     12.354
REMARK  1 active torsions:
REMARK  status: ('A' for Active; 'I' for Inactive)
REMARK    1  A    between atoms: O1_2  and  C2_3 
ROOT
HETATM    1  C2  UNL     1      28.988   8.847  45.428  1.00  0.00     0.175 C 
HETATM    2  C3  UNL     1      28.076   8.153  46.084  1.00  0.00     0.039 C 
HETATM    3  C4  UNL     1      28.102   7.288  47.309  1.00  0.00     0.026 C 
HETATM    4  C5  UNL     1      28.682   6.680  48.362  1.00  0.00     0.140 C 
HETATM    5  N1  UNL     1      29.945   6.480  49.074  1.00  0.00    -0.381 N 
HETATM    6  C6  UNL     1      31.286   7.002  48.828  1.00  0.00     0.060 A 
HETATM    7  C7  UNL     1      32.322   6.124  48.820  1.00  0.00     0.055 A 
HETATM    8  C8  UNL     1      33.493   6.717  48.369  1.00  0.00     0.037 A 
HETATM    9 CL1  UNL     1      34.906   5.696  48.312  1.00  0.00    -0.084 Cl
HETATM   10  C9  UNL     1      33.500   8.044  47.994  1.00  0.00     0.040 A 
HETATM   11  C10 UNL     1      32.385   8.850  48.043  1.00  0.00     0.021 A 
HETATM   12  C11 UNL     1      32.327  10.173  47.681  1.00  0.00     0.048 A 
HETATM   13  N2  UNL     1      31.175  10.851  47.786  1.00  0.00    -0.246 NA
HETATM   14  C12 UNL     1      30.002  10.377  48.220  1.00  0.00     0.234 A 
HETATM   15  N3  UNL     1      30.106   9.099  48.549  1.00  0.00    -0.239 NA
HETATM   16  C13 UNL     1      31.191   8.329  48.485  1.00  0.00     0.097 A 
HETATM   17  C14 UNL     1      33.195  11.203  47.088  1.00  0.00     0.060 C 
HETATM   18  C15 UNL     1      32.770  11.518  45.693  1.00  0.00     0.006 C 
HETATM   19  C16 UNL     1      33.063  10.585  44.613  1.00  0.00     0.002 C 
HETATM   20  C17 UNL     1      32.571   9.220  44.464  1.00  0.00     0.027 C 
HETATM   21  C18 UNL     1      31.129   8.937  44.231  1.00  0.00     0.178 C 
HETATM   22  O2  UNL     1      30.308   9.286  45.271  1.00  0.00    -0.331 OA
HETATM   23  H7  UNL     1      29.771   5.845  49.859  1.00  0.00     0.160 HD
ENDROOT
BRANCH   1  24
HETATM   24  O1  UNL     1      28.491   9.512  44.324  1.00  0.00    -0.336 OA
HETATM   25  C1  UNL     1      27.324   9.196  43.631  1.00  0.00     0.212 C 
ENDBRANCH   1  24
TORSDOF 1
ENDMDL
