MODEL 1
REMARK VINA RESULT:      -8.2      0.000      0.000
REMARK  7 active torsions:
REMARK  status: ('A' for Active; 'I' for Inactive)
REMARK    1  A    between atoms: C2_2  and  C3_3 
REMARK    2  A    between atoms: C3_3  and  N1_4 
REMARK    3  A    between atoms: C3_3  and  C18_25 
REMARK    4  A    between atoms: N1_4  and  C4_5 
REMARK       I    between atoms: N4_14  and  C11_15 
REMARK    5  A    between atoms: C11_15  and  C12_17 
REMARK    6  A    between atoms: C13_18  and  C14_19 
REMARK    7  A    between atoms: C14_19  and  N5_20 
ROOT
HETATM    1  C4  UNL     1      24.633   0.236  52.823  1.00  0.00     0.135 A 
HETATM    2  N2  UNL     1      25.592  -0.563  53.316  1.00  0.00    -0.224 NA
HETATM    3  C5  UNL     1      26.909  -0.422  53.141  1.00  0.00     0.236 A 
HETATM    4  N3  UNL     1      27.282   0.630  52.395  1.00  0.00    -0.234 NA
HETATM    5  C6  UNL     1      26.373   1.440  51.891  1.00  0.00     0.107 A 
HETATM    6  C7  UNL     1      25.028   1.318  52.055  1.00  0.00     0.030 A 
HETATM    7  C8  UNL     1      24.134   2.301  51.428  1.00  0.00     0.060 C 
HETATM    8  C9  UNL     1      23.340   3.140  52.346  1.00  0.00     0.032 C 
HETATM    9  C10 UNL     1      23.814   4.547  52.162  1.00  0.00     0.128 C 
HETATM   10  N4  UNL     1      24.558   4.539  50.936  1.00  0.00    -0.334 N 
HETATM   11  C11 UNL     1      24.888   5.765  50.304  1.00  0.00     0.244 C 
HETATM   12  O1  UNL     1      24.282   6.225  51.271  1.00  0.00    -0.268 OA
HETATM   13  C17 UNL     1      24.878   3.186  50.519  1.00  0.00     0.164 C 
HETATM   14  S1  UNL     1      26.629   2.885  50.878  1.00  0.00    -0.083 SA
ENDROOT
BRANCH   1  15
HETATM   15  N1  UNL     1      23.343  -0.173  53.206  1.00  0.00    -0.366 N 
HETATM   16  H7  UNL     1      23.269   0.065  54.247  1.00  0.00     0.161 HD
BRANCH  15  17
HETATM   17  C3  UNL     1      22.109  -0.750  52.829  1.00  0.00     0.116 C 
BRANCH  17  18
HETATM   18  C2  UNL     1      21.360  -1.225  54.043  1.00  0.00     0.025 C 
HETATM   19  C1  UNL     1      22.226  -1.618  55.201  1.00  0.00     0.007 C 
ENDBRANCH  17  18
BRANCH  17  20
HETATM   20  C18 UNL     1      21.248   0.202  52.038  1.00  0.00    -0.036 A 
HETATM   21  C19 UNL     1      20.475   0.989  52.865  1.00  0.00     0.009 A 
HETATM   22  C20 UNL     1      19.627   1.928  52.284  1.00  0.00     0.001 A 
HETATM   23  C21 UNL     1      19.590   2.037  50.900  1.00  0.00     0.000 A 
HETATM   24  C22 UNL     1      20.368   1.244  50.086  1.00  0.00     0.001 A 
HETATM   25  C23 UNL     1      21.206   0.317  50.668  1.00  0.00     0.009 A 
ENDBRANCH  17  20
ENDBRANCH  15  17
ENDBRANCH   1  15
BRANCH  11  26
HETATM   26  C12 UNL     1      25.593   6.169  49.110  1.00  0.00     0.072 C 
HETATM   27  C13 UNL     1      26.715   6.058  48.426  1.00  0.00     0.008 C 
BRANCH  27  28
HETATM   28  C14 UNL     1      28.036   5.395  48.485  1.00  0.00     0.299 C 
BRANCH  28  29
HETATM   29  N5  UNL     1      29.049   6.233  47.889  1.00  0.00     0.083 N 
HETATM   30  C15 UNL     1      30.352   5.803  48.301  1.00  0.00     0.309 C 
HETATM   31  C16 UNL     1      28.828   7.601  48.292  1.00  0.00     0.309 C 
ENDBRANCH  28  29
ENDBRANCH  27  28
ENDBRANCH  11  26
TORSDOF 7
ENDMDL
MODEL 2
REMARK VINA RESULT:      -8.1      3.379      8.792
REMARK  7 active torsions:
REMARK  status: ('A' for Active; 'I' for Inactive)
REMARK    1  A    between atoms: C2_2  and  C3_3 
REMARK    2  A    between atoms: C3_3  and  N1_4 
REMARK    3  A    between atoms: C3_3  and  C18_25 
REMARK    4  A    between atoms: N1_4  and  C4_5 
REMARK       I    between atoms: N4_14  and  C11_15 
REMARK    5  A    between atoms: C11_15  and  C12_17 
REMARK    6  A    between atoms: C13_18  and  C14_19 
REMARK    7  A    between atoms: C14_19  and  N5_20 
ROOT
HETATM    1  C4  UNL     1      23.545   3.191  51.882  1.00  0.00     0.135 A 
HETATM    2  N2  UNL     1      23.283   4.505  51.817  1.00  0.00    -0.224 NA
HETATM    3  C5  UNL     1      22.092   5.085  51.996  1.00  0.00     0.236 A 
HETATM    4  N3  UNL     1      21.077   4.249  52.268  1.00  0.00    -0.234 NA
HETATM    5  C6  UNL     1      21.292   2.950  52.341  1.00  0.00     0.107 A 
HETATM    6  C7  UNL     1      22.492   2.337  52.163  1.00  0.00     0.030 A 
HETATM    7  C8  UNL     1      22.576   0.874  52.273  1.00  0.00     0.060 C 
HETATM    8  C9  UNL     1      23.401   0.350  53.378  1.00  0.00     0.032 C 
HETATM    9  C10 UNL     1      22.473  -0.369  54.305  1.00  0.00     0.128 C 
HETATM   10  N4  UNL     1      21.263  -0.560  53.558  1.00  0.00    -0.334 N 
HETATM   11  C11 UNL     1      20.285  -1.474  54.024  1.00  0.00     0.244 C 
HETATM   12  O1  UNL     1      21.107  -1.623  54.928  1.00  0.00    -0.268 OA
HETATM   13  C17 UNL     1      21.237   0.274  52.371  1.00  0.00     0.164 C 
HETATM   14  S1  UNL     1      20.110   1.660  52.682  1.00  0.00    -0.083 SA
ENDROOT
BRANCH   1  15
HETATM   15  N1  UNL     1      24.905   2.903  51.666  1.00  0.00    -0.366 N 
HETATM   16  H7  UNL     1      25.440   3.547  52.332  1.00  0.00     0.161 HD
BRANCH  15  17
HETATM   17  C3  UNL     1      25.870   2.143  50.967  1.00  0.00     0.116 C 
BRANCH  17  18
HETATM   18  C2  UNL     1      26.761   3.045  50.158  1.00  0.00     0.025 C 
HETATM   19  C1  UNL     1      26.044   4.113  49.391  1.00  0.00     0.007 C 
ENDBRANCH  17  18
BRANCH  17  20
HETATM   20  C18 UNL     1      26.705   1.290  51.887  1.00  0.00    -0.036 A 
HETATM   21  C19 UNL     1      27.526   2.060  52.683  1.00  0.00     0.009 A 
HETATM   22  C20 UNL     1      28.358   1.418  53.595  1.00  0.00     0.001 A 
HETATM   23  C21 UNL     1      28.334   0.032  53.670  1.00  0.00     0.000 A 
HETATM   24  C22 UNL     1      27.509  -0.725  52.868  1.00  0.00     0.001 A 
HETATM   25  C23 UNL     1      26.687  -0.083  51.967  1.00  0.00     0.009 A 
ENDBRANCH  17  20
ENDBRANCH  15  17
ENDBRANCH   1  15
BRANCH  11  26
HETATM   26  C12 UNL     1      18.989  -1.935  53.581  1.00  0.00     0.072 C 
HETATM   27  C13 UNL     1      17.859  -1.587  52.995  1.00  0.00     0.008 C 
BRANCH  27  28
HETATM   28  C14 UNL     1      17.191  -0.413  52.394  1.00  0.00     0.299 C 
BRANCH  28  29
HETATM   29  N5  UNL     1      15.815  -0.721  52.080  1.00  0.00     0.083 N 
HETATM   30  C15 UNL     1      14.935   0.054  52.903  1.00  0.00     0.309 C 
HETATM   31  C16 UNL     1      15.585  -2.129  52.295  1.00  0.00     0.309 C 
ENDBRANCH  28  29
ENDBRANCH  27  28
ENDBRANCH  11  26
TORSDOF 7
ENDMDL
MODEL 3
REMARK VINA RESULT:      -8.0      2.071      4.478
REMARK  7 active torsions:
REMARK  status: ('A' for Active; 'I' for Inactive)
REMARK    1  A    between atoms: C2_2  and  C3_3 
REMARK    2  A    between atoms: C3_3  and  N1_4 
REMARK    3  A    between atoms: C3_3  and  C18_25 
REMARK    4  A    between atoms: N1_4  and  C4_5 
REMARK       I    between atoms: N4_14  and  C11_15 
REMARK    5  A    between atoms: C11_15  and  C12_17 
REMARK    6  A    between atoms: C13_18  and  C14_19 
REMARK    7  A    between atoms: C14_19  and  N5_20 
ROOT
HETATM    1  C4  UNL     1      22.953   1.417  51.088  1.00  0.00     0.135 A 
HETATM    2  N2  UNL     1      21.773   0.975  50.625  1.00  0.00    -0.224 NA
HETATM    3  C5  UNL     1      21.052   1.522  49.642  1.00  0.00     0.236 A 
HETATM    4  N3  UNL     1      21.582   2.620  49.079  1.00  0.00    -0.234 NA
HETATM    5  C6  UNL     1      22.740   3.087  49.503  1.00  0.00     0.107 A 
HETATM    6  C7  UNL     1      23.491   2.549  50.501  1.00  0.00     0.030 A 
HETATM    7  C8  UNL     1      24.764   3.186  50.866  1.00  0.00     0.060 C 
HETATM    8  C9  UNL     1      25.983   2.388  50.634  1.00  0.00     0.032 C 
HETATM    9  C10 UNL     1      26.772   3.103  49.583  1.00  0.00     0.128 C 
HETATM   10  N4  UNL     1      26.208   4.420  49.516  1.00  0.00    -0.334 N 
HETATM   11  C11 UNL     1      26.910   5.453  48.845  1.00  0.00     0.244 C 
HETATM   12  O1  UNL     1      27.721   4.546  48.663  1.00  0.00    -0.268 OA
HETATM   13  C17 UNL     1      24.922   4.480  50.185  1.00  0.00     0.164 C 
HETATM   14  S1  UNL     1      23.628   4.517  48.916  1.00  0.00    -0.083 SA
ENDROOT
BRANCH   1  15
HETATM   15  N1  UNL     1      23.466   0.606  52.116  1.00  0.00    -0.366 N 
HETATM   16  H7  UNL     1      23.532  -0.376  51.695  1.00  0.00     0.161 HD
BRANCH  15  17
HETATM   17  C3  UNL     1      23.931   0.514  53.447  1.00  0.00     0.116 C 
BRANCH  17  18
HETATM   18  C2  UNL     1      23.242  -0.613  54.166  1.00  0.00     0.025 C 
HETATM   19  C1  UNL     1      21.861  -0.921  53.674  1.00  0.00     0.007 C 
ENDBRANCH  17  18
BRANCH  17  20
HETATM   20  C18 UNL     1      25.425   0.329  53.521  1.00  0.00    -0.036 A 
HETATM   21  C19 UNL     1      25.836  -0.766  52.791  1.00  0.00     0.009 A 
HETATM   22  C20 UNL     1      27.194  -1.068  52.753  1.00  0.00     0.001 A 
HETATM   23  C21 UNL     1      28.083  -0.261  53.450  1.00  0.00     0.000 A 
HETATM   24  C22 UNL     1      27.659   0.830  54.177  1.00  0.00     0.001 A 
HETATM   25  C23 UNL     1      26.313   1.124  54.209  1.00  0.00     0.009 A 
ENDBRANCH  17  20
ENDBRANCH  15  17
ENDBRANCH   1  15
BRANCH  11  26
HETATM   26  C12 UNL     1      26.694   6.854  48.567  1.00  0.00     0.072 C 
HETATM   27  C13 UNL     1      27.269   7.991  48.225  1.00  0.00     0.008 C 
BRANCH  27  28
HETATM   28  C14 UNL     1      28.596   8.553  47.894  1.00  0.00     0.299 C 
BRANCH  28  29
HETATM   29  N5  UNL     1      29.529   8.312  48.970  1.00  0.00     0.083 N 
HETATM   30  C15 UNL     1      30.238   9.515  49.288  1.00  0.00     0.309 C 
HETATM   31  C16 UNL     1      30.456   7.281  48.568  1.00  0.00     0.309 C 
ENDBRANCH  28  29
ENDBRANCH  27  28
ENDBRANCH  11  26
TORSDOF 7
ENDMDL
MODEL 4
REMARK VINA RESULT:      -7.9      2.214      4.908
REMARK  7 active torsions:
REMARK  status: ('A' for Active; 'I' for Inactive)
REMARK    1  A    between atoms: C2_2  and  C3_3 
REMARK    2  A    between atoms: C3_3  and  N1_4 
REMARK    3  A    between atoms: C3_3  and  C18_25 
REMARK    4  A    between atoms: N1_4  and  C4_5 
REMARK       I    between atoms: N4_14  and  C11_15 
REMARK    5  A    between atoms: C11_15  and  C12_17 
REMARK    6  A    between atoms: C13_18  and  C14_19 
REMARK    7  A    between atoms: C14_19  and  N5_20 
ROOT
HETATM    1  C4  UNL     1      22.960   1.064  51.533  1.00  0.00     0.135 A 
HETATM    2  N2  UNL     1      21.774   0.582  51.134  1.00  0.00    -0.224 NA
HETATM    3  C5  UNL     1      20.995   1.089  50.173  1.00  0.00     0.236 A 
HETATM    4  N3  UNL     1      21.470   2.187  49.565  1.00  0.00    -0.234 NA
HETATM    5  C6  UNL     1      22.632   2.694  49.926  1.00  0.00     0.107 A 
HETATM    6  C7  UNL     1      23.442   2.197  50.900  1.00  0.00     0.030 A 
HETATM    7  C8  UNL     1      24.711   2.875  51.194  1.00  0.00     0.060 C 
HETATM    8  C9  UNL     1      25.940   2.104  50.924  1.00  0.00     0.032 C 
HETATM    9  C10 UNL     1      26.662   2.816  49.824  1.00  0.00     0.128 C 
HETATM   10  N4  UNL     1      26.060   4.116  49.755  1.00  0.00    -0.334 N 
HETATM   11  C11 UNL     1      26.703   5.152  49.032  1.00  0.00     0.244 C 
HETATM   12  O1  UNL     1      27.529   4.263  48.833  1.00  0.00    -0.268 OA
HETATM   13  C17 UNL     1      24.804   4.157  50.480  1.00  0.00     0.164 C 
HETATM   14  S1  UNL     1      23.454   4.133  49.270  1.00  0.00    -0.083 SA
ENDROOT
BRANCH   1  15
HETATM   15  N1  UNL     1      23.540   0.289  52.554  1.00  0.00    -0.366 N 
HETATM   16  H7  UNL     1      23.584  -0.706  52.163  1.00  0.00     0.161 HD
BRANCH  15  17
HETATM   17  C3  UNL     1      24.089   0.243  53.855  1.00  0.00     0.116 C 
BRANCH  17  18
HETATM   18  C2  UNL     1      23.419  -0.829  54.669  1.00  0.00     0.025 C 
HETATM   19  C1  UNL     1      21.923  -0.841  54.581  1.00  0.00     0.007 C 
ENDBRANCH  17  18
BRANCH  17  20
HETATM   20  C18 UNL     1      25.579   0.016  53.842  1.00  0.00    -0.036 A 
HETATM   21  C19 UNL     1      25.936  -0.946  52.922  1.00  0.00     0.009 A 
HETATM   22  C20 UNL     1      27.284  -1.265  52.784  1.00  0.00     0.001 A 
HETATM   23  C21 UNL     1      28.216  -0.608  53.575  1.00  0.00     0.000 A 
HETATM   24  C22 UNL     1      27.846   0.352  54.491  1.00  0.00     0.001 A 
HETATM   25  C23 UNL     1      26.510   0.664  54.622  1.00  0.00     0.009 A 
ENDBRANCH  17  20
ENDBRANCH  15  17
ENDBRANCH   1  15
BRANCH  11  26
HETATM   26  C12 UNL     1      26.437   6.541  48.736  1.00  0.00     0.072 C 
HETATM   27  C13 UNL     1      25.497   7.444  48.533  1.00  0.00     0.008 C 
BRANCH  27  28
HETATM   28  C14 UNL     1      24.025   7.577  48.484  1.00  0.00     0.299 C 
BRANCH  28  29
HETATM   29  N5  UNL     1      23.561   8.452  49.535  1.00  0.00     0.083 N 
HETATM   30  C15 UNL     1      23.583   7.768  50.793  1.00  0.00     0.309 C 
HETATM   31  C16 UNL     1      22.220   8.888  49.230  1.00  0.00     0.309 C 
ENDBRANCH  28  29
ENDBRANCH  27  28
ENDBRANCH  11  26
TORSDOF 7
ENDMDL
MODEL 5
REMARK VINA RESULT:      -7.9      3.607      8.348
REMARK  7 active torsions:
REMARK  status: ('A' for Active; 'I' for Inactive)
REMARK    1  A    between atoms: C2_2  and  C3_3 
REMARK    2  A    between atoms: C3_3  and  N1_4 
REMARK    3  A    between atoms: C3_3  and  C18_25 
REMARK    4  A    between atoms: N1_4  and  C4_5 
REMARK       I    between atoms: N4_14  and  C11_15 
REMARK    5  A    between atoms: C11_15  and  C12_17 
REMARK    6  A    between atoms: C13_18  and  C14_19 
REMARK    7  A    between atoms: C14_19  and  N5_20 
ROOT
HETATM    1  C4  UNL     1      23.849   0.039  53.815  1.00  0.00     0.135 A 
HETATM    2  N2  UNL     1      23.941  -0.917  54.752  1.00  0.00    -0.224 NA
HETATM    3  C5  UNL     1      22.922  -1.556  55.335  1.00  0.00     0.236 A 
HETATM    4  N3  UNL     1      21.699  -1.187  54.924  1.00  0.00    -0.234 NA
HETATM    5  C6  UNL     1      21.564  -0.252  54.005  1.00  0.00     0.107 A 
HETATM    6  C7  UNL     1      22.583   0.412  53.398  1.00  0.00     0.030 A 
HETATM    7  C8  UNL     1      22.276   1.436  52.390  1.00  0.00     0.060 C 
HETATM    8  C9  UNL     1      22.733   1.156  51.016  1.00  0.00     0.032 C 
HETATM    9  C10 UNL     1      21.505   1.009  50.174  1.00  0.00     0.128 C 
HETATM   10  N4  UNL     1      20.439   1.557  50.961  1.00  0.00    -0.334 N 
HETATM   11  C11 UNL     1      19.195   1.858  50.350  1.00  0.00     0.244 C 
HETATM   12  O1  UNL     1      19.780   1.431  49.354  1.00  0.00    -0.268 OA
HETATM   13  C17 UNL     1      20.833   1.719  52.348  1.00  0.00     0.164 C 
HETATM   14  S1  UNL     1      20.054   0.397  53.313  1.00  0.00    -0.083 SA
ENDROOT
BRANCH   1  15
HETATM   15  N1  UNL     1      25.109   0.497  53.389  1.00  0.00    -0.366 N 
HETATM   16  H7  UNL     1      25.453   1.144  54.169  1.00  0.00     0.161 HD
BRANCH  15  17
HETATM   17  C3  UNL     1      26.115   0.479  52.397  1.00  0.00     0.116 C 
BRANCH  17  18
HETATM   18  C2  UNL     1      26.710   1.850  52.229  1.00  0.00     0.025 C 
HETATM   19  C1  UNL     1      26.394   2.515  50.924  1.00  0.00     0.007 C 
ENDBRANCH  17  18
BRANCH  17  20
HETATM   20  C18 UNL     1      27.206  -0.516  52.704  1.00  0.00    -0.036 A 
HETATM   21  C19 UNL     1      28.321   0.102  53.227  1.00  0.00     0.009 A 
HETATM   22  C20 UNL     1      29.416  -0.685  53.571  1.00  0.00     0.001 A 
HETATM   23  C21 UNL     1      29.348  -2.058  53.373  1.00  0.00     0.000 A 
HETATM   24  C22 UNL     1      28.227  -2.662  52.848  1.00  0.00     0.001 A 
HETATM   25  C23 UNL     1      27.146  -1.877  52.511  1.00  0.00     0.009 A 
ENDBRANCH  17  20
ENDBRANCH  15  17
ENDBRANCH   1  15
BRANCH  11  26
HETATM   26  C12 UNL     1      17.925   2.400  50.775  1.00  0.00     0.072 C 
HETATM   27  C13 UNL     1      16.737   2.112  51.271  1.00  0.00     0.008 C 
BRANCH  27  28
HETATM   28  C14 UNL     1      15.932   0.958  51.726  1.00  0.00     0.299 C 
BRANCH  28  29
HETATM   29  N5  UNL     1      14.657   1.403  52.238  1.00  0.00     0.083 N 
HETATM   30  C15 UNL     1      14.782   2.711  52.808  1.00  0.00     0.309 C 
HETATM   31  C16 UNL     1      14.197   0.468  53.237  1.00  0.00     0.309 C 
ENDBRANCH  28  29
ENDBRANCH  27  28
ENDBRANCH  11  26
TORSDOF 7
ENDMDL
MODEL 6
REMARK VINA RESULT:      -7.5      2.124      8.180
REMARK  7 active torsions:
REMARK  status: ('A' for Active; 'I' for Inactive)
REMARK    1  A    between atoms: C2_2  and  C3_3 
REMARK    2  A    between atoms: C3_3  and  N1_4 
REMARK    3  A    between atoms: C3_3  and  C18_25 
REMARK    4  A    between atoms: N1_4  and  C4_5 
REMARK       I    between atoms: N4_14  and  C11_15 
REMARK    5  A    between atoms: C11_15  and  C12_17 
REMARK    6  A    between atoms: C13_18  and  C14_19 
REMARK    7  A    between atoms: C14_19  and  N5_20 
ROOT
HETATM    1  C4  UNL     1      26.070   3.417  50.796  1.00  0.00     0.135 A 
HETATM    2  N2  UNL     1      27.149   2.860  51.366  1.00  0.00    -0.224 NA
HETATM    3  C5  UNL     1      27.170   1.746  52.103  1.00  0.00     0.236 A 
HETATM    4  N3  UNL     1      25.983   1.143  52.273  1.00  0.00    -0.234 NA
HETATM    5  C6  UNL     1      24.897   1.656  51.729  1.00  0.00     0.107 A 
HETATM    6  C7  UNL     1      24.850   2.788  50.976  1.00  0.00     0.030 A 
HETATM    7  C8  UNL     1      23.560   3.240  50.437  1.00  0.00     0.060 C 
HETATM    8  C9  UNL     1      23.432   3.243  48.967  1.00  0.00     0.032 C 
HETATM    9  C10 UNL     1      22.386   2.229  48.624  1.00  0.00     0.128 C 
HETATM   10  N4  UNL     1      21.703   1.959  49.856  1.00  0.00    -0.334 N 
HETATM   11  C11 UNL     1      20.459   1.277  49.835  1.00  0.00     0.244 C 
HETATM   12  O1  UNL     1      20.670   1.290  48.623  1.00  0.00    -0.268 OA
HETATM   13  C17 UNL     1      22.449   2.455  50.996  1.00  0.00     0.164 C 
HETATM   14  S1  UNL     1      23.227   1.039  51.820  1.00  0.00    -0.083 SA
ENDROOT
BRANCH   1  15
HETATM   15  N1  UNL     1      26.385   4.578  50.067  1.00  0.00    -0.366 N 
HETATM   16  H7  UNL     1      27.135   5.078  50.643  1.00  0.00     0.161 HD
BRANCH  15  17
HETATM   17  C3  UNL     1      26.155   5.368  48.918  1.00  0.00     0.116 C 
BRANCH  17  18
HETATM   18  C2  UNL     1      25.160   6.455  49.221  1.00  0.00     0.025 C 
HETATM   19  C1  UNL     1      25.154   6.921  50.645  1.00  0.00     0.007 C 
ENDBRANCH  17  18
BRANCH  17  20
HETATM   20  C18 UNL     1      27.423   5.974  48.375  1.00  0.00    -0.036 A 
HETATM   21  C19 UNL     1      28.488   5.106  48.490  1.00  0.00     0.009 A 
HETATM   22  C20 UNL     1      29.733   5.519  48.024  1.00  0.00     0.001 A 
HETATM   23  C21 UNL     1      29.859   6.783  47.465  1.00  0.00     0.000 A 
HETATM   24  C22 UNL     1      28.786   7.641  47.356  1.00  0.00     0.001 A 
HETATM   25  C23 UNL     1      27.555   7.226  47.819  1.00  0.00     0.009 A 
ENDBRANCH  17  20
ENDBRANCH  15  17
ENDBRANCH   1  15
BRANCH  11  26
HETATM   26  C12 UNL     1      19.494   0.834  50.815  1.00  0.00     0.072 C 
HETATM   27  C13 UNL     1      19.310   0.494  52.076  1.00  0.00     0.008 C 
BRANCH  27  28
HETATM   28  C14 UNL     1      20.053   0.352  53.347  1.00  0.00     0.299 C 
BRANCH  28  29
HETATM   29  N5  UNL     1      20.456  -1.021  53.546  1.00  0.00     0.083 N 
HETATM   30  C15 UNL     1      19.317  -1.830  53.862  1.00  0.00     0.309 C 
HETATM   31  C16 UNL     1      21.420  -1.079  54.619  1.00  0.00     0.309 C 
ENDBRANCH  28  29
ENDBRANCH  27  28
ENDBRANCH  11  26
TORSDOF 7
ENDMDL
MODEL 7
REMARK VINA RESULT:      -7.4      2.338      4.372
REMARK  7 active torsions:
REMARK  status: ('A' for Active; 'I' for Inactive)
REMARK    1  A    between atoms: C2_2  and  C3_3 
REMARK    2  A    between atoms: C3_3  and  N1_4 
REMARK    3  A    between atoms: C3_3  and  C18_25 
REMARK    4  A    between atoms: N1_4  and  C4_5 
REMARK       I    between atoms: N4_14  and  C11_15 
REMARK    5  A    between atoms: C11_15  and  C12_17 
REMARK    6  A    between atoms: C13_18  and  C14_19 
REMARK    7  A    between atoms: C14_19  and  N5_20 
ROOT
HETATM    1  C4  UNL     1      23.133   3.140  50.710  1.00  0.00     0.135 A 
HETATM    2  N2  UNL     1      21.878   2.913  50.292  1.00  0.00    -0.224 NA
HETATM    3  C5  UNL     1      21.228   3.584  49.337  1.00  0.00     0.236 A 
HETATM    4  N3  UNL     1      21.920   4.575  48.753  1.00  0.00    -0.234 NA
HETATM    5  C6  UNL     1      23.157   4.830  49.132  1.00  0.00     0.107 A 
HETATM    6  C7  UNL     1      23.839   4.164  50.102  1.00  0.00     0.030 A 
HETATM    7  C8  UNL     1      25.216   4.566  50.418  1.00  0.00     0.060 C 
HETATM    8  C9  UNL     1      26.267   3.568  50.142  1.00  0.00     0.032 C 
HETATM    9  C10 UNL     1      27.130   4.139  49.061  1.00  0.00     0.128 C 
HETATM   10  N4  UNL     1      26.803   5.535  49.013  1.00  0.00    -0.334 N 
HETATM   11  C11 UNL     1      27.649   6.433  48.315  1.00  0.00     0.244 C 
HETATM   12  O1  UNL     1      28.281   5.398  48.104  1.00  0.00    -0.268 OA
HETATM   13  C17 UNL     1      25.573   5.816  49.729  1.00  0.00     0.164 C 
HETATM   14  S1  UNL     1      24.259   6.085  48.510  1.00  0.00    -0.083 SA
ENDROOT
BRANCH   1  15
HETATM   15  N1  UNL     1      23.534   2.246  51.720  1.00  0.00    -0.366 N 
HETATM   16  H7  UNL     1      23.517   2.817  52.625  1.00  0.00     0.161 HD
BRANCH  15  17
HETATM   17  C3  UNL     1      23.941   0.938  52.066  1.00  0.00     0.116 C 
BRANCH  17  18
HETATM   18  C2  UNL     1      25.239   0.977  52.825  1.00  0.00     0.025 C 
HETATM   19  C1  UNL     1      26.424   0.458  52.069  1.00  0.00     0.007 C 
ENDBRANCH  17  18
BRANCH  17  20
HETATM   20  C18 UNL     1      22.899   0.208  52.874  1.00  0.00    -0.036 A 
HETATM   21  C19 UNL     1      23.466  -0.481  53.925  1.00  0.00     0.009 A 
HETATM   22  C20 UNL     1      22.631  -1.203  54.773  1.00  0.00     0.001 A 
HETATM   23  C21 UNL     1      21.264  -1.206  54.530  1.00  0.00     0.000 A 
HETATM   24  C22 UNL     1      20.711  -0.513  53.476  1.00  0.00     0.001 A 
HETATM   25  C23 UNL     1      21.543   0.201  52.641  1.00  0.00     0.009 A 
ENDBRANCH  17  20
ENDBRANCH  15  17
ENDBRANCH   1  15
BRANCH  11  26
HETATM   26  C12 UNL     1      27.672   7.852  48.044  1.00  0.00     0.072 C 
HETATM   27  C13 UNL     1      28.071   9.031  48.480  1.00  0.00     0.008 C 
BRANCH  27  28
HETATM   28  C14 UNL     1      28.798   9.652  49.608  1.00  0.00     0.299 C 
BRANCH  28  29
HETATM   29  N5  UNL     1      30.124  10.051  49.196  1.00  0.00     0.083 N 
HETATM   30  C15 UNL     1      30.094  10.556  47.856  1.00  0.00     0.309 C 
HETATM   31  C16 UNL     1      31.007   8.912  49.278  1.00  0.00     0.309 C 
ENDBRANCH  28  29
ENDBRANCH  27  28
ENDBRANCH  11  26
TORSDOF 7
ENDMDL
MODEL 8
REMARK VINA RESULT:      -7.3      3.465      8.805
REMARK  7 active torsions:
REMARK  status: ('A' for Active; 'I' for Inactive)
REMARK    1  A    between atoms: C2_2  and  C3_3 
REMARK    2  A    between atoms: C3_3  and  N1_4 
REMARK    3  A    between atoms: C3_3  and  C18_25 
REMARK    4  A    between atoms: N1_4  and  C4_5 
REMARK       I    between atoms: N4_14  and  C11_15 
REMARK    5  A    between atoms: C11_15  and  C12_17 
REMARK    6  A    between atoms: C13_18  and  C14_19 
REMARK    7  A    between atoms: C14_19  and  N5_20 
ROOT
HETATM    1  C4  UNL     1      24.639   1.691  52.168  1.00  0.00     0.135 A 
HETATM    2  N2  UNL     1      25.810   1.088  52.422  1.00  0.00    -0.224 NA
HETATM    3  C5  UNL     1      25.978  -0.109  52.992  1.00  0.00     0.236 A 
HETATM    4  N3  UNL     1      24.848  -0.749  53.333  1.00  0.00    -0.234 NA
HETATM    5  C6  UNL     1      23.676  -0.192  53.100  1.00  0.00     0.107 A 
HETATM    6  C7  UNL     1      23.480   1.023  52.522  1.00  0.00     0.030 A 
HETATM    7  C8  UNL     1      22.109   1.516  52.330  1.00  0.00     0.060 C 
HETATM    8  C9  UNL     1      21.672   1.699  50.933  1.00  0.00     0.032 C 
HETATM    9  C10 UNL     1      20.568   0.717  50.695  1.00  0.00     0.128 C 
HETATM   10  N4  UNL     1      20.160   0.283  51.999  1.00  0.00    -0.334 N 
HETATM   11  C11 UNL     1      18.934  -0.413  52.157  1.00  0.00     0.244 C 
HETATM   12  O1  UNL     1      18.883  -0.245  50.939  1.00  0.00    -0.268 OA
HETATM   13  C17 UNL     1      21.135   0.647  53.009  1.00  0.00     0.164 C 
HETATM   14  S1  UNL     1      22.058  -0.846  53.464  1.00  0.00    -0.083 SA
ENDROOT
BRANCH   1  15
HETATM   15  N1  UNL     1      24.803   2.940  51.540  1.00  0.00    -0.366 N 
HETATM   16  H7  UNL     1      25.775   3.279  51.833  1.00  0.00     0.161 HD
BRANCH  15  17
HETATM   17  C3  UNL     1      24.258   3.935  50.698  1.00  0.00     0.116 C 
BRANCH  17  18
HETATM   18  C2  UNL     1      23.435   4.906  51.499  1.00  0.00     0.025 C 
HETATM   19  C1  UNL     1      23.561   4.760  52.984  1.00  0.00     0.007 C 
ENDBRANCH  17  18
BRANCH  17  20
HETATM   20  C18 UNL     1      25.319   4.679  49.928  1.00  0.00    -0.036 A 
HETATM   21  C19 UNL     1      26.371   3.853  49.590  1.00  0.00     0.009 A 
HETATM   22  C20 UNL     1      27.431   4.392  48.867  1.00  0.00     0.001 A 
HETATM   23  C21 UNL     1      27.394   5.735  48.516  1.00  0.00     0.000 A 
HETATM   24  C22 UNL     1      26.338   6.549  48.861  1.00  0.00     0.001 A 
HETATM   25  C23 UNL     1      25.290   6.008  49.576  1.00  0.00     0.009 A 
ENDBRANCH  17  20
ENDBRANCH  15  17
ENDBRANCH   1  15
BRANCH  11  26
HETATM   26  C12 UNL     1      18.195  -0.992  53.255  1.00  0.00     0.072 C 
HETATM   27  C13 UNL     1      17.624  -2.088  53.717  1.00  0.00     0.008 C 
BRANCH  27  28
HETATM   28  C14 UNL     1      17.380  -3.499  53.348  1.00  0.00     0.299 C 
BRANCH  28  29
HETATM   29  N5  UNL     1      15.967  -3.795  53.391  1.00  0.00     0.083 N 
HETATM   30  C15 UNL     1      15.753  -5.204  53.245  1.00  0.00     0.309 C 
HETATM   31  C16 UNL     1      15.302  -3.080  52.328  1.00  0.00     0.309 C 
ENDBRANCH  28  29
ENDBRANCH  27  28
ENDBRANCH  11  26
TORSDOF 7
ENDMDL
MODEL 9
REMARK VINA RESULT:      -7.3      2.707      5.014
REMARK  7 active torsions:
REMARK  status: ('A' for Active; 'I' for Inactive)
REMARK    1  A    between atoms: C2_2  and  C3_3 
REMARK    2  A    between atoms: C3_3  and  N1_4 
REMARK    3  A    between atoms: C3_3  and  C18_25 
REMARK    4  A    between atoms: N1_4  and  C4_5 
REMARK       I    between atoms: N4_14  and  C11_15 
REMARK    5  A    between atoms: C11_15  and  C12_17 
REMARK    6  A    between atoms: C13_18  and  C14_19 
REMARK    7  A    between atoms: C14_19  and  N5_20 
ROOT
HETATM    1  C4  UNL     1      23.119   2.708  50.297  1.00  0.00     0.135 A 
HETATM    2  N2  UNL     1      21.882   2.519  49.812  1.00  0.00    -0.224 NA
HETATM    3  C5  UNL     1      21.245   3.305  48.938  1.00  0.00     0.236 A 
HETATM    4  N3  UNL     1      21.932   4.381  48.521  1.00  0.00    -0.234 NA
HETATM    5  C6  UNL     1      23.151   4.603  48.973  1.00  0.00     0.107 A 
HETATM    6  C7  UNL     1      23.819   3.820  49.861  1.00  0.00     0.030 A 
HETATM    7  C8  UNL     1      25.177   4.199  50.275  1.00  0.00     0.060 C 
HETATM    8  C9  UNL     1      26.258   3.270  49.897  1.00  0.00     0.032 C 
HETATM    9  C10 UNL     1      27.139   4.003  48.935  1.00  0.00     0.128 C 
HETATM   10  N4  UNL     1      26.781   5.385  49.071  1.00  0.00    -0.334 N 
HETATM   11  C11 UNL     1      27.628   6.387  48.533  1.00  0.00     0.244 C 
HETATM   12  O1  UNL     1      28.289   5.405  48.201  1.00  0.00    -0.268 OA
HETATM   13  C17 UNL     1      25.525   5.540  49.780  1.00  0.00     0.164 C 
HETATM   14  S1  UNL     1      24.242   5.953  48.568  1.00  0.00    -0.083 SA
ENDROOT
BRANCH   1  15
HETATM   15  N1  UNL     1      23.510   1.689  51.185  1.00  0.00    -0.366 N 
HETATM   16  H7  UNL     1      23.854   0.889  50.563  1.00  0.00     0.161 HD
BRANCH  15  17
HETATM   17  C3  UNL     1      23.652   1.258  52.523  1.00  0.00     0.116 C 
BRANCH  17  18
HETATM   18  C2  UNL     1      22.824   0.027  52.767  1.00  0.00     0.025 C 
HETATM   19  C1  UNL     1      21.978   0.074  54.003  1.00  0.00     0.007 C 
ENDBRANCH  17  18
BRANCH  17  20
HETATM   20  C18 UNL     1      25.089   0.988  52.890  1.00  0.00    -0.036 A 
HETATM   21  C19 UNL     1      25.700   2.114  53.401  1.00  0.00     0.009 A 
HETATM   22  C20 UNL     1      27.032   2.024  53.795  1.00  0.00     0.001 A 
HETATM   23  C21 UNL     1      27.695   0.812  53.658  1.00  0.00     0.000 A 
HETATM   24  C22 UNL     1      27.072  -0.304  53.144  1.00  0.00     0.001 A 
HETATM   25  C23 UNL     1      25.753  -0.209  52.757  1.00  0.00     0.009 A 
ENDBRANCH  17  20
ENDBRANCH  15  17
ENDBRANCH   1  15
BRANCH  11  26
HETATM   26  C12 UNL     1      27.626   7.831  48.464  1.00  0.00     0.072 C 
HETATM   27  C13 UNL     1      26.925   8.924  48.695  1.00  0.00     0.008 C 
BRANCH  27  28
HETATM   28  C14 UNL     1      25.607   9.357  49.208  1.00  0.00     0.299 C 
BRANCH  28  29
HETATM   29  N5  UNL     1      25.018  10.335  48.323  1.00  0.00     0.083 N 
HETATM   30  C15 UNL     1      24.674   9.727  47.073  1.00  0.00     0.309 C 
HETATM   31  C16 UNL     1      25.959  11.408  48.112  1.00  0.00     0.309 C 
ENDBRANCH  28  29
ENDBRANCH  27  28
ENDBRANCH  11  26
TORSDOF 7
ENDMDL
