MODEL 1
REMARK VINA RESULT:      -8.1      0.000      0.000
REMARK  7 active torsions:
REMARK  status: ('A' for Active; 'I' for Inactive)
REMARK    1  A    between atoms: O1_2  and  C2_3 
REMARK    2  A    between atoms: C6_9  and  N2_10 
REMARK    3  A    between atoms: C13_18  and  O2_19 
REMARK    4  A    between atoms: O2_19  and  C14_20 
REMARK    5  A    between atoms: C14_20  and  C15_21 
REMARK    6  A    between atoms: C15_21  and  N4_22 
REMARK    7  A    between atoms: C19_26  and  O3_27 
ROOT
HETATM    1  C2  UNL     1      22.524   0.134  52.608  1.00  0.00     0.098 C 
HETATM    2  C3  UNL     1      21.549   0.197  51.728  1.00  0.00     0.027 C 
HETATM    3  C4  UNL     1      21.903   0.946  50.543  1.00  0.00     0.079 C 
HETATM    4  P1  UNL     1      20.490   1.675  49.639  1.00  0.00    -0.074 P 
HETATM    5  C5  UNL     1      21.183   3.277  48.994  1.00  0.00     0.122 C 
HETATM    6  N1  UNL     1      22.347   3.695  49.288  1.00  0.00    -0.242 NA
HETATM    7  C6  UNL     1      23.269   2.998  50.120  1.00  0.00     0.132 C 
HETATM    8  C11 UNL     1      23.080   1.785  50.697  1.00  0.00     0.003 C 
HETATM    9  C12 UNL     1      24.146   1.578  51.661  1.00  0.00     0.051 C 
HETATM   10  C13 UNL     1      23.846   0.733  52.679  1.00  0.00     0.102 C 
HETATM   11  H6  UNL     1      19.349   1.943  50.533  1.00  0.00     0.064 HD
ENDROOT
BRANCH  10  12
HETATM   12  O2  UNL     1      24.747   0.477  53.693  1.00  0.00    -0.347 OA
BRANCH  12  13
HETATM   13  C14 UNL     1      25.393  -0.726  53.921  1.00  0.00     0.196 C 
BRANCH  13  14
HETATM   14  C15 UNL     1      26.290  -1.008  52.722  1.00  0.00     0.157 C 
BRANCH  14  15
HETATM   15  N4  UNL     1      27.681  -0.931  53.077  1.00  0.00    -0.336 N 
HETATM   16  C16 UNL     1      28.346   0.210  53.414  1.00  0.00     0.093 A 
HETATM   17  C17 UNL     1      29.677  -0.048  53.704  1.00  0.00     0.022 A 
HETATM   18  C18 UNL     1      29.818  -1.409  53.532  1.00  0.00     0.057 A 
HETATM   19  C19 UNL     1      28.574  -1.908  53.149  1.00  0.00     0.141 A 
BRANCH  19  20
HETATM   20  O3  UNL     1      28.371  -3.252  52.895  1.00  0.00    -0.346 OA
HETATM   21  H25 UNL     1      28.231  -3.599  51.968  1.00  0.00     0.219 HD
ENDBRANCH  19  20
ENDBRANCH  14  15
ENDBRANCH  13  14
ENDBRANCH  12  13
ENDBRANCH  10  12
BRANCH   1  22
HETATM   22  O1  UNL     1      22.218  -0.624  53.736  1.00  0.00    -0.353 OA
HETATM   23  C1  UNL     1      21.282  -0.228  54.709  1.00  0.00     0.210 C 
ENDBRANCH   1  22
BRANCH   7  24
HETATM   24  N2  UNL     1      24.451   3.826  50.232  1.00  0.00    -0.362 N 
HETATM   25  C7  UNL     1      24.369   5.012  51.086  1.00  0.00     0.154 C 
HETATM   26  C8  UNL     1      24.203   6.168  50.121  1.00  0.00     0.289 C 
HETATM   27  N3  UNL     1      24.880   5.887  48.880  1.00  0.00     0.086 N 
HETATM   28  C9  UNL     1      26.077   5.105  49.014  1.00  0.00     0.289 C 
HETATM   29  H12 UNL     1      24.252   5.475  48.149  1.00  0.00     0.316 HD
HETATM   30  C10 UNL     1      25.800   3.745  49.651  1.00  0.00     0.154 C 
ENDBRANCH   7  24
TORSDOF 7
ENDMDL
MODEL 2
REMARK VINA RESULT:      -8.1      2.531      6.072
REMARK  7 active torsions:
REMARK  status: ('A' for Active; 'I' for Inactive)
REMARK    1  A    between atoms: O1_2  and  C2_3 
REMARK    2  A    between atoms: C6_9  and  N2_10 
REMARK    3  A    between atoms: C13_18  and  O2_19 
REMARK    4  A    between atoms: O2_19  and  C14_20 
REMARK    5  A    between atoms: C14_20  and  C15_21 
REMARK    6  A    between atoms: C15_21  and  N4_22 
REMARK    7  A    between atoms: C19_26  and  O3_27 
ROOT
HETATM    1  C2  UNL     1      21.944   1.479  51.183  1.00  0.00     0.098 C 
HETATM    2  C3  UNL     1      21.400   0.837  52.194  1.00  0.00     0.027 C 
HETATM    3  C4  UNL     1      22.292   0.702  53.324  1.00  0.00     0.079 C 
HETATM    4  P1  UNL     1      21.929  -0.711  54.428  1.00  0.00    -0.074 P 
HETATM    5  C5  UNL     1      23.619  -1.255  54.985  1.00  0.00     0.122 C 
HETATM    6  N1  UNL     1      24.693  -0.747  54.533  1.00  0.00    -0.242 NA
HETATM    7  C6  UNL     1      24.748   0.302  53.571  1.00  0.00     0.132 C 
HETATM    8  C11 UNL     1      23.691   0.944  53.013  1.00  0.00     0.003 C 
HETATM    9  C12 UNL     1      24.186   1.741  51.905  1.00  0.00     0.051 C 
HETATM   10  C13 UNL     1      23.277   1.999  50.931  1.00  0.00     0.102 C 
HETATM   11  H6  UNL     1      21.259  -1.809  53.709  1.00  0.00     0.064 HD
ENDROOT
BRANCH  10  12
HETATM   12  O2  UNL     1      23.619   2.707  49.796  1.00  0.00    -0.347 OA
BRANCH  12  13
HETATM   13  C14 UNL     1      23.437   4.066  49.601  1.00  0.00     0.196 C 
BRANCH  13  14
HETATM   14  C15 UNL     1      24.482   4.800  50.432  1.00  0.00     0.157 C 
BRANCH  14  15
HETATM   15  N4  UNL     1      25.680   5.043  49.673  1.00  0.00    -0.336 N 
HETATM   16  C16 UNL     1      25.999   6.217  49.062  1.00  0.00     0.093 A 
HETATM   17  C17 UNL     1      27.221   6.132  48.411  1.00  0.00     0.022 A 
HETATM   18  C18 UNL     1      27.654   4.844  48.643  1.00  0.00     0.057 A 
HETATM   19  C19 UNL     1      26.681   4.214  49.419  1.00  0.00     0.141 A 
BRANCH  19  20
HETATM   20  O3  UNL     1      26.811   2.901  49.830  1.00  0.00    -0.346 OA
HETATM   21  H25 UNL     1      26.409   2.144  49.315  1.00  0.00     0.219 HD
ENDBRANCH  19  20
ENDBRANCH  14  15
ENDBRANCH  13  14
ENDBRANCH  12  13
ENDBRANCH  10  12
BRANCH   1  22
HETATM   22  O1  UNL     1      21.085   1.661  50.102  1.00  0.00    -0.353 OA
HETATM   23  C1  UNL     1      19.823   1.046  49.998  1.00  0.00     0.210 C 
ENDBRANCH   1  22
BRANCH   7  24
HETATM   24  N2  UNL     1      26.146   0.559  53.300  1.00  0.00    -0.362 N 
HETATM   25  C7  UNL     1      26.785  -0.218  52.236  1.00  0.00     0.154 C 
HETATM   26  C8  UNL     1      27.587  -1.277  52.965  1.00  0.00     0.289 C 
HETATM   27  N3  UNL     1      28.047  -0.773  54.235  1.00  0.00     0.086 N 
HETATM   28  C9  UNL     1      28.351   0.630  54.248  1.00  0.00     0.289 C 
HETATM   29  H12 UNL     1      27.413  -1.019  55.033  1.00  0.00     0.316 HD
HETATM   30  C10 UNL     1      27.136   1.480  53.883  1.00  0.00     0.154 C 
ENDBRANCH   7  24
TORSDOF 7
ENDMDL
MODEL 3
REMARK VINA RESULT:      -7.5      3.019      6.368
REMARK  7 active torsions:
REMARK  status: ('A' for Active; 'I' for Inactive)
REMARK    1  A    between atoms: O1_2  and  C2_3 
REMARK    2  A    between atoms: C6_9  and  N2_10 
REMARK    3  A    between atoms: C13_18  and  O2_19 
REMARK    4  A    between atoms: O2_19  and  C14_20 
REMARK    5  A    between atoms: C14_20  and  C15_21 
REMARK    6  A    between atoms: C15_21  and  N4_22 
REMARK    7  A    between atoms: C19_26  and  O3_27 
ROOT
HETATM    1  C2  UNL     1      22.665   0.007  53.299  1.00  0.00     0.098 C 
HETATM    2  C3  UNL     1      23.934  -0.323  53.394  1.00  0.00     0.027 C 
HETATM    3  C4  UNL     1      24.826   0.805  53.241  1.00  0.00     0.079 C 
HETATM    4  P1  UNL     1      26.509   0.385  52.660  1.00  0.00    -0.074 P 
HETATM    5  C5  UNL     1      26.962   1.841  51.594  1.00  0.00     0.122 C 
HETATM    6  N1  UNL     1      26.150   2.781  51.326  1.00  0.00    -0.242 NA
HETATM    7  C6  UNL     1      24.813   2.857  51.811  1.00  0.00     0.132 C 
HETATM    8  C11 UNL     1      24.207   1.979  52.649  1.00  0.00     0.003 C 
HETATM    9  C12 UNL     1      22.787   2.288  52.669  1.00  0.00     0.051 C 
HETATM   10  C13 UNL     1      21.977   1.247  52.983  1.00  0.00     0.102 C 
HETATM   11  H6  UNL     1      26.517  -0.850  51.856  1.00  0.00     0.064 HD
ENDROOT
BRANCH  10  12
HETATM   12  O2  UNL     1      20.603   1.383  52.996  1.00  0.00    -0.347 OA
BRANCH  12  13
HETATM   13  C14 UNL     1      19.811   1.737  51.916  1.00  0.00     0.196 C 
BRANCH  13  14
HETATM   14  C15 UNL     1      19.581   0.486  51.077  1.00  0.00     0.157 C 
BRANCH  14  15
HETATM   15  N4  UNL     1      18.320  -0.130  51.388  1.00  0.00    -0.336 N 
HETATM   16  C16 UNL     1      17.241  -0.176  50.558  1.00  0.00     0.093 A 
HETATM   17  C17 UNL     1      16.177  -0.840  51.149  1.00  0.00     0.022 A 
HETATM   18  C18 UNL     1      16.640  -1.210  52.394  1.00  0.00     0.057 A 
HETATM   19  C19 UNL     1      17.955  -0.755  52.497  1.00  0.00     0.141 A 
BRANCH  19  20
HETATM   20  O3  UNL     1      18.715  -0.965  53.633  1.00  0.00    -0.346 OA
HETATM   21  H25 UNL     1      19.317  -1.758  53.726  1.00  0.00     0.219 HD
ENDBRANCH  19  20
ENDBRANCH  14  15
ENDBRANCH  13  14
ENDBRANCH  12  13
ENDBRANCH  10  12
BRANCH   1  22
HETATM   22  O1  UNL     1      21.788  -1.058  53.491  1.00  0.00    -0.353 OA
HETATM   23  C1  UNL     1      21.725  -1.811  54.678  1.00  0.00     0.210 C 
ENDBRANCH   1  22
BRANCH   7  24
HETATM   24  N2  UNL     1      24.222   4.051  51.246  1.00  0.00    -0.362 N 
HETATM   25  C7  UNL     1      24.085   4.116  49.790  1.00  0.00     0.154 C 
HETATM   26  C8  UNL     1      25.221   5.011  49.339  1.00  0.00     0.289 C 
HETATM   27  N3  UNL     1      25.517   5.995  50.350  1.00  0.00     0.086 N 
HETATM   28  C9  UNL     1      24.378   6.442  51.102  1.00  0.00     0.289 C 
HETATM   29  H12 UNL     1      26.292   5.708  50.994  1.00  0.00     0.316 HD
HETATM   30  C10 UNL     1      23.691   5.291  51.834  1.00  0.00     0.154 C 
ENDBRANCH   7  24
TORSDOF 7
ENDMDL
MODEL 4
REMARK VINA RESULT:      -7.4      2.994      6.551
REMARK  7 active torsions:
REMARK  status: ('A' for Active; 'I' for Inactive)
REMARK    1  A    between atoms: O1_2  and  C2_3 
REMARK    2  A    between atoms: C6_9  and  N2_10 
REMARK    3  A    between atoms: C13_18  and  O2_19 
REMARK    4  A    between atoms: O2_19  and  C14_20 
REMARK    5  A    between atoms: C14_20  and  C15_21 
REMARK    6  A    between atoms: C15_21  and  N4_22 
REMARK    7  A    between atoms: C19_26  and  O3_27 
ROOT
HETATM    1  C2  UNL     1      26.478   1.264  53.700  1.00  0.00     0.098 C 
HETATM    2  C3  UNL     1      26.143   0.298  54.527  1.00  0.00     0.027 C 
HETATM    3  C4  UNL     1      24.966  -0.428  54.105  1.00  0.00     0.079 C 
HETATM    4  P1  UNL     1      24.044  -1.254  55.452  1.00  0.00    -0.074 P 
HETATM    5  C5  UNL     1      22.273  -1.106  54.902  1.00  0.00     0.122 C 
HETATM    6  N1  UNL     1      21.922  -0.455  53.868  1.00  0.00    -0.242 NA
HETATM    7  C6  UNL     1      22.821   0.220  52.994  1.00  0.00     0.132 C 
HETATM    8  C11 UNL     1      24.174   0.255  53.096  1.00  0.00     0.003 C 
HETATM    9  C12 UNL     1      24.666   1.261  52.172  1.00  0.00     0.051 C 
HETATM   10  C13 UNL     1      25.861   1.810  52.502  1.00  0.00     0.102 C 
HETATM   11  H6  UNL     1      24.230  -0.566  56.742  1.00  0.00     0.064 HD
ENDROOT
BRANCH  10  12
HETATM   12  O2  UNL     1      26.429   2.812  51.740  1.00  0.00    -0.347 OA
BRANCH  12  13
HETATM   13  C14 UNL     1      26.073   3.148  50.445  1.00  0.00     0.196 C 
BRANCH  13  14
HETATM   14  C15 UNL     1      24.978   4.205  50.522  1.00  0.00     0.157 C 
BRANCH  14  15
HETATM   15  N4  UNL     1      25.467   5.497  50.124  1.00  0.00    -0.336 N 
HETATM   16  C16 UNL     1      26.273   5.738  49.052  1.00  0.00     0.093 A 
HETATM   17  C17 UNL     1      26.569   7.087  48.936  1.00  0.00     0.022 A 
HETATM   18  C18 UNL     1      25.910   7.684  49.989  1.00  0.00     0.057 A 
HETATM   19  C19 UNL     1      25.249   6.675  50.689  1.00  0.00     0.141 A 
BRANCH  19  20
HETATM   20  O3  UNL     1      24.488   6.941  51.812  1.00  0.00    -0.346 OA
HETATM   21  H25 UNL     1      23.582   7.358  51.749  1.00  0.00     0.219 HD
ENDBRANCH  19  20
ENDBRANCH  14  15
ENDBRANCH  13  14
ENDBRANCH  12  13
ENDBRANCH  10  12
BRANCH   1  22
HETATM   22  O1  UNL     1      27.636   1.945  54.065  1.00  0.00    -0.353 OA
HETATM   23  C1  UNL     1      28.925   1.386  53.987  1.00  0.00     0.210 C 
ENDBRANCH   1  22
BRANCH   7  24
HETATM   24  N2  UNL     1      22.022   0.862  51.973  1.00  0.00    -0.362 N 
HETATM   25  C7  UNL     1      21.672   2.270  52.170  1.00  0.00     0.154 C 
HETATM   26  C8  UNL     1      20.233   2.243  52.642  1.00  0.00     0.289 C 
HETATM   27  N3  UNL     1      19.535   1.123  52.064  1.00  0.00     0.086 N 
HETATM   28  C9  UNL     1      19.964   0.768  50.740  1.00  0.00     0.289 C 
HETATM   29  H12 UNL     1      19.522   0.278  52.684  1.00  0.00     0.316 HD
HETATM   30  C10 UNL     1      21.445   0.398  50.701  1.00  0.00     0.154 C 
ENDBRANCH   7  24
TORSDOF 7
ENDMDL
MODEL 5
REMARK VINA RESULT:      -7.4      2.379      4.551
REMARK  7 active torsions:
REMARK  status: ('A' for Active; 'I' for Inactive)
REMARK    1  A    between atoms: O1_2  and  C2_3 
REMARK    2  A    between atoms: C6_9  and  N2_10 
REMARK    3  A    between atoms: C13_18  and  O2_19 
REMARK    4  A    between atoms: O2_19  and  C14_20 
REMARK    5  A    between atoms: C14_20  and  C15_21 
REMARK    6  A    between atoms: C15_21  and  N4_22 
REMARK    7  A    between atoms: C19_26  and  O3_27 
ROOT
HETATM    1  C2  UNL     1      24.946   2.731  50.675  1.00  0.00     0.098 C 
HETATM    2  C3  UNL     1      24.018   3.197  49.867  1.00  0.00     0.027 C 
HETATM    3  C4  UNL     1      22.677   2.863  50.293  1.00  0.00     0.079 C 
HETATM    4  P1  UNL     1      21.429   2.826  48.955  1.00  0.00    -0.074 P 
HETATM    5  C5  UNL     1      20.290   1.452  49.481  1.00  0.00     0.122 C 
HETATM    6  N1  UNL     1      20.513   0.718  50.494  1.00  0.00    -0.242 NA
HETATM    7  C6  UNL     1      21.634   0.857  51.361  1.00  0.00     0.132 C 
HETATM    8  C11 UNL     1      22.611   1.794  51.276  1.00  0.00     0.003 C 
HETATM    9  C12 UNL     1      23.680   1.410  52.180  1.00  0.00     0.051 C 
HETATM   10  C13 UNL     1      24.909   1.879  51.851  1.00  0.00     0.102 C 
HETATM   11  H6  UNL     1      22.036   2.506  47.651  1.00  0.00     0.064 HD
ENDROOT
BRANCH  10  12
HETATM   12  O2  UNL     1      26.026   1.556  52.595  1.00  0.00    -0.347 OA
BRANCH  12  13
HETATM   13  C14 UNL     1      26.124   1.604  53.976  1.00  0.00     0.196 C 
BRANCH  13  14
HETATM   14  C15 UNL     1      26.470   0.205  54.468  1.00  0.00     0.157 C 
BRANCH  14  15
HETATM   15  N4  UNL     1      27.785  -0.191  54.042  1.00  0.00    -0.336 N 
HETATM   16  C16 UNL     1      28.924   0.533  54.229  1.00  0.00     0.093 A 
HETATM   17  C17 UNL     1      30.029  -0.120  53.704  1.00  0.00     0.022 A 
HETATM   18  C18 UNL     1      29.529  -1.290  53.176  1.00  0.00     0.057 A 
HETATM   19  C19 UNL     1      28.153  -1.292  53.404  1.00  0.00     0.141 A 
BRANCH  19  20
HETATM   20  O3  UNL     1      27.345  -2.336  52.994  1.00  0.00    -0.346 OA
HETATM   21  H25 UNL     1      27.370  -3.231  53.440  1.00  0.00     0.219 HD
ENDBRANCH  19  20
ENDBRANCH  14  15
ENDBRANCH  13  14
ENDBRANCH  12  13
ENDBRANCH  10  12
BRANCH   1  22
HETATM   22  O1  UNL     1      26.242   3.082  50.307  1.00  0.00    -0.353 OA
HETATM   23  C1  UNL     1      26.543   4.134  49.422  1.00  0.00     0.210 C 
ENDBRANCH   1  22
BRANCH   7  24
HETATM   24  N2  UNL     1      21.534  -0.188  52.357  1.00  0.00    -0.362 N 
HETATM   25  C7  UNL     1      20.237  -0.386  53.007  1.00  0.00     0.154 C 
HETATM   26  C8  UNL     1      20.385   0.271  54.364  1.00  0.00     0.289 C 
HETATM   27  N3  UNL     1      21.747   0.170  54.825  1.00  0.00     0.086 N 
HETATM   28  C9  UNL     1      22.429  -1.027  54.421  1.00  0.00     0.289 C 
HETATM   29  H12 UNL     1      22.324   1.015  54.599  1.00  0.00     0.316 HD
HETATM   30  C10 UNL     1      22.496  -1.160  52.902  1.00  0.00     0.154 C 
ENDBRANCH   7  24
TORSDOF 7
ENDMDL
MODEL 6
REMARK VINA RESULT:      -7.3      6.943      9.344
REMARK  7 active torsions:
REMARK  status: ('A' for Active; 'I' for Inactive)
REMARK    1  A    between atoms: O1_2  and  C2_3 
REMARK    2  A    between atoms: C6_9  and  N2_10 
REMARK    3  A    between atoms: C13_18  and  O2_19 
REMARK    4  A    between atoms: O2_19  and  C14_20 
REMARK    5  A    between atoms: C14_20  and  C15_21 
REMARK    6  A    between atoms: C15_21  and  N4_22 
REMARK    7  A    between atoms: C19_26  and  O3_27 
ROOT
HETATM    1  C2  UNL     1      27.895   5.649  48.431  1.00  0.00     0.098 C 
HETATM    2  C3  UNL     1      26.779   6.339  48.345  1.00  0.00     0.027 C 
HETATM    3  C4  UNL     1      26.961   7.638  47.738  1.00  0.00     0.079 C 
HETATM    4  P1  UNL     1      25.709   8.889  48.202  1.00  0.00    -0.074 P 
HETATM    5  C5  UNL     1      26.689  10.470  48.242  1.00  0.00     0.122 C 
HETATM    6  N1  UNL     1      27.949  10.508  48.078  1.00  0.00    -0.242 NA
HETATM    7  C6  UNL     1      28.765   9.368  47.827  1.00  0.00     0.132 C 
HETATM    8  C11 UNL     1      28.343   8.086  47.689  1.00  0.00     0.003 C 
HETATM    9  C12 UNL     1      29.513   7.225  47.713  1.00  0.00     0.051 C 
HETATM   10  C13 UNL     1      29.283   5.955  48.128  1.00  0.00     0.102 C 
HETATM   11  H6  UNL     1      25.134   8.620  49.532  1.00  0.00     0.064 HD
ENDROOT
BRANCH  10  12
HETATM   12  O2  UNL     1      30.310   5.038  48.243  1.00  0.00    -0.347 OA
BRANCH  12  13
HETATM   13  C14 UNL     1      31.398   4.927  47.394  1.00  0.00     0.196 C 
BRANCH  13  14
HETATM   14  C15 UNL     1      32.622   4.611  48.244  1.00  0.00     0.157 C 
BRANCH  14  15
HETATM   15  N4  UNL     1      33.561   5.700  48.237  1.00  0.00    -0.336 N 
HETATM   16  C16 UNL     1      33.355   6.913  47.653  1.00  0.00     0.093 A 
HETATM   17  C17 UNL     1      34.449   7.747  47.821  1.00  0.00     0.022 A 
HETATM   18  C18 UNL     1      35.356   6.998  48.539  1.00  0.00     0.057 A 
HETATM   19  C19 UNL     1      34.772   5.754  48.772  1.00  0.00     0.141 A 
BRANCH  19  20
HETATM   20  O3  UNL     1      35.425   4.758  49.474  1.00  0.00    -0.346 OA
HETATM   21  H25 UNL     1      35.559   3.843  49.092  1.00  0.00     0.219 HD
ENDBRANCH  19  20
ENDBRANCH  14  15
ENDBRANCH  13  14
ENDBRANCH  12  13
ENDBRANCH  10  12
BRANCH   1  22
HETATM   22  O1  UNL     1      27.732   4.375  48.970  1.00  0.00    -0.353 OA
HETATM   23  C1  UNL     1      26.519   3.906  49.505  1.00  0.00     0.210 C 
ENDBRANCH   1  22
BRANCH   7  24
HETATM   24  N2  UNL     1      30.133   9.834  47.742  1.00  0.00    -0.362 N 
HETATM   25  C7  UNL     1      30.819  10.154  48.995  1.00  0.00     0.154 C 
HETATM   26  C8  UNL     1      30.786  11.667  49.073  1.00  0.00     0.289 C 
HETATM   27  N3  UNL     1      30.823  12.239  47.751  1.00  0.00     0.086 N 
HETATM   28  C9  UNL     1      31.589  11.490  46.795  1.00  0.00     0.289 C 
HETATM   29  H12 UNL     1      29.872  12.458  47.367  1.00  0.00     0.316 HD
HETATM   30  C10 UNL     1      31.051  10.073  46.617  1.00  0.00     0.154 C 
ENDBRANCH   7  24
TORSDOF 7
ENDMDL
MODEL 7
REMARK VINA RESULT:      -7.3      2.640      6.889
REMARK  7 active torsions:
REMARK  status: ('A' for Active; 'I' for Inactive)
REMARK    1  A    between atoms: O1_2  and  C2_3 
REMARK    2  A    between atoms: C6_9  and  N2_10 
REMARK    3  A    between atoms: C13_18  and  O2_19 
REMARK    4  A    between atoms: O2_19  and  C14_20 
REMARK    5  A    between atoms: C14_20  and  C15_21 
REMARK    6  A    between atoms: C15_21  and  N4_22 
REMARK    7  A    between atoms: C19_26  and  O3_27 
ROOT
HETATM    1  C2  UNL     1      21.936   1.220  51.211  1.00  0.00     0.098 C 
HETATM    2  C3  UNL     1      21.439   0.574  52.244  1.00  0.00     0.027 C 
HETATM    3  C4  UNL     1      22.347   0.517  53.367  1.00  0.00     0.079 C 
HETATM    4  P1  UNL     1      22.074  -0.886  54.509  1.00  0.00    -0.074 P 
HETATM    5  C5  UNL     1      23.796  -1.322  55.061  1.00  0.00     0.122 C 
HETATM    6  N1  UNL     1      24.836  -0.766  54.585  1.00  0.00    -0.242 NA
HETATM    7  C6  UNL     1      24.824   0.259  53.597  1.00  0.00     0.132 C 
HETATM    8  C11 UNL     1      23.728   0.828  53.036  1.00  0.00     0.003 C 
HETATM    9  C12 UNL     1      24.167   1.623  51.903  1.00  0.00     0.051 C 
HETATM   10  C13 UNL     1      23.237   1.807  50.933  1.00  0.00     0.102 C 
HETATM   11  H6  UNL     1      21.459  -2.037  53.823  1.00  0.00     0.064 HD
ENDROOT
BRANCH  10  12
HETATM   12  O2  UNL     1      23.528   2.504  49.778  1.00  0.00    -0.347 OA
BRANCH  12  13
HETATM   13  C14 UNL     1      24.509   3.473  49.640  1.00  0.00     0.196 C 
BRANCH  13  14
HETATM   14  C15 UNL     1      23.905   4.642  48.872  1.00  0.00     0.157 C 
BRANCH  14  15
HETATM   15  N4  UNL     1      22.793   5.216  49.580  1.00  0.00    -0.336 N 
HETATM   16  C16 UNL     1      22.879   6.217  50.500  1.00  0.00     0.093 A 
HETATM   17  C17 UNL     1      21.630   6.549  51.003  1.00  0.00     0.022 A 
HETATM   18  C18 UNL     1      20.753   5.706  50.353  1.00  0.00     0.057 A 
HETATM   19  C19 UNL     1      21.507   4.909  49.493  1.00  0.00     0.141 A 
BRANCH  19  20
HETATM   20  O3  UNL     1      20.925   3.948  48.687  1.00  0.00    -0.346 OA
HETATM   21  H25 UNL     1      20.612   3.071  49.052  1.00  0.00     0.219 HD
ENDBRANCH  19  20
ENDBRANCH  14  15
ENDBRANCH  13  14
ENDBRANCH  12  13
ENDBRANCH  10  12
BRANCH   1  22
HETATM   22  O1  UNL     1      21.059   1.327  50.136  1.00  0.00    -0.353 OA
HETATM   23  C1  UNL     1      19.683   1.047  50.222  1.00  0.00     0.210 C 
ENDBRANCH   1  22
BRANCH   7  24
HETATM   24  N2  UNL     1      26.203   0.586  53.306  1.00  0.00    -0.362 N 
HETATM   25  C7  UNL     1      26.888  -0.208  52.285  1.00  0.00     0.154 C 
HETATM   26  C8  UNL     1      27.754  -1.173  53.068  1.00  0.00     0.289 C 
HETATM   27  N3  UNL     1      28.184  -0.571  54.305  1.00  0.00     0.086 N 
HETATM   28  C9  UNL     1      28.400   0.847  54.238  1.00  0.00     0.289 C 
HETATM   29  H12 UNL     1      27.568  -0.810  55.118  1.00  0.00     0.316 HD
HETATM   30  C10 UNL     1      27.135   1.598  53.831  1.00  0.00     0.154 C 
ENDBRANCH   7  24
TORSDOF 7
ENDMDL
MODEL 8
REMARK VINA RESULT:      -7.1      2.371      2.820
REMARK  7 active torsions:
REMARK  status: ('A' for Active; 'I' for Inactive)
REMARK    1  A    between atoms: O1_2  and  C2_3 
REMARK    2  A    between atoms: C6_9  and  N2_10 
REMARK    3  A    between atoms: C13_18  and  O2_19 
REMARK    4  A    between atoms: O2_19  and  C14_20 
REMARK    5  A    between atoms: C14_20  and  C15_21 
REMARK    6  A    between atoms: C15_21  and  N4_22 
REMARK    7  A    between atoms: C19_26  and  O3_27 
ROOT
HETATM    1  C2  UNL     1      21.715   0.054  53.362  1.00  0.00     0.098 C 
HETATM    2  C3  UNL     1      20.454  -0.242  53.131  1.00  0.00     0.027 C 
HETATM    3  C4  UNL     1      20.078  -0.076  51.745  1.00  0.00     0.079 C 
HETATM    4  P1  UNL     1      18.296   0.230  51.461  1.00  0.00    -0.074 P 
HETATM    5  C5  UNL     1      18.296   1.389  50.006  1.00  0.00     0.122 C 
HETATM    6  N1  UNL     1      19.360   1.867  49.501  1.00  0.00    -0.242 NA
HETATM    7  C6  UNL     1      20.675   1.570  49.960  1.00  0.00     0.132 C 
HETATM    8  C11 UNL     1      21.009   0.722  50.965  1.00  0.00     0.003 C 
HETATM    9  C12 UNL     1      22.414   0.921  51.271  1.00  0.00     0.051 C 
HETATM   10  C13 UNL     1      22.780   0.597  52.536  1.00  0.00     0.102 C 
HETATM   11  H6  UNL     1      17.661   0.879  52.622  1.00  0.00     0.064 HD
ENDROOT
BRANCH  10  12
HETATM   12  O2  UNL     1      24.074   0.777  52.980  1.00  0.00    -0.347 OA
BRANCH  12  13
HETATM   13  C14 UNL     1      24.932   1.793  52.594  1.00  0.00     0.196 C 
BRANCH  13  14
HETATM   14  C15 UNL     1      26.188   1.151  52.020  1.00  0.00     0.157 C 
BRANCH  14  15
HETATM   15  N4  UNL     1      27.184   0.944  53.037  1.00  0.00    -0.336 N 
HETATM   16  C16 UNL     1      28.298   1.708  53.213  1.00  0.00     0.093 A 
HETATM   17  C17 UNL     1      29.059   1.251  54.279  1.00  0.00     0.022 A 
HETATM   18  C18 UNL     1      28.368   0.161  54.764  1.00  0.00     0.057 A 
HETATM   19  C19 UNL     1      27.229   0.010  53.975  1.00  0.00     0.141 A 
BRANCH  19  20
HETATM   20  O3  UNL     1      26.312  -1.001  54.199  1.00  0.00    -0.346 OA
HETATM   21  H25 UNL     1      26.593  -1.954  54.306  1.00  0.00     0.219 HD
ENDBRANCH  19  20
ENDBRANCH  14  15
ENDBRANCH  13  14
ENDBRANCH  12  13
ENDBRANCH  10  12
BRANCH   1  22
HETATM   22  O1  UNL     1      22.109  -0.145  54.683  1.00  0.00    -0.353 OA
HETATM   23  C1  UNL     1      22.603  -1.368  55.172  1.00  0.00     0.210 C 
ENDBRANCH   1  22
BRANCH   7  24
HETATM   24  N2  UNL     1      21.594   2.340  49.149  1.00  0.00    -0.362 N 
HETATM   25  C7  UNL     1      21.933   3.689  49.605  1.00  0.00     0.154 C 
HETATM   26  C8  UNL     1      21.102   4.608  48.733  1.00  0.00     0.289 C 
HETATM   27  N3  UNL     1      20.909   4.024  47.430  1.00  0.00     0.086 N 
HETATM   28  C9  UNL     1      22.009   3.231  46.959  1.00  0.00     0.289 C 
HETATM   29  H12 UNL     1      20.010   3.492  47.343  1.00  0.00     0.316 HD
HETATM   30  C10 UNL     1      22.311   2.063  47.894  1.00  0.00     0.154 C 
ENDBRANCH   7  24
TORSDOF 7
ENDMDL
MODEL 9
REMARK VINA RESULT:      -7.1      2.011      2.379
REMARK  7 active torsions:
REMARK  status: ('A' for Active; 'I' for Inactive)
REMARK    1  A    between atoms: O1_2  and  C2_3 
REMARK    2  A    between atoms: C6_9  and  N2_10 
REMARK    3  A    between atoms: C13_18  and  O2_19 
REMARK    4  A    between atoms: O2_19  and  C14_20 
REMARK    5  A    between atoms: C14_20  and  C15_21 
REMARK    6  A    between atoms: C15_21  and  N4_22 
REMARK    7  A    between atoms: C19_26  and  O3_27 
ROOT
HETATM    1  C2  UNL     1      22.129  -0.041  52.705  1.00  0.00     0.098 C 
HETATM    2  C3  UNL     1      20.868  -0.147  52.347  1.00  0.00     0.027 C 
HETATM    3  C4  UNL     1      20.398   0.987  51.583  1.00  0.00     0.079 C 
HETATM    4  P1  UNL     1      18.593   1.272  51.656  1.00  0.00    -0.074 P 
HETATM    5  C5  UNL     1      18.457   3.127  51.601  1.00  0.00     0.122 C 
HETATM    6  N1  UNL     1      19.469   3.896  51.626  1.00  0.00    -0.242 NA
HETATM    7  C6  UNL     1      20.820   3.450  51.678  1.00  0.00     0.132 C 
HETATM    8  C11 UNL     1      21.248   2.163  51.676  1.00  0.00     0.003 C 
HETATM    9  C12 UNL     1      22.662   2.161  52.007  1.00  0.00     0.051 C 
HETATM   10  C13 UNL     1      23.119   1.015  52.571  1.00  0.00     0.102 C 
HETATM   11  H6  UNL     1      18.009   0.762  52.910  1.00  0.00     0.064 HD
ENDROOT
BRANCH  10  12
HETATM   12  O2  UNL     1      24.432   0.887  52.979  1.00  0.00    -0.347 OA
BRANCH  12  13
HETATM   13  C14 UNL     1      25.296   1.928  53.274  1.00  0.00     0.196 C 
BRANCH  13  14
HETATM   14  C15 UNL     1      26.484   1.832  52.324  1.00  0.00     0.157 C 
BRANCH  14  15
HETATM   15  N4  UNL     1      27.503   0.963  52.845  1.00  0.00    -0.336 N 
HETATM   16  C16 UNL     1      28.672   1.373  53.414  1.00  0.00     0.093 A 
HETATM   17  C17 UNL     1      29.443   0.294  53.816  1.00  0.00     0.022 A 
HETATM   18  C18 UNL     1      28.703  -0.817  53.473  1.00  0.00     0.057 A 
HETATM   19  C19 UNL     1      27.525  -0.361  52.882  1.00  0.00     0.141 A 
BRANCH  19  20
HETATM   20  O3  UNL     1      26.554  -1.230  52.420  1.00  0.00    -0.346 OA
HETATM   21  H25 UNL     1      26.413  -1.394  51.444  1.00  0.00     0.219 HD
ENDBRANCH  19  20
ENDBRANCH  14  15
ENDBRANCH  13  14
ENDBRANCH  12  13
ENDBRANCH  10  12
BRANCH   1  22
HETATM   22  O1  UNL     1      22.614  -1.145  53.401  1.00  0.00    -0.353 OA
HETATM   23  C1  UNL     1      22.018  -1.650  54.571  1.00  0.00     0.210 C 
ENDBRANCH   1  22
BRANCH   7  24
HETATM   24  N2  UNL     1      21.656   4.631  51.730  1.00  0.00    -0.362 N 
HETATM   25  C7  UNL     1      21.314   5.744  50.844  1.00  0.00     0.154 C 
HETATM   26  C8  UNL     1      22.305   5.644  49.703  1.00  0.00     0.289 C 
HETATM   27  N3  UNL     1      23.556   5.101  50.170  1.00  0.00     0.086 N 
HETATM   28  C9  UNL     1      23.899   5.461  51.517  1.00  0.00     0.289 C 
HETATM   29  H12 UNL     1      23.633   4.065  50.036  1.00  0.00     0.316 HD
HETATM   30  C10 UNL     1      22.845   4.993  52.518  1.00  0.00     0.154 C 
ENDBRANCH   7  24
TORSDOF 7
ENDMDL
