MODEL 1
REMARK VINA RESULT:      -7.2      0.000      0.000
REMARK  6 active torsions:
REMARK  status: ('A' for Active; 'I' for Inactive)
REMARK    1  A    between atoms: S1_2  and  C2_3 
REMARK    2  A    between atoms: C2_3  and  C3_4 
REMARK    3  A    between atoms: C5_6  and  C6_7 
REMARK    4  A    between atoms: C15_19  and  C16_20 
REMARK    5  A    between atoms: C16_20  and  S3_21 
REMARK    6  A    between atoms: C18_23  and  O2_24 
ROOT
HETATM    1  C3  UNL     1      25.977   0.039  52.977  1.00  0.00    -0.014 A 
HETATM    2  C4  UNL     1      25.617   0.998  52.044  1.00  0.00     0.022 A 
HETATM    3  C5  UNL     1      24.279   1.365  51.876  1.00  0.00    -0.034 A 
HETATM    4  C14 UNL     1      23.297   0.749  52.666  1.00  0.00     0.022 A 
HETATM    5  C15 UNL     1      23.682  -0.216  53.601  1.00  0.00    -0.014 A 
HETATM    6  C18 UNL     1      25.013  -0.570  53.757  1.00  0.00     0.079 A 
ENDROOT
BRANCH   3   7
HETATM    7  C6  UNL     1      23.958   2.420  50.921  1.00  0.00     0.035 C 
HETATM    8  C7  UNL     1      23.809   3.694  51.175  1.00  0.00     0.069 A 
HETATM    9  C8  UNL     1      23.871   4.550  52.327  1.00  0.00     0.263 A 
HETATM   10  S2  UNL     1      23.424   4.867  49.857  1.00  0.00    -0.106 SA
HETATM   11  O1  UNL     1      24.123   4.113  53.485  1.00  0.00    -0.267 OA
HETATM   12  N1  UNL     1      23.640   5.937  52.150  1.00  0.00    -0.317 N 
HETATM   13  C9  UNL     1      23.358   6.395  50.831  1.00  0.00     0.071 A 
HETATM   14  H8  UNL     1      23.652   6.674  52.894  1.00  0.00     0.169 HD
HETATM   15  C10 UNL     1      23.071   7.475  50.071  1.00  0.00     0.037 A 
HETATM   16  C11 UNL     1      22.858   7.354  48.635  1.00  0.00     0.003 A 
HETATM   17  C12 UNL     1      22.870   6.357  47.779  1.00  0.00     0.007 A 
HETATM   18  C13 UNL     1      23.154   4.971  48.258  1.00  0.00     0.046 A 
ENDBRANCH   3   7
BRANCH   1  19
HETATM   19  C2  UNL     1      27.428  -0.334  53.133  1.00  0.00     0.114 C 
BRANCH  19  20
HETATM   20  S1  UNL     1      28.216   0.719  54.365  1.00  0.00    -0.169 SA
HETATM   21  C1  UNL     1      28.660   2.292  53.631  1.00  0.00     0.090 C 
ENDBRANCH  19  20
ENDBRANCH   1  19
BRANCH   5  22
HETATM   22  C16 UNL     1      22.693  -0.884  54.472  1.00  0.00     0.114 C 
BRANCH  22  23
HETATM   23  S3  UNL     1      21.133   0.049  54.614  1.00  0.00    -0.169 SA
HETATM   24  C17 UNL     1      19.943  -0.777  53.493  1.00  0.00     0.090 C 
ENDBRANCH  22  23
ENDBRANCH   5  22
BRANCH   6  25
HETATM   25  O2  UNL     1      25.430  -1.527  54.679  1.00  0.00    -0.360 OA
HETATM   26  H19 UNL     1      25.127  -1.526  55.645  1.00  0.00     0.217 HD
ENDBRANCH   6  25
TORSDOF 6
ENDMDL
MODEL 2
REMARK VINA RESULT:      -7.2      0.428      3.812
REMARK  6 active torsions:
REMARK  status: ('A' for Active; 'I' for Inactive)
REMARK    1  A    between atoms: S1_2  and  C2_3 
REMARK    2  A    between atoms: C2_3  and  C3_4 
REMARK    3  A    between atoms: C5_6  and  C6_7 
REMARK    4  A    between atoms: C15_19  and  C16_20 
REMARK    5  A    between atoms: C16_20  and  S3_21 
REMARK    6  A    between atoms: C18_23  and  O2_24 
ROOT
HETATM    1  C3  UNL     1      23.730  -0.183  53.581  1.00  0.00    -0.014 A 
HETATM    2  C4  UNL     1      23.333   0.763  52.650  1.00  0.00     0.022 A 
HETATM    3  C5  UNL     1      24.274   1.408  51.841  1.00  0.00    -0.034 A 
HETATM    4  C14 UNL     1      25.632   1.087  51.982  1.00  0.00     0.022 A 
HETATM    5  C15 UNL     1      26.010   0.130  52.929  1.00  0.00    -0.014 A 
HETATM    6  C18 UNL     1      25.067  -0.502  53.723  1.00  0.00     0.079 A 
ENDROOT
BRANCH   3   7
HETATM    7  C6  UNL     1      23.800   2.354  50.837  1.00  0.00     0.035 C 
HETATM    8  C7  UNL     1      23.531   3.622  51.012  1.00  0.00     0.069 A 
HETATM    9  C8  UNL     1      23.558   4.560  52.099  1.00  0.00     0.263 A 
HETATM   10  S2  UNL     1      22.963   4.651  49.641  1.00  0.00    -0.106 SA
HETATM   11  O1  UNL     1      23.909   4.236  53.268  1.00  0.00    -0.267 OA
HETATM   12  N1  UNL     1      23.176   5.901  51.842  1.00  0.00    -0.317 N 
HETATM   13  C9  UNL     1      22.786   6.231  50.513  1.00  0.00     0.071 A 
HETATM   14  H8  UNL     1      23.146   6.687  52.533  1.00  0.00     0.169 HD
HETATM   15  C10 UNL     1      22.351   7.219  49.699  1.00  0.00     0.037 A 
HETATM   16  C11 UNL     1      22.084   6.974  48.288  1.00  0.00     0.003 A 
HETATM   17  C12 UNL     1      22.159   5.924  47.502  1.00  0.00     0.007 A 
HETATM   18  C13 UNL     1      22.608   4.611  48.056  1.00  0.00     0.046 A 
ENDBRANCH   3   7
BRANCH   1  19
HETATM   19  C2  UNL     1      22.692  -0.860  54.437  1.00  0.00     0.114 C 
BRANCH  19  20
HETATM   20  S1  UNL     1      21.179   0.119  54.479  1.00  0.00    -0.169 SA
HETATM   21  C1  UNL     1      19.918  -0.661  53.474  1.00  0.00     0.090 C 
ENDBRANCH  19  20
ENDBRANCH   1  19
BRANCH   5  22
HETATM   22  C16 UNL     1      27.423  -0.259  53.108  1.00  0.00     0.114 C 
BRANCH  22  23
HETATM   23  S3  UNL     1      28.264   0.703  54.408  1.00  0.00    -0.169 SA
HETATM   24  C17 UNL     1      28.676   2.323  53.655  1.00  0.00     0.090 C 
ENDBRANCH  22  23
ENDBRANCH   5  22
BRANCH   6  25
HETATM   25  O2  UNL     1      25.411  -1.460  54.675  1.00  0.00    -0.360 OA
HETATM   26  H19 UNL     1      25.490  -2.445  54.456  1.00  0.00     0.217 HD
ENDBRANCH   6  25
TORSDOF 6
ENDMDL
MODEL 3
REMARK VINA RESULT:      -7.2      2.032      2.296
REMARK  6 active torsions:
REMARK  status: ('A' for Active; 'I' for Inactive)
REMARK    1  A    between atoms: S1_2  and  C2_3 
REMARK    2  A    between atoms: C2_3  and  C3_4 
REMARK    3  A    between atoms: C5_6  and  C6_7 
REMARK    4  A    between atoms: C15_19  and  C16_20 
REMARK    5  A    between atoms: C16_20  and  S3_21 
REMARK    6  A    between atoms: C18_23  and  O2_24 
ROOT
HETATM    1  C3  UNL     1      26.044   0.799  54.041  1.00  0.00    -0.014 A 
HETATM    2  C4  UNL     1      25.845   1.985  53.351  1.00  0.00     0.022 A 
HETATM    3  C5  UNL     1      24.652   2.218  52.660  1.00  0.00    -0.034 A 
HETATM    4  C14 UNL     1      23.652   1.234  52.671  1.00  0.00     0.022 A 
HETATM    5  C15 UNL     1      23.875   0.045  53.372  1.00  0.00    -0.014 A 
HETATM    6  C18 UNL     1      25.062  -0.172  54.054  1.00  0.00     0.079 A 
ENDROOT
BRANCH   3   7
HETATM    7  C6  UNL     1      24.469   3.504  51.998  1.00  0.00     0.035 C 
HETATM    8  C7  UNL     1      25.160   3.981  50.995  1.00  0.00     0.069 A 
HETATM    9  C8  UNL     1      26.263   3.552  50.183  1.00  0.00     0.263 A 
HETATM   10  S2  UNL     1      24.780   5.599  50.289  1.00  0.00    -0.106 SA
HETATM   11  O1  UNL     1      26.841   2.441  50.352  1.00  0.00    -0.267 OA
HETATM   12  N1  UNL     1      26.717   4.413  49.153  1.00  0.00    -0.317 N 
HETATM   13  C9  UNL     1      26.044   5.657  48.990  1.00  0.00     0.071 A 
HETATM   14  H8  UNL     1      27.507   4.234  48.488  1.00  0.00     0.169 HD
HETATM   15  C10 UNL     1      25.994   6.806  48.279  1.00  0.00     0.037 A 
HETATM   16  C11 UNL     1      25.005   7.834  48.571  1.00  0.00     0.003 A 
HETATM   17  C12 UNL     1      24.034   7.960  49.446  1.00  0.00     0.007 A 
HETATM   18  C13 UNL     1      23.775   6.868  50.432  1.00  0.00     0.046 A 
ENDBRANCH   3   7
BRANCH   1  19
HETATM   19  C2  UNL     1      27.340   0.579  54.776  1.00  0.00     0.114 C 
BRANCH  19  20
HETATM   20  S1  UNL     1      28.733   0.685  53.635  1.00  0.00    -0.169 SA
HETATM   21  C1  UNL     1      29.757  -0.777  53.785  1.00  0.00     0.090 C 
ENDBRANCH  19  20
ENDBRANCH   1  19
BRANCH   5  22
HETATM   22  C16 UNL     1      22.851  -1.018  53.432  1.00  0.00     0.114 C 
BRANCH  22  23
HETATM   23  S3  UNL     1      21.455  -0.594  54.525  1.00  0.00    -0.169 SA
HETATM   24  C17 UNL     1      20.049  -0.188  53.422  1.00  0.00     0.090 C 
ENDBRANCH  22  23
ENDBRANCH   5  22
BRANCH   6  25
HETATM   25  O2  UNL     1      25.314  -1.345  54.762  1.00  0.00    -0.360 OA
HETATM   26  H19 UNL     1      26.244  -1.730  54.871  1.00  0.00     0.217 HD
ENDBRANCH   6  25
TORSDOF 6
ENDMDL
MODEL 4
REMARK VINA RESULT:      -7.2      1.954      4.349
REMARK  6 active torsions:
REMARK  status: ('A' for Active; 'I' for Inactive)
REMARK    1  A    between atoms: S1_2  and  C2_3 
REMARK    2  A    between atoms: C2_3  and  C3_4 
REMARK    3  A    between atoms: C5_6  and  C6_7 
REMARK    4  A    between atoms: C15_19  and  C16_20 
REMARK    5  A    between atoms: C16_20  and  S3_21 
REMARK    6  A    between atoms: C18_23  and  O2_24 
ROOT
HETATM    1  C3  UNL     1      23.966   0.073  53.435  1.00  0.00    -0.014 A 
HETATM    2  C4  UNL     1      23.741   1.301  52.834  1.00  0.00     0.022 A 
HETATM    3  C5  UNL     1      24.715   2.303  52.870  1.00  0.00    -0.034 A 
HETATM    4  C14 UNL     1      25.930   2.052  53.525  1.00  0.00     0.022 A 
HETATM    5  C15 UNL     1      26.135   0.806  54.126  1.00  0.00    -0.014 A 
HETATM    6  C18 UNL     1      25.161  -0.178  54.081  1.00  0.00     0.079 A 
ENDROOT
BRANCH   3   7
HETATM    7  C6  UNL     1      24.453   3.557  52.173  1.00  0.00     0.035 C 
HETATM    8  C7  UNL     1      25.079   4.021  51.123  1.00  0.00     0.069 A 
HETATM    9  C8  UNL     1      26.159   3.602  50.274  1.00  0.00     0.263 A 
HETATM   10  S2  UNL     1      24.607   5.598  50.379  1.00  0.00    -0.106 SA
HETATM   11  O1  UNL     1      26.784   2.519  50.454  1.00  0.00    -0.267 OA
HETATM   12  N1  UNL     1      26.532   4.440  49.194  1.00  0.00    -0.317 N 
HETATM   13  C9  UNL     1      25.807   5.653  49.021  1.00  0.00     0.071 A 
HETATM   14  H8  UNL     1      27.296   4.265  48.499  1.00  0.00     0.169 HD
HETATM   15  C10 UNL     1      25.681   6.773  48.273  1.00  0.00     0.037 A 
HETATM   16  C11 UNL     1      24.669   7.775  48.576  1.00  0.00     0.003 A 
HETATM   17  C12 UNL     1      23.736   7.899  49.492  1.00  0.00     0.007 A 
HETATM   18  C13 UNL     1      23.564   6.835  50.526  1.00  0.00     0.046 A 
ENDBRANCH   3   7
BRANCH   1  19
HETATM   19  C2  UNL     1      22.896  -0.986  53.379  1.00  0.00     0.114 C 
BRANCH  19  20
HETATM   20  S1  UNL     1      21.557  -0.585  54.518  1.00  0.00    -0.169 SA
HETATM   21  C1  UNL     1      19.999  -0.531  53.636  1.00  0.00     0.090 C 
ENDBRANCH  19  20
ENDBRANCH   1  19
BRANCH   5  22
HETATM   22  C16 UNL     1      27.401   0.482  54.813  1.00  0.00     0.114 C 
BRANCH  22  23
HETATM   23  S3  UNL     1      28.868   0.779  53.772  1.00  0.00    -0.169 SA
HETATM   24  C17 UNL     1      29.786  -0.806  53.722  1.00  0.00     0.090 C 
ENDBRANCH  22  23
ENDBRANCH   5  22
BRANCH   6  25
HETATM   25  O2  UNL     1      25.334  -1.429  54.669  1.00  0.00    -0.360 OA
HETATM   26  H19 UNL     1      26.120  -1.649  55.266  1.00  0.00     0.217 HD
ENDBRANCH   6  25
TORSDOF 6
ENDMDL
MODEL 5
REMARK VINA RESULT:      -7.1      2.464      2.805
REMARK  6 active torsions:
REMARK  status: ('A' for Active; 'I' for Inactive)
REMARK    1  A    between atoms: S1_2  and  C2_3 
REMARK    2  A    between atoms: C2_3  and  C3_4 
REMARK    3  A    between atoms: C5_6  and  C6_7 
REMARK    4  A    between atoms: C15_19  and  C16_20 
REMARK    5  A    between atoms: C16_20  and  S3_21 
REMARK    6  A    between atoms: C18_23  and  O2_24 
ROOT
HETATM    1  C3  UNL     1      23.800   0.230  53.028  1.00  0.00    -0.014 A 
HETATM    2  C4  UNL     1      24.485   1.193  52.304  1.00  0.00     0.022 A 
HETATM    3  C5  UNL     1      23.848   1.910  51.287  1.00  0.00    -0.034 A 
HETATM    4  C14 UNL     1      22.500   1.645  51.005  1.00  0.00     0.022 A 
HETATM    5  C15 UNL     1      21.828   0.668  51.747  1.00  0.00    -0.014 A 
HETATM    6  C18 UNL     1      22.473  -0.035  52.753  1.00  0.00     0.079 A 
ENDROOT
BRANCH   3   7
HETATM    7  C6  UNL     1      24.596   2.953  50.594  1.00  0.00     0.035 C 
HETATM    8  C7  UNL     1      24.587   4.235  50.853  1.00  0.00     0.069 A 
HETATM    9  C8  UNL     1      23.942   5.112  51.789  1.00  0.00     0.263 A 
HETATM   10  S2  UNL     1      25.594   5.386  49.892  1.00  0.00    -0.106 SA
HETATM   11  O1  UNL     1      23.131   4.695  52.664  1.00  0.00    -0.267 OA
HETATM   12  N1  UNL     1      24.230   6.498  51.724  1.00  0.00    -0.317 N 
HETATM   13  C9  UNL     1      25.148   6.933  50.726  1.00  0.00     0.071 A 
HETATM   14  H8  UNL     1      23.836   7.251  52.337  1.00  0.00     0.169 HD
HETATM   15  C10 UNL     1      25.775   8.003  50.188  1.00  0.00     0.037 A 
HETATM   16  C11 UNL     1      26.699   7.856  49.071  1.00  0.00     0.003 A 
HETATM   17  C12 UNL     1      27.137   6.841  48.362  1.00  0.00     0.007 A 
HETATM   18  C13 UNL     1      26.653   5.460  48.663  1.00  0.00     0.046 A 
ENDBRANCH   3   7
BRANCH   1  19
HETATM   19  C2  UNL     1      24.516  -0.526  54.117  1.00  0.00     0.114 C 
BRANCH  19  20
HETATM   20  S1  UNL     1      26.234  -0.816  53.653  1.00  0.00    -0.169 SA
HETATM   21  C1  UNL     1      27.316   0.205  54.651  1.00  0.00     0.090 C 
ENDBRANCH  19  20
ENDBRANCH   1  19
BRANCH   5  22
HETATM   22  C16 UNL     1      20.404   0.360  51.504  1.00  0.00     0.114 C 
BRANCH  22  23
HETATM   23  S3  UNL     1      19.603   1.555  50.385  1.00  0.00    -0.169 SA
HETATM   24  C17 UNL     1      18.773   2.783  51.462  1.00  0.00     0.090 C 
ENDBRANCH  22  23
ENDBRANCH   5  22
BRANCH   6  25
HETATM   25  O2  UNL     1      21.832  -1.013  53.510  1.00  0.00    -0.360 OA
HETATM   26  H19 UNL     1      21.096  -0.799  54.170  1.00  0.00     0.217 HD
ENDBRANCH   6  25
TORSDOF 6
ENDMDL
MODEL 6
REMARK VINA RESULT:      -6.9      2.176      4.181
REMARK  6 active torsions:
REMARK  status: ('A' for Active; 'I' for Inactive)
REMARK    1  A    between atoms: S1_2  and  C2_3 
REMARK    2  A    between atoms: C2_3  and  C3_4 
REMARK    3  A    between atoms: C5_6  and  C6_7 
REMARK    4  A    between atoms: C15_19  and  C16_20 
REMARK    5  A    between atoms: C16_20  and  S3_21 
REMARK    6  A    between atoms: C18_23  and  O2_24 
ROOT
HETATM    1  C3  UNL     1      22.410   0.641  51.867  1.00  0.00    -0.014 A 
HETATM    2  C4  UNL     1      23.000   1.700  51.196  1.00  0.00     0.022 A 
HETATM    3  C5  UNL     1      24.315   2.081  51.480  1.00  0.00    -0.034 A 
HETATM    4  C14 UNL     1      25.036   1.378  52.456  1.00  0.00     0.022 A 
HETATM    5  C15 UNL     1      24.419   0.313  53.122  1.00  0.00    -0.014 A 
HETATM    6  C18 UNL     1      23.115  -0.054  52.829  1.00  0.00     0.079 A 
ENDROOT
BRANCH   3   7
HETATM    7  C6  UNL     1      24.911   3.165  50.706  1.00  0.00     0.035 C 
HETATM    8  C7  UNL     1      24.773   4.449  50.911  1.00  0.00     0.069 A 
HETATM    9  C8  UNL     1      24.079   5.295  51.842  1.00  0.00     0.263 A 
HETATM   10  S2  UNL     1      25.602   5.655  49.853  1.00  0.00    -0.106 SA
HETATM   11  O1  UNL     1      23.361   4.835  52.773  1.00  0.00    -0.267 OA
HETATM   12  N1  UNL     1      24.210   6.699  51.704  1.00  0.00    -0.317 N 
HETATM   13  C9  UNL     1      25.028   7.183  50.642  1.00  0.00     0.071 A 
HETATM   14  H8  UNL     1      23.765   7.433  52.304  1.00  0.00     0.169 HD
HETATM   15  C10 UNL     1      25.508   8.288  50.029  1.00  0.00     0.037 A 
HETATM   16  C11 UNL     1      26.390   8.188  48.874  1.00  0.00     0.003 A 
HETATM   17  C12 UNL     1      26.903   7.194  48.186  1.00  0.00     0.007 A 
HETATM   18  C13 UNL     1      26.589   5.785  48.569  1.00  0.00     0.046 A 
ENDBRANCH   3   7
BRANCH   1  19
HETATM   19  C2  UNL     1      20.991   0.256  51.538  1.00  0.00     0.114 C 
BRANCH  19  20
HETATM   20  S1  UNL     1      19.833   1.252  52.494  1.00  0.00    -0.169 SA
HETATM   21  C1  UNL     1      19.357   2.703  51.558  1.00  0.00     0.090 C 
ENDBRANCH  19  20
ENDBRANCH   1  19
BRANCH   5  22
HETATM   22  C16 UNL     1      25.136  -0.473  54.146  1.00  0.00     0.114 C 
BRANCH  22  23
HETATM   23  S3  UNL     1      26.698   0.305  54.671  1.00  0.00    -0.169 SA
HETATM   24  C17 UNL     1      28.018  -0.475  53.668  1.00  0.00     0.090 C 
ENDBRANCH  22  23
ENDBRANCH   5  22
BRANCH   6  25
HETATM   25  O2  UNL     1      22.473  -1.109  53.473  1.00  0.00    -0.360 OA
HETATM   26  H19 UNL     1      22.305  -1.121  54.471  1.00  0.00     0.217 HD
ENDBRANCH   6  25
TORSDOF 6
ENDMDL
MODEL 7
REMARK VINA RESULT:      -6.8      3.234      6.759
REMARK  6 active torsions:
REMARK  status: ('A' for Active; 'I' for Inactive)
REMARK    1  A    between atoms: S1_2  and  C2_3 
REMARK    2  A    between atoms: C2_3  and  C3_4 
REMARK    3  A    between atoms: C5_6  and  C6_7 
REMARK    4  A    between atoms: C15_19  and  C16_20 
REMARK    5  A    between atoms: C16_20  and  S3_21 
REMARK    6  A    between atoms: C18_23  and  O2_24 
ROOT
HETATM    1  C3  UNL     1      23.483   3.222  52.710  1.00  0.00    -0.014 A 
HETATM    2  C4  UNL     1      22.280   2.765  52.195  1.00  0.00     0.022 A 
HETATM    3  C5  UNL     1      22.029   1.395  52.076  1.00  0.00    -0.034 A 
HETATM    4  C14 UNL     1      23.012   0.481  52.484  1.00  0.00     0.022 A 
HETATM    5  C15 UNL     1      24.218   0.964  53.000  1.00  0.00    -0.014 A 
HETATM    6  C18 UNL     1      24.453   2.326  53.113  1.00  0.00     0.079 A 
ENDROOT
BRANCH   3   7
HETATM    7  C6  UNL     1      20.726   0.964  51.582  1.00  0.00     0.035 C 
HETATM    8  C7  UNL     1      19.843   0.237  52.217  1.00  0.00     0.069 A 
HETATM    9  C8  UNL     1      19.733  -0.398  53.500  1.00  0.00     0.263 A 
HETATM   10  S2  UNL     1      18.265  -0.191  51.449  1.00  0.00    -0.106 SA
HETATM   11  O1  UNL     1      20.649  -0.340  54.367  1.00  0.00    -0.267 OA
HETATM   12  N1  UNL     1      18.548  -1.116  53.798  1.00  0.00    -0.317 N 
HETATM   13  C9  UNL     1      17.536  -1.161  52.797  1.00  0.00     0.071 A 
HETATM   14  H8  UNL     1      18.331  -1.627  54.686  1.00  0.00     0.169 HD
HETATM   15  C10 UNL     1      16.308  -1.630  52.483  1.00  0.00     0.037 A 
HETATM   16  C11 UNL     1      15.695  -1.343  51.193  1.00  0.00     0.003 A 
HETATM   17  C12 UNL     1      16.062  -0.673  50.125  1.00  0.00     0.007 A 
HETATM   18  C13 UNL     1      17.394   0.002  50.091  1.00  0.00     0.046 A 
ENDBRANCH   3   7
BRANCH   1  19
HETATM   19  C2  UNL     1      23.723   4.705  52.826  1.00  0.00     0.114 C 
BRANCH  19  20
HETATM   20  S1  UNL     1      23.323   5.527  51.272  1.00  0.00    -0.169 SA
HETATM   21  C1  UNL     1      24.433   6.909  51.009  1.00  0.00     0.090 C 
ENDBRANCH  19  20
ENDBRANCH   1  19
BRANCH   5  22
HETATM   22  C16 UNL     1      25.281   0.048  53.461  1.00  0.00     0.114 C 
BRANCH  22  23
HETATM   23  S3  UNL     1      26.590  -0.200  52.218  1.00  0.00    -0.169 SA
HETATM   24  C17 UNL     1      28.133  -0.504  53.158  1.00  0.00     0.090 C 
ENDBRANCH  22  23
ENDBRANCH   5  22
BRANCH   6  25
HETATM   25  O2  UNL     1      25.644   2.839  53.623  1.00  0.00    -0.360 OA
HETATM   26  H19 UNL     1      26.544   2.414  53.445  1.00  0.00     0.217 HD
ENDBRANCH   6  25
TORSDOF 6
ENDMDL
MODEL 8
REMARK VINA RESULT:      -6.7      3.156      5.649
REMARK  6 active torsions:
REMARK  status: ('A' for Active; 'I' for Inactive)
REMARK    1  A    between atoms: S1_2  and  C2_3 
REMARK    2  A    between atoms: C2_3  and  C3_4 
REMARK    3  A    between atoms: C5_6  and  C6_7 
REMARK    4  A    between atoms: C15_19  and  C16_20 
REMARK    5  A    between atoms: C16_20  and  S3_21 
REMARK    6  A    between atoms: C18_23  and  O2_24 
ROOT
HETATM    1  C3  UNL     1      25.590   1.952  52.843  1.00  0.00    -0.014 A 
HETATM    2  C4  UNL     1      24.254   1.593  52.759  1.00  0.00     0.022 A 
HETATM    3  C5  UNL     1      23.524   1.827  51.589  1.00  0.00    -0.034 A 
HETATM    4  C14 UNL     1      24.161   2.432  50.495  1.00  0.00     0.022 A 
HETATM    5  C15 UNL     1      25.509   2.788  50.604  1.00  0.00    -0.014 A 
HETATM    6  C18 UNL     1      26.220   2.549  51.769  1.00  0.00     0.079 A 
ENDROOT
BRANCH   3   7
HETATM    7  C6  UNL     1      22.138   1.378  51.529  1.00  0.00     0.035 C 
HETATM    8  C7  UNL     1      21.065   2.126  51.559  1.00  0.00     0.069 A 
HETATM    9  C8  UNL     1      20.764   3.527  51.654  1.00  0.00     0.263 A 
HETATM   10  S2  UNL     1      19.417   1.393  51.460  1.00  0.00    -0.106 SA
HETATM   11  O1  UNL     1      21.662   4.410  51.744  1.00  0.00    -0.267 OA
HETATM   12  N1  UNL     1      19.404   3.927  51.646  1.00  0.00    -0.317 N 
HETATM   13  C9  UNL     1      18.418   2.904  51.545  1.00  0.00     0.071 A 
HETATM   14  H8  UNL     1      19.038   4.906  51.710  1.00  0.00     0.169 HD
HETATM   15  C10 UNL     1      17.092   2.644  51.495  1.00  0.00     0.037 A 
HETATM   16  C11 UNL     1      16.593   1.281  51.378  1.00  0.00     0.003 A 
HETATM   17  C12 UNL     1      17.152   0.095  51.301  1.00  0.00     0.007 A 
HETATM   18  C13 UNL     1      18.640  -0.028  51.329  1.00  0.00     0.046 A 
ENDBRANCH   3   7
BRANCH   1  19
HETATM   19  C2  UNL     1      26.348   1.686  54.118  1.00  0.00     0.114 C 
BRANCH  19  20
HETATM   20  S1  UNL     1      27.036   0.020  54.101  1.00  0.00    -0.169 SA
HETATM   21  C1  UNL     1      28.710   0.045  54.737  1.00  0.00     0.090 C 
ENDBRANCH  19  20
ENDBRANCH   1  19
BRANCH   5  22
HETATM   22  C16 UNL     1      26.234   3.412  49.478  1.00  0.00     0.114 C 
BRANCH  22  23
HETATM   23  S3  UNL     1      25.918   5.202  49.339  1.00  0.00    -0.169 SA
HETATM   24  C17 UNL     1      27.383   5.913  48.501  1.00  0.00     0.090 C 
ENDBRANCH  22  23
ENDBRANCH   5  22
BRANCH   6  25
HETATM   25  O2  UNL     1      27.563   2.890  51.909  1.00  0.00    -0.360 OA
HETATM   26  H19 UNL     1      27.903   3.480  52.657  1.00  0.00     0.217 HD
ENDBRANCH   6  25
TORSDOF 6
ENDMDL
MODEL 9
REMARK VINA RESULT:      -6.6      2.915      4.102
REMARK  6 active torsions:
REMARK  status: ('A' for Active; 'I' for Inactive)
REMARK    1  A    between atoms: S1_2  and  C2_3 
REMARK    2  A    between atoms: C2_3  and  C3_4 
REMARK    3  A    between atoms: C5_6  and  C6_7 
REMARK    4  A    between atoms: C15_19  and  C16_20 
REMARK    5  A    between atoms: C16_20  and  S3_21 
REMARK    6  A    between atoms: C18_23  and  O2_24 
ROOT
HETATM    1  C3  UNL     1      21.419   0.064  53.709  1.00  0.00    -0.014 A 
HETATM    2  C4  UNL     1      22.465   0.676  53.039  1.00  0.00     0.022 A 
HETATM    3  C5  UNL     1      22.307   1.122  51.724  1.00  0.00    -0.034 A 
HETATM    4  C14 UNL     1      21.072   0.943  51.085  1.00  0.00     0.022 A 
HETATM    5  C15 UNL     1      20.029   0.322  51.780  1.00  0.00    -0.014 A 
HETATM    6  C18 UNL     1      20.200  -0.115  53.084  1.00  0.00     0.079 A 
ENDROOT
BRANCH   3   7
HETATM    7  C6  UNL     1      23.421   1.812  51.081  1.00  0.00     0.035 C 
HETATM    8  C7  UNL     1      23.557   3.101  50.911  1.00  0.00     0.069 A 
HETATM    9  C8  UNL     1      22.804   4.286  51.215  1.00  0.00     0.263 A 
HETATM   10  S2  UNL     1      25.020   3.784  50.100  1.00  0.00    -0.106 SA
HETATM   11  O1  UNL     1      21.685   4.248  51.799  1.00  0.00    -0.267 OA
HETATM   12  N1  UNL     1      23.343   5.542  50.842  1.00  0.00    -0.317 N 
HETATM   13  C9  UNL     1      24.606   5.547  50.184  1.00  0.00     0.071 A 
HETATM   14  H8  UNL     1      22.908   6.482  50.997  1.00  0.00     0.169 HD
HETATM   15  C10 UNL     1      25.561   6.324  49.624  1.00  0.00     0.037 A 
HETATM   16  C11 UNL     1      26.764   5.743  49.045  1.00  0.00     0.003 A 
HETATM   17  C12 UNL     1      27.224   4.521  48.902  1.00  0.00     0.007 A 
HETATM   18  C13 UNL     1      26.426   3.363  49.406  1.00  0.00     0.046 A 
ENDBRANCH   3   7
BRANCH   1  19
HETATM   19  C2  UNL     1      21.621  -0.406  55.126  1.00  0.00     0.114 C 
BRANCH  19  20
HETATM   20  S1  UNL     1      22.793  -1.776  55.171  1.00  0.00    -0.169 SA
HETATM   21  C1  UNL     1      24.410  -1.181  55.660  1.00  0.00     0.090 C 
ENDBRANCH  19  20
ENDBRANCH   1  19
BRANCH   5  22
HETATM   22  C16 UNL     1      18.702   0.124  51.163  1.00  0.00     0.114 C 
BRANCH  22  23
HETATM   23  S3  UNL     1      17.736   1.665  51.052  1.00  0.00    -0.169 SA
HETATM   24  C17 UNL     1      17.772   2.163  49.289  1.00  0.00     0.090 C 
ENDBRANCH  22  23
ENDBRANCH   5  22
BRANCH   6  25
HETATM   25  O2  UNL     1      19.183  -0.736  53.804  1.00  0.00    -0.360 OA
HETATM   26  H19 UNL     1      18.284  -0.300  53.970  1.00  0.00     0.217 HD
ENDBRANCH   6  25
TORSDOF 6
ENDMDL
