MODEL 1
REMARK VINA RESULT:      -7.8      0.000      0.000
REMARK  9 active torsions:
REMARK  status: ('A' for Active; 'I' for Inactive)
REMARK    1  A    between atoms: C2_2  and  C3_3 
REMARK    2  A    between atoms: C3_3  and  C4_4 
REMARK    3  A    between atoms: C4_4  and  C5_5 
REMARK    4  A    between atoms: C5_5  and  N4_22 
REMARK    5  A    between atoms: C6_6  and  C7_7 
REMARK    6  A    between atoms: N3_14  and  C12_15 
REMARK       I    between atoms: N4_22  and  C18_23 
REMARK    7  A    between atoms: C18_23  and  C19_25 
REMARK    8  A    between atoms: C20_26  and  C21_27 
REMARK    9  A    between atoms: C21_27  and  N5_28 
ROOT
HETATM    1  C7  UNL     1      25.876   2.337  53.420  1.00  0.00     0.209 C 
HETATM    2  N1  UNL     1      27.163   2.448  54.089  1.00  0.00    -0.374 N 
HETATM    3  C8  UNL     1      28.116   1.401  53.802  1.00  0.00     0.105 C 
HETATM    4  C9  UNL     1      27.612   0.154  53.853  1.00  0.00     0.055 C 
HETATM    5  C10 UNL     1      28.527  -0.939  53.571  1.00  0.00     0.098 C 
HETATM    6  N2  UNL     1      29.262  -1.834  53.359  1.00  0.00    -0.192 NA
HETATM    7  C11 UNL     1      26.195  -0.099  54.192  1.00  0.00     0.177 C 
HETATM    8  N3  UNL     1      25.398   0.982  53.632  1.00  0.00    -0.351 N 
HETATM    9  H12 UNL     1      27.449   3.212  54.745  1.00  0.00     0.161 HD
ENDROOT
BRANCH   8  10
HETATM   10  C12 UNL     1      24.034   0.767  53.247  1.00  0.00     0.033 A 
HETATM   11  C13 UNL     1      23.470  -0.485  53.083  1.00  0.00     0.029 A 
HETATM   12  C14 UNL     1      22.162  -0.710  52.711  1.00  0.00     0.004 A 
HETATM   13  C15 UNL     1      21.341   0.372  52.481  1.00  0.00     0.019 A 
HETATM   14  C16 UNL     1      21.840   1.646  52.625  1.00  0.00     0.013 A 
HETATM   15 BR1  UNL     1      20.660   3.081  52.292  1.00  0.00    -0.051 Br
HETATM   16  C17 UNL     1      23.156   1.799  52.999  1.00  0.00     0.048 A 
ENDBRANCH   8  10
BRANCH   1  17
HETATM   17  C6  UNL     1      25.983   2.664  51.982  1.00  0.00     0.044 C 
HETATM   18  C5  UNL     1      25.639   3.396  50.894  1.00  0.00     0.013 C 
BRANCH  18  19
HETATM   19  C4  UNL     1      26.238   3.128  49.561  1.00  0.00     0.057 C 
BRANCH  19  20
HETATM   20  C3  UNL     1      27.318   4.054  49.134  1.00  0.00     0.006 C 
BRANCH  20  21
HETATM   21  C2  UNL     1      26.809   5.390  48.707  1.00  0.00    -0.004 C 
HETATM   22  C1  UNL     1      27.992   6.243  48.228  1.00  0.00     0.005 C 
ENDBRANCH  20  21
ENDBRANCH  19  20
ENDBRANCH  18  19
BRANCH  18  23
HETATM   23  N4  UNL     1      24.697   4.460  50.887  1.00  0.00    -0.320 N 
HETATM   24  C18 UNL     1      23.437   4.626  50.294  1.00  0.00     0.300 C 
HETATM   25  O1  UNL     1      22.968   3.684  49.611  1.00  0.00    -0.258 OA
HETATM   26  H20 UNL     1      24.898   5.376  51.375  1.00  0.00     0.169 HD
BRANCH  24  27
HETATM   27  C19 UNL     1      22.583   5.772  50.366  1.00  0.00    -0.004 C 
HETATM   28  C20 UNL     1      21.872   6.742  50.407  1.00  0.00    -0.066 C 
BRANCH  28  29
HETATM   29  C21 UNL     1      21.024   7.933  50.465  1.00  0.00     0.365 C 
BRANCH  29  30
HETATM   30  N5  UNL     1      20.818   8.380  49.098  1.00  0.00     0.090 N 
HETATM   31  C22 UNL     1      19.380   8.557  48.929  1.00  0.00     0.310 C 
HETATM   32  C23 UNL     1      21.391   9.724  48.932  1.00  0.00     0.310 C 
ENDBRANCH  29  30
ENDBRANCH  28  29
ENDBRANCH  24  27
ENDBRANCH  18  23
ENDBRANCH   1  17
TORSDOF 9
ENDMDL
MODEL 2
REMARK VINA RESULT:      -7.8      3.280      7.354
REMARK  9 active torsions:
REMARK  status: ('A' for Active; 'I' for Inactive)
REMARK    1  A    between atoms: C2_2  and  C3_3 
REMARK    2  A    between atoms: C3_3  and  C4_4 
REMARK    3  A    between atoms: C4_4  and  C5_5 
REMARK    4  A    between atoms: C5_5  and  N4_22 
REMARK    5  A    between atoms: C6_6  and  C7_7 
REMARK    6  A    between atoms: N3_14  and  C12_15 
REMARK       I    between atoms: N4_22  and  C18_23 
REMARK    7  A    between atoms: C18_23  and  C19_25 
REMARK    8  A    between atoms: C20_26  and  C21_27 
REMARK    9  A    between atoms: C21_27  and  N5_28 
ROOT
HETATM    1  C7  UNL     1      23.635   4.765  52.094  1.00  0.00     0.209 C 
HETATM    2  N1  UNL     1      22.332   5.166  52.602  1.00  0.00    -0.374 N 
HETATM    3  C8  UNL     1      21.188   4.586  51.936  1.00  0.00     0.105 C 
HETATM    4  C9  UNL     1      21.251   4.612  50.591  1.00  0.00     0.055 C 
HETATM    5  C10 UNL     1      20.126   4.040  49.868  1.00  0.00     0.098 C 
HETATM    6  N2  UNL     1      19.215   3.593  49.272  1.00  0.00    -0.192 NA
HETATM    7  C11 UNL     1      22.401   5.205  49.877  1.00  0.00     0.177 C 
HETATM    8  N3  UNL     1      23.602   4.931  50.651  1.00  0.00    -0.351 N 
HETATM    9  H12 UNL     1      22.160   5.823  53.398  1.00  0.00     0.161 HD
ENDROOT
BRANCH   8  10
HETATM   10  C12 UNL     1      24.879   4.812  50.012  1.00  0.00     0.033 A 
HETATM   11  C13 UNL     1      25.594   3.630  49.940  1.00  0.00     0.029 A 
HETATM   12  C14 UNL     1      26.824   3.497  49.332  1.00  0.00     0.004 A 
HETATM   13  C15 UNL     1      27.401   4.605  48.750  1.00  0.00     0.019 A 
HETATM   14  C16 UNL     1      26.743   5.813  48.788  1.00  0.00     0.013 A 
HETATM   15 BR1  UNL     1      27.593   7.288  47.972  1.00  0.00    -0.051 Br
HETATM   16  C17 UNL     1      25.517   5.875  49.412  1.00  0.00     0.048 A 
ENDBRANCH   8  10
BRANCH   1  17
HETATM   17  C6  UNL     1      23.963   3.376  52.480  1.00  0.00     0.044 C 
HETATM   18  C5  UNL     1      23.618   2.082  52.696  1.00  0.00     0.013 C 
BRANCH  18  19
HETATM   19  C4  UNL     1      24.619   1.081  53.145  1.00  0.00     0.057 C 
BRANCH  19  20
HETATM   20  C3  UNL     1      26.017   1.566  53.267  1.00  0.00     0.006 C 
BRANCH  20  21
HETATM   21  C2  UNL     1      26.952   0.908  52.307  1.00  0.00    -0.004 C 
HETATM   22  C1  UNL     1      26.608  -0.585  52.223  1.00  0.00     0.005 C 
ENDBRANCH  20  21
ENDBRANCH  19  20
ENDBRANCH  18  19
BRANCH  18  23
HETATM   23  N4  UNL     1      22.312   1.545  52.537  1.00  0.00    -0.320 N 
HETATM   24  C18 UNL     1      21.598   1.064  51.430  1.00  0.00     0.300 C 
HETATM   25  O1  UNL     1      22.157   1.073  50.307  1.00  0.00    -0.258 OA
HETATM   26  H20 UNL     1      21.643   1.473  53.353  1.00  0.00     0.169 HD
BRANCH  24  27
HETATM   27  C19 UNL     1      20.264   0.546  51.410  1.00  0.00    -0.004 C 
HETATM   28  C20 UNL     1      19.147   0.098  51.378  1.00  0.00    -0.066 C 
BRANCH  28  29
HETATM   29  C21 UNL     1      17.786  -0.434  51.323  1.00  0.00     0.365 C 
BRANCH  29  30
HETATM   30  N5  UNL     1      17.300  -0.512  52.689  1.00  0.00     0.090 N 
HETATM   31  C22 UNL     1      15.860  -0.733  52.609  1.00  0.00     0.310 C 
HETATM   32  C23 UNL     1      17.837  -1.720  53.333  1.00  0.00     0.310 C 
ENDBRANCH  29  30
ENDBRANCH  28  29
ENDBRANCH  24  27
ENDBRANCH  18  23
ENDBRANCH   1  17
TORSDOF 9
ENDMDL
MODEL 3
REMARK VINA RESULT:      -7.7      2.855      7.044
REMARK  9 active torsions:
REMARK  status: ('A' for Active; 'I' for Inactive)
REMARK    1  A    between atoms: C2_2  and  C3_3 
REMARK    2  A    between atoms: C3_3  and  C4_4 
REMARK    3  A    between atoms: C4_4  and  C5_5 
REMARK    4  A    between atoms: C5_5  and  N4_22 
REMARK    5  A    between atoms: C6_6  and  C7_7 
REMARK    6  A    between atoms: N3_14  and  C12_15 
REMARK       I    between atoms: N4_22  and  C18_23 
REMARK    7  A    between atoms: C18_23  and  C19_25 
REMARK    8  A    between atoms: C20_26  and  C21_27 
REMARK    9  A    between atoms: C21_27  and  N5_28 
ROOT
HETATM    1  C7  UNL     1      23.191   6.340  49.800  1.00  0.00     0.209 C 
HETATM    2  N1  UNL     1      23.052   6.505  51.239  1.00  0.00    -0.374 N 
HETATM    3  C8  UNL     1      23.383   5.350  52.042  1.00  0.00     0.105 C 
HETATM    4  C9  UNL     1      22.860   4.192  51.600  1.00  0.00     0.055 C 
HETATM    5  C10 UNL     1      23.162   2.996  52.370  1.00  0.00     0.098 C 
HETATM    6  N2  UNL     1      23.388   2.024  52.994  1.00  0.00    -0.192 NA
HETATM    7  C11 UNL     1      22.005   4.134  50.395  1.00  0.00     0.177 C 
HETATM    8  N3  UNL     1      22.504   5.112  49.441  1.00  0.00    -0.351 N 
HETATM    9  H12 UNL     1      22.742   7.376  51.729  1.00  0.00     0.161 HD
ENDROOT
BRANCH   8  10
HETATM   10  C12 UNL     1      22.334   4.918  48.031  1.00  0.00     0.033 A 
HETATM   11  C13 UNL     1      22.176   3.678  47.440  1.00  0.00     0.029 A 
HETATM   12  C14 UNL     1      22.013   3.473  46.087  1.00  0.00     0.004 A 
HETATM   13  C15 UNL     1      22.005   4.564  45.246  1.00  0.00     0.019 A 
HETATM   14  C16 UNL     1      22.159   5.827  45.769  1.00  0.00     0.013 A 
HETATM   15 BR1  UNL     1      22.141   7.275  44.558  1.00  0.00    -0.051 Br
HETATM   16  C17 UNL     1      22.317   5.960  47.131  1.00  0.00     0.048 A 
ENDBRANCH   8  10
BRANCH   1  17
HETATM   17  C6  UNL     1      24.612   6.315  49.393  1.00  0.00     0.044 C 
HETATM   18  C5  UNL     1      25.862   5.793  49.448  1.00  0.00     0.013 C 
BRANCH  18  19
HETATM   19  C4  UNL     1      26.974   6.362  48.644  1.00  0.00     0.057 C 
BRANCH  19  20
HETATM   20  C3  UNL     1      28.132   5.462  48.405  1.00  0.00     0.006 C 
BRANCH  20  21
HETATM   21  C2  UNL     1      29.397   6.200  48.119  1.00  0.00    -0.004 C 
HETATM   22  C1  UNL     1      30.500   5.187  47.788  1.00  0.00     0.005 C 
ENDBRANCH  20  21
ENDBRANCH  19  20
ENDBRANCH  18  19
BRANCH  18  23
HETATM   23  N4  UNL     1      26.254   4.689  50.253  1.00  0.00    -0.320 N 
HETATM   24  C18 UNL     1      25.984   3.313  50.198  1.00  0.00     0.300 C 
HETATM   25  O1  UNL     1      25.253   2.883  49.273  1.00  0.00    -0.258 OA
HETATM   26  H20 UNL     1      26.851   4.822  51.117  1.00  0.00     0.169 HD
BRANCH  24  27
HETATM   27  C19 UNL     1      26.448   2.297  51.092  1.00  0.00    -0.004 C 
HETATM   28  C20 UNL     1      26.843   1.430  51.827  1.00  0.00    -0.066 C 
BRANCH  28  29
HETATM   29  C21 UNL     1      27.306   0.366  52.718  1.00  0.00     0.365 C 
BRANCH  29  30
HETATM   30  N5  UNL     1      27.466   0.951  54.038  1.00  0.00     0.090 N 
HETATM   31  C22 UNL     1      26.561   0.232  54.927  1.00  0.00     0.310 C 
HETATM   32  C23 UNL     1      28.815   0.654  54.544  1.00  0.00     0.310 C 
ENDBRANCH  29  30
ENDBRANCH  28  29
ENDBRANCH  24  27
ENDBRANCH  18  23
ENDBRANCH   1  17
TORSDOF 9
ENDMDL
MODEL 4
REMARK VINA RESULT:      -7.7      2.696      7.320
REMARK  9 active torsions:
REMARK  status: ('A' for Active; 'I' for Inactive)
REMARK    1  A    between atoms: C2_2  and  C3_3 
REMARK    2  A    between atoms: C3_3  and  C4_4 
REMARK    3  A    between atoms: C4_4  and  C5_5 
REMARK    4  A    between atoms: C5_5  and  N4_22 
REMARK    5  A    between atoms: C6_6  and  C7_7 
REMARK    6  A    between atoms: N3_14  and  C12_15 
REMARK       I    between atoms: N4_22  and  C18_23 
REMARK    7  A    between atoms: C18_23  and  C19_25 
REMARK    8  A    between atoms: C20_26  and  C21_27 
REMARK    9  A    between atoms: C21_27  and  N5_28 
ROOT
HETATM    1  C7  UNL     1      22.684   2.144  48.624  1.00  0.00     0.209 C 
HETATM    2  N1  UNL     1      22.596   2.247  47.176  1.00  0.00    -0.374 N 
HETATM    3  C8  UNL     1      21.816   3.352  46.668  1.00  0.00     0.105 C 
HETATM    4  C9  UNL     1      20.626   3.523  47.273  1.00  0.00     0.055 C 
HETATM    5  C10 UNL     1      19.799   4.622  46.802  1.00  0.00     0.098 C 
HETATM    6  N2  UNL     1      19.114   5.500  46.419  1.00  0.00    -0.192 NA
HETATM    7  C11 UNL     1      20.169   2.629  48.358  1.00  0.00     0.177 C 
HETATM    8  N3  UNL     1      21.331   2.245  49.144  1.00  0.00    -0.351 N 
HETATM    9  H12 UNL     1      23.046   1.602  46.487  1.00  0.00     0.161 HD
ENDROOT
BRANCH   8  10
HETATM   10  C12 UNL     1      21.205   1.921  50.535  1.00  0.00     0.033 A 
HETATM   11  C13 UNL     1      20.466   2.669  51.433  1.00  0.00     0.029 A 
HETATM   12  C14 UNL     1      20.335   2.376  52.774  1.00  0.00     0.004 A 
HETATM   13  C15 UNL     1      20.978   1.266  53.276  1.00  0.00     0.019 A 
HETATM   14  C16 UNL     1      21.732   0.478  52.436  1.00  0.00     0.013 A 
HETATM   15 BR1  UNL     1      22.586  -1.026  53.192  1.00  0.00    -0.051 Br
HETATM   16  C17 UNL     1      21.819   0.830  51.107  1.00  0.00     0.048 A 
ENDBRANCH   8  10
BRANCH   1  17
HETATM   17  C6  UNL     1      23.569   3.185  49.189  1.00  0.00     0.044 C 
HETATM   18  C5  UNL     1      24.507   3.605  50.073  1.00  0.00     0.013 C 
BRANCH  18  19
HETATM   19  C4  UNL     1      25.011   5.002  50.059  1.00  0.00     0.057 C 
BRANCH  19  20
HETATM   20  C3  UNL     1      25.904   5.362  48.928  1.00  0.00     0.006 C 
BRANCH  20  21
HETATM   21  C2  UNL     1      27.211   4.641  48.961  1.00  0.00    -0.004 C 
HETATM   22  C1  UNL     1      28.288   5.536  48.335  1.00  0.00     0.005 C 
ENDBRANCH  20  21
ENDBRANCH  19  20
ENDBRANCH  18  19
BRANCH  18  23
HETATM   23  N4  UNL     1      25.096   2.801  51.087  1.00  0.00    -0.320 N 
HETATM   24  C18 UNL     1      24.827   2.624  52.452  1.00  0.00     0.300 C 
HETATM   25  O1  UNL     1      23.883   3.272  52.965  1.00  0.00    -0.258 OA
HETATM   26  H20 UNL     1      25.937   2.192  50.887  1.00  0.00     0.169 HD
BRANCH  24  27
HETATM   27  C19 UNL     1      25.514   1.771  53.373  1.00  0.00    -0.004 C 
HETATM   28  C20 UNL     1      26.099   1.042  54.131  1.00  0.00    -0.066 C 
BRANCH  28  29
HETATM   29  C21 UNL     1      26.796   0.143  55.051  1.00  0.00     0.365 C 
BRANCH  29  30
HETATM   30  N5  UNL     1      28.090  -0.156  54.462  1.00  0.00     0.090 N 
HETATM   31  C22 UNL     1      27.828  -0.718  53.141  1.00  0.00     0.310 C 
HETATM   32  C23 UNL     1      28.813   1.100  54.207  1.00  0.00     0.310 C 
ENDBRANCH  29  30
ENDBRANCH  28  29
ENDBRANCH  24  27
ENDBRANCH  18  23
ENDBRANCH   1  17
TORSDOF 9
ENDMDL
MODEL 5
REMARK VINA RESULT:      -7.6      3.056      3.518
REMARK  9 active torsions:
REMARK  status: ('A' for Active; 'I' for Inactive)
REMARK    1  A    between atoms: C2_2  and  C3_3 
REMARK    2  A    between atoms: C3_3  and  C4_4 
REMARK    3  A    between atoms: C4_4  and  C5_5 
REMARK    4  A    between atoms: C5_5  and  N4_22 
REMARK    5  A    between atoms: C6_6  and  C7_7 
REMARK    6  A    between atoms: N3_14  and  C12_15 
REMARK       I    between atoms: N4_22  and  C18_23 
REMARK    7  A    between atoms: C18_23  and  C19_25 
REMARK    8  A    between atoms: C20_26  and  C21_27 
REMARK    9  A    between atoms: C21_27  and  N5_28 
ROOT
HETATM    1  C7  UNL     1      24.125   3.382  52.268  1.00  0.00     0.209 C 
HETATM    2  N1  UNL     1      24.874   3.272  53.510  1.00  0.00    -0.374 N 
HETATM    3  C8  UNL     1      25.607   2.042  53.699  1.00  0.00     0.105 C 
HETATM    4  C9  UNL     1      24.912   0.925  53.413  1.00  0.00     0.055 C 
HETATM    5  C10 UNL     1      25.601  -0.343  53.584  1.00  0.00     0.098 C 
HETATM    6  N2  UNL     1      26.145  -1.377  53.733  1.00  0.00    -0.192 NA
HETATM    7  C11 UNL     1      23.506   0.980  52.959  1.00  0.00     0.177 C 
HETATM    8  N3  UNL     1      23.346   2.163  52.128  1.00  0.00    -0.351 N 
HETATM    9  H12 UNL     1      24.928   4.000  54.260  1.00  0.00     0.161 HD
ENDROOT
BRANCH   8  10
HETATM   10  C12 UNL     1      22.365   2.203  51.084  1.00  0.00     0.033 A 
HETATM   11  C13 UNL     1      22.286   1.267  50.069  1.00  0.00     0.029 A 
HETATM   12  C14 UNL     1      21.352   1.290  49.056  1.00  0.00     0.004 A 
HETATM   13  C15 UNL     1      20.424   2.308  49.031  1.00  0.00     0.019 A 
HETATM   14  C16 UNL     1      20.449   3.275  50.010  1.00  0.00     0.013 A 
HETATM   15 BR1  UNL     1      19.150   4.641  49.913  1.00  0.00    -0.051 Br
HETATM   16  C17 UNL     1      21.410   3.190  50.994  1.00  0.00     0.048 A 
ENDBRANCH   8  10
BRANCH   1  17
HETATM   17  C6  UNL     1      25.021   3.598  51.112  1.00  0.00     0.044 C 
HETATM   18  C5  UNL     1      25.236   3.840  49.795  1.00  0.00     0.013 C 
BRANCH  18  19
HETATM   19  C4  UNL     1      26.611   3.947  49.244  1.00  0.00     0.057 C 
BRANCH  19  20
HETATM   20  C3  UNL     1      27.016   5.291  48.757  1.00  0.00     0.006 C 
BRANCH  20  21
HETATM   21  C2  UNL     1      28.455   5.364  48.368  1.00  0.00    -0.004 C 
HETATM   22  C1  UNL     1      28.727   6.731  47.727  1.00  0.00     0.005 C 
ENDBRANCH  20  21
ENDBRANCH  19  20
ENDBRANCH  18  19
BRANCH  18  23
HETATM   23  N4  UNL     1      24.219   4.008  48.817  1.00  0.00    -0.320 N 
HETATM   24  C18 UNL     1      23.348   5.061  48.504  1.00  0.00     0.300 C 
HETATM   25  O1  UNL     1      23.416   6.116  49.181  1.00  0.00    -0.258 OA
HETATM   26  H20 UNL     1      23.963   3.227  48.150  1.00  0.00     0.169 HD
BRANCH  24  27
HETATM   27  C19 UNL     1      22.352   5.095  47.477  1.00  0.00    -0.004 C 
HETATM   28  C20 UNL     1      21.509   5.142  46.619  1.00  0.00    -0.066 C 
BRANCH  28  29
HETATM   29  C21 UNL     1      20.471   5.196  45.590  1.00  0.00     0.365 C 
BRANCH  29  30
HETATM   30  N5  UNL     1      20.212   3.830  45.170  1.00  0.00     0.090 N 
HETATM   31  C22 UNL     1      18.931   3.449  45.755  1.00  0.00     0.310 C 
HETATM   32  C23 UNL     1      19.993   3.798  43.716  1.00  0.00     0.310 C 
ENDBRANCH  29  30
ENDBRANCH  28  29
ENDBRANCH  24  27
ENDBRANCH  18  23
ENDBRANCH   1  17
TORSDOF 9
ENDMDL
MODEL 6
REMARK VINA RESULT:      -7.6      2.925      7.273
REMARK  9 active torsions:
REMARK  status: ('A' for Active; 'I' for Inactive)
REMARK    1  A    between atoms: C2_2  and  C3_3 
REMARK    2  A    between atoms: C3_3  and  C4_4 
REMARK    3  A    between atoms: C4_4  and  C5_5 
REMARK    4  A    between atoms: C5_5  and  N4_22 
REMARK    5  A    between atoms: C6_6  and  C7_7 
REMARK    6  A    between atoms: N3_14  and  C12_15 
REMARK       I    between atoms: N4_22  and  C18_23 
REMARK    7  A    between atoms: C18_23  and  C19_25 
REMARK    8  A    between atoms: C20_26  and  C21_27 
REMARK    9  A    between atoms: C21_27  and  N5_28 
ROOT
HETATM    1  C7  UNL     1      24.412   6.850  50.663  1.00  0.00     0.209 C 
HETATM    2  N1  UNL     1      24.240   6.645  52.093  1.00  0.00    -0.374 N 
HETATM    3  C8  UNL     1      23.483   5.475  52.477  1.00  0.00     0.105 C 
HETATM    4  C9  UNL     1      22.342   5.294  51.786  1.00  0.00     0.055 C 
HETATM    5  C10 UNL     1      21.541   4.131  52.131  1.00  0.00     0.098 C 
HETATM    6  N2  UNL     1      20.876   3.201  52.411  1.00  0.00    -0.192 NA
HETATM    7  C11 UNL     1      21.911   6.239  50.734  1.00  0.00     0.177 C 
HETATM    8  N3  UNL     1      23.100   6.726  50.051  1.00  0.00    -0.351 N 
HETATM    9  H12 UNL     1      24.616   7.261  52.850  1.00  0.00     0.161 HD
ENDROOT
BRANCH   8  10
HETATM   10  C12 UNL     1      23.046   7.136  48.679  1.00  0.00     0.033 A 
HETATM   11  C13 UNL     1      23.426   8.390  48.237  1.00  0.00     0.029 A 
HETATM   12  C14 UNL     1      23.378   8.803  46.923  1.00  0.00     0.004 A 
HETATM   13  C15 UNL     1      22.922   7.923  45.966  1.00  0.00     0.019 A 
HETATM   14  C16 UNL     1      22.526   6.659  46.339  1.00  0.00     0.013 A 
HETATM   15 BR1  UNL     1      21.910   5.507  44.976  1.00  0.00    -0.051 Br
HETATM   16  C17 UNL     1      22.600   6.312  47.670  1.00  0.00     0.048 A 
ENDBRANCH   8  10
BRANCH   1  17
HETATM   17  C6  UNL     1      25.379   5.888  50.091  1.00  0.00     0.044 C 
HETATM   18  C5  UNL     1      25.955   4.662  50.036  1.00  0.00     0.013 C 
BRANCH  18  19
HETATM   19  C4  UNL     1      27.035   4.359  49.062  1.00  0.00     0.057 C 
BRANCH  19  20
HETATM   20  C3  UNL     1      27.645   5.529  48.380  1.00  0.00     0.006 C 
BRANCH  20  21
HETATM   21  C2  UNL     1      29.119   5.395  48.192  1.00  0.00    -0.004 C 
HETATM   22  C1  UNL     1      29.753   6.792  48.217  1.00  0.00     0.005 C 
ENDBRANCH  20  21
ENDBRANCH  19  20
ENDBRANCH  18  19
BRANCH  18  23
HETATM   23  N4  UNL     1      25.621   3.562  50.871  1.00  0.00    -0.320 N 
HETATM   24  C18 UNL     1      24.600   2.601  50.835  1.00  0.00     0.300 C 
HETATM   25  O1  UNL     1      23.764   2.651  49.900  1.00  0.00    -0.258 OA
HETATM   26  H20 UNL     1      26.175   3.348  51.747  1.00  0.00     0.169 HD
BRANCH  24  27
HETATM   27  C19 UNL     1      24.374   1.532  51.759  1.00  0.00    -0.004 C 
HETATM   28  C20 UNL     1      24.188   0.619  52.521  1.00  0.00    -0.066 C 
BRANCH  28  29
HETATM   29  C21 UNL     1      23.943  -0.492  53.439  1.00  0.00     0.365 C 
BRANCH  29  30
HETATM   30  N5  UNL     1      22.640  -0.272  54.042  1.00  0.00     0.090 N 
HETATM   31  C22 UNL     1      21.650  -0.533  53.003  1.00  0.00     0.310 C 
HETATM   32  C23 UNL     1      22.396  -1.297  55.068  1.00  0.00     0.310 C 
ENDBRANCH  29  30
ENDBRANCH  28  29
ENDBRANCH  24  27
ENDBRANCH  18  23
ENDBRANCH   1  17
TORSDOF 9
ENDMDL
MODEL 7
REMARK VINA RESULT:      -7.5      2.572      3.886
REMARK  9 active torsions:
REMARK  status: ('A' for Active; 'I' for Inactive)
REMARK    1  A    between atoms: C2_2  and  C3_3 
REMARK    2  A    between atoms: C3_3  and  C4_4 
REMARK    3  A    between atoms: C4_4  and  C5_5 
REMARK    4  A    between atoms: C5_5  and  N4_22 
REMARK    5  A    between atoms: C6_6  and  C7_7 
REMARK    6  A    between atoms: N3_14  and  C12_15 
REMARK       I    between atoms: N4_22  and  C18_23 
REMARK    7  A    between atoms: C18_23  and  C19_25 
REMARK    8  A    between atoms: C20_26  and  C21_27 
REMARK    9  A    between atoms: C21_27  and  N5_28 
ROOT
HETATM    1  C7  UNL     1      24.342   2.547  53.038  1.00  0.00     0.209 C 
HETATM    2  N1  UNL     1      25.687   2.828  53.515  1.00  0.00    -0.374 N 
HETATM    3  C8  UNL     1      26.692   1.842  53.189  1.00  0.00     0.105 C 
HETATM    4  C9  UNL     1      26.320   0.568  53.410  1.00  0.00     0.055 C 
HETATM    5  C10 UNL     1      27.292  -0.467  53.099  1.00  0.00     0.098 C 
HETATM    6  N2  UNL     1      28.077  -1.312  52.864  1.00  0.00    -0.192 NA
HETATM    7  C11 UNL     1      24.988   0.230  53.959  1.00  0.00     0.177 C 
HETATM    8  N3  UNL     1      24.027   1.182  53.424  1.00  0.00    -0.351 N 
HETATM    9  H12 UNL     1      25.980   3.672  54.060  1.00  0.00     0.161 HD
ENDROOT
BRANCH   8  10
HETATM   10  C12 UNL     1      22.652   0.818  53.246  1.00  0.00     0.033 A 
HETATM   11  C13 UNL     1      22.126  -0.405  53.620  1.00  0.00     0.029 A 
HETATM   12  C14 UNL     1      20.809  -0.773  53.455  1.00  0.00     0.004 A 
HETATM   13  C15 UNL     1      19.936   0.124  52.879  1.00  0.00     0.019 A 
HETATM   14  C16 UNL     1      20.394   1.359  52.483  1.00  0.00     0.013 A 
HETATM   15 BR1  UNL     1      19.143   2.537  51.700  1.00  0.00    -0.051 Br
HETATM   16  C17 UNL     1      21.723   1.661  52.678  1.00  0.00     0.048 A 
ENDBRANCH   8  10
BRANCH   1  17
HETATM   17  C6  UNL     1      24.233   2.744  51.577  1.00  0.00     0.044 C 
HETATM   18  C5  UNL     1      24.483   3.445  50.443  1.00  0.00     0.013 C 
BRANCH  18  19
HETATM   19  C4  UNL     1      23.991   2.979  49.122  1.00  0.00     0.057 C 
BRANCH  19  20
HETATM   20  C3  UNL     1      22.575   3.298  48.804  1.00  0.00     0.006 C 
BRANCH  20  21
HETATM   21  C2  UNL     1      21.894   2.224  48.023  1.00  0.00    -0.004 C 
HETATM   22  C1  UNL     1      21.585   1.048  48.959  1.00  0.00     0.005 C 
ENDBRANCH  20  21
ENDBRANCH  19  20
ENDBRANCH  18  19
BRANCH  18  23
HETATM   23  N4  UNL     1      25.207   4.666  50.378  1.00  0.00    -0.320 N 
HETATM   24  C18 UNL     1      24.821   6.015  50.366  1.00  0.00     0.300 C 
HETATM   25  O1  UNL     1      23.598   6.288  50.424  1.00  0.00    -0.258 OA
HETATM   26  H20 UNL     1      26.261   4.677  50.290  1.00  0.00     0.169 HD
BRANCH  24  27
HETATM   27  C19 UNL     1      25.670   7.165  50.292  1.00  0.00    -0.004 C 
HETATM   28  C20 UNL     1      26.391   8.127  50.249  1.00  0.00    -0.066 C 
BRANCH  28  29
HETATM   29  C21 UNL     1      27.254   9.307  50.208  1.00  0.00     0.365 C 
BRANCH  29  30
HETATM   30  N5  UNL     1      27.840   9.364  48.880  1.00  0.00     0.090 N 
HETATM   31  C22 UNL     1      28.512  10.655  48.774  1.00  0.00     0.310 C 
HETATM   32  C23 UNL     1      28.914   8.364  48.775  1.00  0.00     0.310 C 
ENDBRANCH  29  30
ENDBRANCH  28  29
ENDBRANCH  24  27
ENDBRANCH  18  23
ENDBRANCH   1  17
TORSDOF 9
ENDMDL
MODEL 8
REMARK VINA RESULT:      -7.5      2.571      6.006
REMARK  9 active torsions:
REMARK  status: ('A' for Active; 'I' for Inactive)
REMARK    1  A    between atoms: C2_2  and  C3_3 
REMARK    2  A    between atoms: C3_3  and  C4_4 
REMARK    3  A    between atoms: C4_4  and  C5_5 
REMARK    4  A    between atoms: C5_5  and  N4_22 
REMARK    5  A    between atoms: C6_6  and  C7_7 
REMARK    6  A    between atoms: N3_14  and  C12_15 
REMARK       I    between atoms: N4_22  and  C18_23 
REMARK    7  A    between atoms: C18_23  and  C19_25 
REMARK    8  A    between atoms: C20_26  and  C21_27 
REMARK    9  A    between atoms: C21_27  and  N5_28 
ROOT
HETATM    1  C7  UNL     1      22.868   1.805  50.390  1.00  0.00     0.209 C 
HETATM    2  N1  UNL     1      22.955   2.679  49.230  1.00  0.00    -0.374 N 
HETATM    3  C8  UNL     1      22.744   4.086  49.483  1.00  0.00     0.105 C 
HETATM    4  C9  UNL     1      21.681   4.363  50.261  1.00  0.00     0.055 C 
HETATM    5  C10 UNL     1      21.421   5.764  50.549  1.00  0.00     0.098 C 
HETATM    6  N2  UNL     1      21.193   6.896  50.777  1.00  0.00    -0.192 NA
HETATM    7  C11 UNL     1      20.806   3.295  50.790  1.00  0.00     0.177 C 
HETATM    8  N3  UNL     1      21.635   2.137  51.085  1.00  0.00    -0.351 N 
HETATM    9  H12 UNL     1      23.159   2.378  48.249  1.00  0.00     0.161 HD
ENDROOT
BRANCH   8  10
HETATM   10  C12 UNL     1      21.268   1.211  52.115  1.00  0.00     0.033 A 
HETATM   11  C13 UNL     1      22.091   0.876  53.175  1.00  0.00     0.029 A 
HETATM   12  C14 UNL     1      21.757  -0.013  54.174  1.00  0.00     0.004 A 
HETATM   13  C15 UNL     1      20.523  -0.624  54.132  1.00  0.00     0.019 A 
HETATM   14  C16 UNL     1      19.656  -0.338  53.103  1.00  0.00     0.013 A 
HETATM   15 BR1  UNL     1      17.984  -1.213  53.109  1.00  0.00    -0.051 Br
HETATM   16  C17 UNL     1      20.055   0.561  52.139  1.00  0.00     0.048 A 
ENDBRANCH   8  10
BRANCH   1  17
HETATM   17  C6  UNL     1      24.049   1.948  51.267  1.00  0.00     0.044 C 
HETATM   18  C5  UNL     1      25.226   2.534  51.601  1.00  0.00     0.013 C 
BRANCH  18  19
HETATM   19  C4  UNL     1      25.989   2.104  52.800  1.00  0.00     0.057 C 
BRANCH  19  20
HETATM   20  C3  UNL     1      27.150   1.212  52.549  1.00  0.00     0.006 C 
BRANCH  20  21
HETATM   21  C2  UNL     1      26.753  -0.151  52.089  1.00  0.00    -0.004 C 
HETATM   22  C1  UNL     1      25.946  -0.835  53.200  1.00  0.00     0.005 C 
ENDBRANCH  20  21
ENDBRANCH  19  20
ENDBRANCH  18  19
BRANCH  18  23
HETATM   23  N4  UNL     1      25.856   3.580  50.874  1.00  0.00    -0.320 N 
HETATM   24  C18 UNL     1      26.605   3.613  49.689  1.00  0.00     0.300 C 
HETATM   25  O1  UNL     1      26.807   2.536  49.078  1.00  0.00    -0.258 OA
HETATM   26  H20 UNL     1      25.844   4.578  51.225  1.00  0.00     0.169 HD
BRANCH  24  27
HETATM   27  C19 UNL     1      27.195   4.756  49.061  1.00  0.00    -0.004 C 
HETATM   28  C20 UNL     1      27.674   5.718  48.520  1.00  0.00    -0.066 C 
BRANCH  28  29
HETATM   29  C21 UNL     1      28.264   6.875  47.847  1.00  0.00     0.365 C 
BRANCH  29  30
HETATM   30  N5  UNL     1      28.269   7.970  48.801  1.00  0.00     0.090 N 
HETATM   31  C22 UNL     1      29.599   8.566  48.747  1.00  0.00     0.310 C 
HETATM   32  C23 UNL     1      27.357   9.027  48.338  1.00  0.00     0.310 C 
ENDBRANCH  29  30
ENDBRANCH  28  29
ENDBRANCH  24  27
ENDBRANCH  18  23
ENDBRANCH   1  17
TORSDOF 9
ENDMDL
MODEL 9
REMARK VINA RESULT:      -7.5      2.440      7.555
REMARK  9 active torsions:
REMARK  status: ('A' for Active; 'I' for Inactive)
REMARK    1  A    between atoms: C2_2  and  C3_3 
REMARK    2  A    between atoms: C3_3  and  C4_4 
REMARK    3  A    between atoms: C4_4  and  C5_5 
REMARK    4  A    between atoms: C5_5  and  N4_22 
REMARK    5  A    between atoms: C6_6  and  C7_7 
REMARK    6  A    between atoms: N3_14  and  C12_15 
REMARK       I    between atoms: N4_22  and  C18_23 
REMARK    7  A    between atoms: C18_23  and  C19_25 
REMARK    8  A    between atoms: C20_26  and  C21_27 
REMARK    9  A    between atoms: C21_27  and  N5_28 
ROOT
HETATM    1  C7  UNL     1      23.932   6.807  51.189  1.00  0.00     0.209 C 
HETATM    2  N1  UNL     1      24.029   6.172  52.494  1.00  0.00    -0.374 N 
HETATM    3  C8  UNL     1      23.553   4.810  52.571  1.00  0.00     0.105 C 
HETATM    4  C9  UNL     1      22.364   4.597  51.979  1.00  0.00     0.055 C 
HETATM    5  C10 UNL     1      21.837   3.243  52.025  1.00  0.00     0.098 C 
HETATM    6  N2  UNL     1      21.394   2.153  52.068  1.00  0.00    -0.192 NA
HETATM    7  C11 UNL     1      21.615   5.690  51.321  1.00  0.00     0.177 C 
HETATM    8  N3  UNL     1      22.579   6.589  50.706  1.00  0.00    -0.351 N 
HETATM    9  H12 UNL     1      24.411   6.613  53.363  1.00  0.00     0.161 HD
ENDROOT
BRANCH   8  10
HETATM   10  C12 UNL     1      22.236   7.352  49.542  1.00  0.00     0.033 A 
HETATM   11  C13 UNL     1      22.268   8.734  49.493  1.00  0.00     0.029 A 
HETATM   12  C14 UNL     1      21.939   9.484  48.384  1.00  0.00     0.004 A 
HETATM   13  C15 UNL     1      21.548   8.834  47.234  1.00  0.00     0.019 A 
HETATM   14  C16 UNL     1      21.494   7.459  47.216  1.00  0.00     0.013 A 
HETATM   15 BR1  UNL     1      20.948   6.635  45.608  1.00  0.00    -0.051 Br
HETATM   16  C17 UNL     1      21.836   6.772  48.359  1.00  0.00     0.048 A 
ENDBRANCH   8  10
BRANCH   1  17
HETATM   17  C6  UNL     1      24.944   6.274  50.252  1.00  0.00     0.044 C 
HETATM   18  C5  UNL     1      25.852   5.339  49.878  1.00  0.00     0.013 C 
BRANCH  18  19
HETATM   19  C4  UNL     1      26.622   5.471  48.615  1.00  0.00     0.057 C 
BRANCH  19  20
HETATM   20  C3  UNL     1      27.992   4.897  48.624  1.00  0.00     0.006 C 
BRANCH  20  21
HETATM   21  C2  UNL     1      28.997   5.770  47.948  1.00  0.00    -0.004 C 
HETATM   22  C1  UNL     1      28.693   7.235  48.289  1.00  0.00     0.005 C 
ENDBRANCH  20  21
ENDBRANCH  19  20
ENDBRANCH  18  19
BRANCH  18  23
HETATM   23  N4  UNL     1      26.176   4.170  50.618  1.00  0.00    -0.320 N 
HETATM   24  C18 UNL     1      25.620   2.884  50.678  1.00  0.00     0.300 C 
HETATM   25  O1  UNL     1      24.626   2.627  49.956  1.00  0.00    -0.258 OA
HETATM   26  H20 UNL     1      26.966   4.165  51.322  1.00  0.00     0.169 HD
BRANCH  24  27
HETATM   27  C19 UNL     1      26.051   1.783  51.486  1.00  0.00    -0.004 C 
HETATM   28  C20 UNL     1      26.429   0.870  52.171  1.00  0.00    -0.066 C 
BRANCH  28  29
HETATM   29  C21 UNL     1      26.903  -0.246  52.990  1.00  0.00     0.365 C 
BRANCH  29  30
HETATM   30  N5  UNL     1      28.312  -0.015  53.257  1.00  0.00     0.090 N 
HETATM   31  C22 UNL     1      28.399   0.524  54.610  1.00  0.00     0.310 C 
HETATM   32  C23 UNL     1      29.018  -1.304  53.312  1.00  0.00     0.310 C 
ENDBRANCH  29  30
ENDBRANCH  28  29
ENDBRANCH  24  27
ENDBRANCH  18  23
ENDBRANCH   1  17
TORSDOF 9
ENDMDL
