MODEL 1
REMARK VINA RESULT:      -7.5      0.000      0.000
REMARK  2 active torsions:
REMARK  status: ('A' for Active; 'I' for Inactive)
REMARK    1  A    between atoms: C3_3  and  C4_4 
REMARK    2  A    between atoms: C7_8  and  C8_9 
ROOT
HETATM    1  C8  UNL     1      24.271   1.102  52.655  1.00  0.00     0.036 C 
HETATM    2  C9  UNL     1      24.322  -0.129  53.192  1.00  0.00     0.021 C 
HETATM    3  C10 UNL     1      25.537  -0.892  53.375  1.00  0.00    -0.001 C 
HETATM    4  C11 UNL     1      26.829  -1.025  53.223  1.00  0.00    -0.007 C 
HETATM    5  C12 UNL     1      28.303  -1.344  53.140  1.00  0.00     0.146 C 
HETATM    6  N2  UNL     1      28.890  -0.034  53.518  1.00  0.00    -0.394 N 
HETATM    7  C13 UNL     1      29.437   1.199  53.885  1.00  0.00     0.102 C 
HETATM    8  C14 UNL     1      28.645   2.260  53.634  1.00  0.00     0.133 C 
HETATM    9  N3  UNL     1      27.385   2.343  53.086  1.00  0.00    -0.265 NA
HETATM   10  C15 UNL     1      26.919   2.320  51.920  1.00  0.00     0.267 C 
HETATM   11  S1  UNL     1      25.161   2.475  51.980  1.00  0.00    -0.160 SA
HETATM   12  H13 UNL     1      29.393   0.159  52.593  1.00  0.00     0.159 HD
ENDROOT
BRANCH   1  13
HETATM   13  C7  UNL     1      22.813   1.401  52.689  1.00  0.00     0.165 A 
HETATM   14  N1  UNL     1      22.223   2.502  52.247  1.00  0.00    -0.240 NA
HETATM   15  C6  UNL     1      20.910   2.738  52.170  1.00  0.00     0.121 A 
HETATM   16  C5  UNL     1      20.065   1.752  52.580  1.00  0.00     0.051 A 
HETATM   17  C4  UNL     1      20.598   0.581  53.048  1.00  0.00     0.060 A 
HETATM   18  N4  UNL     1      21.929   0.443  53.094  1.00  0.00    -0.228 NA
BRANCH  17  19
HETATM   19  C3  UNL     1      19.642  -0.481  53.402  1.00  0.00     0.027 C 
HETATM   20  C2  UNL     1      18.487  -0.710  52.764  1.00  0.00    -0.029 C 
HETATM   21  C1  UNL     1      17.631  -1.833  53.259  1.00  0.00     0.036 C 
ENDBRANCH  17  19
ENDBRANCH   1  13
TORSDOF 2
ENDMDL
MODEL 2
REMARK VINA RESULT:      -7.5      4.479      6.708
REMARK  2 active torsions:
REMARK  status: ('A' for Active; 'I' for Inactive)
REMARK    1  A    between atoms: C3_3  and  C4_4 
REMARK    2  A    between atoms: C7_8  and  C8_9 
ROOT
HETATM    1  C8  UNL     1      25.415   4.792  49.962  1.00  0.00     0.036 C 
HETATM    2  C9  UNL     1      26.509   4.170  49.492  1.00  0.00     0.021 C 
HETATM    3  C10 UNL     1      27.575   4.826  48.767  1.00  0.00    -0.001 C 
HETATM    4  C11 UNL     1      28.081   5.898  48.212  1.00  0.00    -0.007 C 
HETATM    5  C12 UNL     1      28.816   7.027  47.531  1.00  0.00     0.146 C 
HETATM    6  N2  UNL     1      28.598   8.125  48.507  1.00  0.00    -0.394 N 
HETATM    7  C13 UNL     1      28.400   9.153  49.434  1.00  0.00     0.102 C 
HETATM    8  C14 UNL     1      27.296   9.015  50.193  1.00  0.00     0.133 C 
HETATM    9  N3  UNL     1      26.330   8.035  50.223  1.00  0.00    -0.265 NA
HETATM   10  C15 UNL     1      25.314   7.766  49.536  1.00  0.00     0.267 C 
HETATM   11  S1  UNL     1      24.535   6.314  50.172  1.00  0.00    -0.160 SA
HETATM   12  H13 UNL     1      28.038   8.770  47.860  1.00  0.00     0.159 HD
ENDROOT
BRANCH   1  13
HETATM   13  C7  UNL     1      24.663   3.673  50.593  1.00  0.00     0.165 A 
HETATM   14  N1  UNL     1      23.367   3.424  50.470  1.00  0.00    -0.240 NA
HETATM   15  C6  UNL     1      22.701   2.365  50.938  1.00  0.00     0.121 A 
HETATM   16  C5  UNL     1      23.410   1.419  51.614  1.00  0.00     0.051 A 
HETATM   17  C4  UNL     1      24.756   1.602  51.781  1.00  0.00     0.060 A 
HETATM   18  N4  UNL     1      25.333   2.702  51.281  1.00  0.00    -0.228 NA
BRANCH  17  19
HETATM   19  C3  UNL     1      25.489   0.513  52.448  1.00  0.00     0.027 C 
HETATM   20  C2  UNL     1      26.666   0.023  52.037  1.00  0.00    -0.029 C 
HETATM   21  C1  UNL     1      27.272  -1.089  52.834  1.00  0.00     0.036 C 
ENDBRANCH  17  19
ENDBRANCH   1  13
TORSDOF 2
ENDMDL
MODEL 3
REMARK VINA RESULT:      -7.4      3.562      5.899
REMARK  2 active torsions:
REMARK  status: ('A' for Active; 'I' for Inactive)
REMARK    1  A    between atoms: C3_3  and  C4_4 
REMARK    2  A    between atoms: C7_8  and  C8_9 
ROOT
HETATM    1  C8  UNL     1      25.274   2.984  50.910  1.00  0.00     0.036 C 
HETATM    2  C9  UNL     1      26.451   3.169  50.290  1.00  0.00     0.021 C 
HETATM    3  C10 UNL     1      26.771   4.315  49.466  1.00  0.00    -0.001 C 
HETATM    4  C11 UNL     1      26.417   5.437  48.894  1.00  0.00    -0.007 C 
HETATM    5  C12 UNL     1      26.189   6.743  48.170  1.00  0.00     0.146 C 
HETATM    6  N2  UNL     1      25.442   7.503  49.203  1.00  0.00    -0.394 N 
HETATM    7  C13 UNL     1      24.748   8.218  50.183  1.00  0.00     0.102 C 
HETATM    8  C14 UNL     1      24.075   7.452  51.065  1.00  0.00     0.133 C 
HETATM    9  N3  UNL     1      23.957   6.085  51.175  1.00  0.00    -0.265 NA
HETATM   10  C15 UNL     1      23.269   5.203  50.605  1.00  0.00     0.267 C 
HETATM   11  S1  UNL     1      23.662   3.618  51.277  1.00  0.00    -0.160 SA
HETATM   12  H13 UNL     1      24.531   7.617  48.652  1.00  0.00     0.159 HD
ENDROOT
BRANCH   1  13
HETATM   13  C7  UNL     1      25.477   1.673  51.586  1.00  0.00     0.165 A 
HETATM   14  N1  UNL     1      26.613   0.998  51.674  1.00  0.00    -0.240 NA
HETATM   15  C6  UNL     1      26.835  -0.121  52.370  1.00  0.00     0.121 A 
HETATM   16  C5  UNL     1      25.795  -0.642  53.079  1.00  0.00     0.051 A 
HETATM   17  C4  UNL     1      24.587  -0.001  53.041  1.00  0.00     0.060 A 
HETATM   18  N4  UNL     1      24.462   1.112  52.307  1.00  0.00    -0.228 NA
BRANCH  17  19
HETATM   19  C3  UNL     1      23.520  -0.559  53.887  1.00  0.00     0.027 C 
HETATM   20  C2  UNL     1      22.315  -0.941  53.443  1.00  0.00    -0.029 C 
HETATM   21  C1  UNL     1      21.346  -1.487  54.443  1.00  0.00     0.036 C 
ENDBRANCH  17  19
ENDBRANCH   1  13
TORSDOF 2
ENDMDL
MODEL 4
REMARK VINA RESULT:      -7.3      3.518      6.847
REMARK  2 active torsions:
REMARK  status: ('A' for Active; 'I' for Inactive)
REMARK    1  A    between atoms: C3_3  and  C4_4 
REMARK    2  A    between atoms: C7_8  and  C8_9 
ROOT
HETATM    1  C8  UNL     1      24.892   3.135  51.190  1.00  0.00     0.036 C 
HETATM    2  C9  UNL     1      26.107   3.169  50.617  1.00  0.00     0.021 C 
HETATM    3  C10 UNL     1      26.561   4.211  49.722  1.00  0.00    -0.001 C 
HETATM    4  C11 UNL     1      26.332   5.307  49.044  1.00  0.00    -0.007 C 
HETATM    5  C12 UNL     1      26.250   6.561  48.208  1.00  0.00     0.146 C 
HETATM    6  N2  UNL     1      25.527   7.465  49.137  1.00  0.00    -0.394 N 
HETATM    7  C13 UNL     1      24.855   8.316  50.021  1.00  0.00     0.102 C 
HETATM    8  C14 UNL     1      24.081   7.685  50.925  1.00  0.00     0.133 C 
HETATM    9  N3  UNL     1      23.840   6.346  51.139  1.00  0.00    -0.265 NA
HETATM   10  C15 UNL     1      23.103   5.480  50.607  1.00  0.00     0.267 C 
HETATM   11  S1  UNL     1      23.328   3.929  51.423  1.00  0.00    -0.160 SA
HETATM   12  H13 UNL     1      24.654   7.608  48.533  1.00  0.00     0.159 HD
ENDROOT
BRANCH   1  13
HETATM   13  C7  UNL     1      24.951   1.873  51.978  1.00  0.00     0.165 A 
HETATM   14  N1  UNL     1      23.920   1.199  52.465  1.00  0.00    -0.240 NA
HETATM   15  C6  UNL     1      23.949   0.011  53.077  1.00  0.00     0.121 A 
HETATM   16  C5  UNL     1      25.160  -0.596  53.222  1.00  0.00     0.051 A 
HETATM   17  C4  UNL     1      26.274   0.036  52.742  1.00  0.00     0.060 A 
HETATM   18  N4  UNL     1      26.143   1.231  52.150  1.00  0.00    -0.228 NA
BRANCH  17  19
HETATM   19  C3  UNL     1      27.546  -0.698  52.853  1.00  0.00     0.027 C 
HETATM   20  C2  UNL     1      28.587  -0.310  53.601  1.00  0.00    -0.029 C 
HETATM   21  C1  UNL     1      29.806  -1.177  53.596  1.00  0.00     0.036 C 
ENDBRANCH  17  19
ENDBRANCH   1  13
TORSDOF 2
ENDMDL
MODEL 5
REMARK VINA RESULT:      -7.3      2.870      4.515
REMARK  2 active torsions:
REMARK  status: ('A' for Active; 'I' for Inactive)
REMARK    1  A    between atoms: C3_3  and  C4_4 
REMARK    2  A    between atoms: C7_8  and  C8_9 
ROOT
HETATM    1  C8  UNL     1      24.232   2.256  51.468  1.00  0.00     0.036 C 
HETATM    2  C9  UNL     1      25.522   1.938  51.273  1.00  0.00     0.021 C 
HETATM    3  C10 UNL     1      26.451   2.725  50.492  1.00  0.00    -0.001 C 
HETATM    4  C11 UNL     1      26.701   3.749  49.716  1.00  0.00    -0.007 C 
HETATM    5  C12 UNL     1      27.171   4.873  48.824  1.00  0.00     0.146 C 
HETATM    6  N2  UNL     1      26.482   6.029  49.450  1.00  0.00    -0.394 N 
HETATM    7  C13 UNL     1      25.840   7.116  50.051  1.00  0.00     0.102 C 
HETATM    8  C14 UNL     1      24.717   6.800  50.725  1.00  0.00     0.133 C 
HETATM    9  N3  UNL     1      24.092   5.591  50.933  1.00  0.00    -0.265 NA
HETATM   10  C15 UNL     1      23.328   4.857  50.260  1.00  0.00     0.267 C 
HETATM   11  S1  UNL     1      22.920   3.412  51.191  1.00  0.00    -0.160 SA
HETATM   12  H13 UNL     1      25.870   6.291  48.611  1.00  0.00     0.159 HD
ENDROOT
BRANCH   1  13
HETATM   13  C7  UNL     1      23.751   1.126  52.308  1.00  0.00     0.165 A 
HETATM   14  N1  UNL     1      24.469   0.425  53.174  1.00  0.00    -0.240 NA
HETATM   15  C6  UNL     1      24.026  -0.517  54.013  1.00  0.00     0.121 A 
HETATM   16  C5  UNL     1      22.695  -0.801  54.000  1.00  0.00     0.051 A 
HETATM   17  C4  UNL     1      21.885  -0.117  53.134  1.00  0.00     0.060 A 
HETATM   18  N4  UNL     1      22.424   0.804  52.326  1.00  0.00    -0.228 NA
BRANCH  17  19
HETATM   19  C3  UNL     1      20.443  -0.405  53.216  1.00  0.00     0.027 C 
HETATM   20  C2  UNL     1      19.549  -0.095  52.269  1.00  0.00    -0.029 C 
HETATM   21  C1  UNL     1      18.119  -0.459  52.517  1.00  0.00     0.036 C 
ENDBRANCH  17  19
ENDBRANCH   1  13
TORSDOF 2
ENDMDL
MODEL 6
REMARK VINA RESULT:      -7.3      3.724      7.651
REMARK  2 active torsions:
REMARK  status: ('A' for Active; 'I' for Inactive)
REMARK    1  A    between atoms: C3_3  and  C4_4 
REMARK    2  A    between atoms: C7_8  and  C8_9 
ROOT
HETATM    1  C8  UNL     1      25.508   3.292  50.903  1.00  0.00     0.036 C 
HETATM    2  C9  UNL     1      26.525   2.415  50.877  1.00  0.00     0.021 C 
HETATM    3  C10 UNL     1      26.592   1.214  51.681  1.00  0.00    -0.001 C 
HETATM    4  C11 UNL     1      26.091   0.437  52.606  1.00  0.00    -0.007 C 
HETATM    5  C12 UNL     1      25.660  -0.577  53.639  1.00  0.00     0.146 C 
HETATM    6  N2  UNL     1      24.210  -0.677  53.338  1.00  0.00    -0.394 N 
HETATM    7  C13 UNL     1      22.847  -0.776  53.043  1.00  0.00     0.102 C 
HETATM    8  C14 UNL     1      22.320   0.318  52.459  1.00  0.00     0.133 C 
HETATM    9  N3  UNL     1      22.890   1.516  52.094  1.00  0.00    -0.265 NA
HETATM   10  C15 UNL     1      23.205   2.572  52.697  1.00  0.00     0.267 C 
HETATM   11  S1  UNL     1      23.918   3.716  51.556  1.00  0.00    -0.160 SA
HETATM   12  H13 UNL     1      23.852  -0.312  54.279  1.00  0.00     0.159 HD
ENDROOT
BRANCH   1  13
HETATM   13  C7  UNL     1      25.951   4.319  49.921  1.00  0.00     0.165 A 
HETATM   14  N1  UNL     1      25.274   5.394  49.544  1.00  0.00    -0.240 NA
HETATM   15  C6  UNL     1      25.703   6.380  48.750  1.00  0.00     0.121 A 
HETATM   16  C5  UNL     1      26.974   6.296  48.268  1.00  0.00     0.051 A 
HETATM   17  C4  UNL     1      27.739   5.216  48.615  1.00  0.00     0.060 A 
HETATM   18  N4  UNL     1      27.216   4.274  49.411  1.00  0.00    -0.228 NA
BRANCH  17  19
HETATM   19  C3  UNL     1      29.130   5.214  48.133  1.00  0.00     0.027 C 
HETATM   20  C2  UNL     1      29.834   6.313  47.832  1.00  0.00    -0.029 C 
HETATM   21  C1  UNL     1      31.239   6.129  47.353  1.00  0.00     0.036 C 
ENDBRANCH  17  19
ENDBRANCH   1  13
TORSDOF 2
ENDMDL
MODEL 7
REMARK VINA RESULT:      -7.2      1.510      2.479
REMARK  2 active torsions:
REMARK  status: ('A' for Active; 'I' for Inactive)
REMARK    1  A    between atoms: C3_3  and  C4_4 
REMARK    2  A    between atoms: C7_8  and  C8_9 
ROOT
HETATM    1  C8  UNL     1      24.644   1.016  52.498  1.00  0.00     0.036 C 
HETATM    2  C9  UNL     1      25.237   2.113  51.998  1.00  0.00     0.021 C 
HETATM    3  C10 UNL     1      26.583   2.535  52.319  1.00  0.00    -0.001 C 
HETATM    4  C11 UNL     1      27.692   2.379  52.995  1.00  0.00    -0.007 C 
HETATM    5  C12 UNL     1      29.039   2.348  53.677  1.00  0.00     0.146 C 
HETATM    6  N2  UNL     1      29.346   0.897  53.617  1.00  0.00    -0.394 N 
HETATM    7  C13 UNL     1      29.635  -0.469  53.547  1.00  0.00     0.102 C 
HETATM    8  C14 UNL     1      28.552  -1.267  53.473  1.00  0.00     0.133 C 
HETATM    9  N3  UNL     1      27.207  -0.974  53.446  1.00  0.00    -0.265 NA
HETATM   10  C15 UNL     1      26.344  -0.680  54.308  1.00  0.00     0.267 C 
HETATM   11  S1  UNL     1      24.783  -0.422  53.522  1.00  0.00    -0.160 SA
HETATM   12  H13 UNL     1      29.368   0.721  54.673  1.00  0.00     0.159 HD
ENDROOT
BRANCH   1  13
HETATM   13  C7  UNL     1      23.298   1.067  51.865  1.00  0.00     0.165 A 
HETATM   14  N1  UNL     1      23.017   1.494  50.643  1.00  0.00    -0.240 NA
HETATM   15  C6  UNL     1      21.834   1.443  50.023  1.00  0.00     0.121 A 
HETATM   16  C5  UNL     1      20.788   0.892  50.699  1.00  0.00     0.051 A 
HETATM   17  C4  UNL     1      20.999   0.425  51.969  1.00  0.00     0.060 A 
HETATM   18  N4  UNL     1      22.221   0.528  52.507  1.00  0.00    -0.228 NA
BRANCH  17  19
HETATM   19  C3  UNL     1      19.857  -0.233  52.625  1.00  0.00     0.027 C 
HETATM   20  C2  UNL     1      18.623  -0.309  52.110  1.00  0.00    -0.029 C 
HETATM   21  C1  UNL     1      17.577  -1.015  52.914  1.00  0.00     0.036 C 
ENDBRANCH  17  19
ENDBRANCH   1  13
TORSDOF 2
ENDMDL
MODEL 8
REMARK VINA RESULT:      -7.1      3.401      6.933
REMARK  2 active torsions:
REMARK  status: ('A' for Active; 'I' for Inactive)
REMARK    1  A    between atoms: C3_3  and  C4_4 
REMARK    2  A    between atoms: C7_8  and  C8_9 
ROOT
HETATM    1  C8  UNL     1      25.027   2.371  51.147  1.00  0.00     0.036 C 
HETATM    2  C9  UNL     1      23.697   2.420  51.331  1.00  0.00     0.021 C 
HETATM    3  C10 UNL     1      22.936   1.437  52.072  1.00  0.00    -0.001 C 
HETATM    4  C11 UNL     1      22.876   0.313  52.737  1.00  0.00    -0.007 C 
HETATM    5  C12 UNL     1      22.621  -0.946  53.531  1.00  0.00     0.146 C 
HETATM    6  N2  UNL     1      23.786  -0.932  54.451  1.00  0.00    -0.394 N 
HETATM    7  C13 UNL     1      24.879  -0.909  55.322  1.00  0.00     0.102 C 
HETATM    8  C14 UNL     1      25.952  -0.241  54.856  1.00  0.00     0.133 C 
HETATM    9  N3  UNL     1      26.160   0.431  53.672  1.00  0.00    -0.265 NA
HETATM   10  C15 UNL     1      26.452   0.095  52.498  1.00  0.00     0.267 C 
HETATM   11  S1  UNL     1      26.550   1.532  51.476  1.00  0.00    -0.160 SA
HETATM   12  H13 UNL     1      24.238  -1.841  54.108  1.00  0.00     0.159 HD
ENDROOT
BRANCH   1  13
HETATM   13  C7  UNL     1      25.276   3.585  50.323  1.00  0.00     0.165 A 
HETATM   14  N1  UNL     1      24.470   4.628  50.190  1.00  0.00    -0.240 NA
HETATM   15  C6  UNL     1      24.728   5.770  49.545  1.00  0.00     0.121 A 
HETATM   16  C5  UNL     1      25.948   5.902  48.957  1.00  0.00     0.051 A 
HETATM   17  C4  UNL     1      26.841   4.869  49.052  1.00  0.00     0.060 A 
HETATM   18  N4  UNL     1      26.486   3.760  49.714  1.00  0.00    -0.228 NA
BRANCH  17  19
HETATM   19  C3  UNL     1      28.173   5.095  48.468  1.00  0.00     0.027 C 
HETATM   20  C2  UNL     1      28.678   6.297  48.163  1.00  0.00    -0.029 C 
HETATM   21  C1  UNL     1      30.051   6.345  47.573  1.00  0.00     0.036 C 
ENDBRANCH  17  19
ENDBRANCH   1  13
TORSDOF 2
ENDMDL
MODEL 9
REMARK VINA RESULT:      -7.1      2.015      7.344
REMARK  2 active torsions:
REMARK  status: ('A' for Active; 'I' for Inactive)
REMARK    1  A    between atoms: C3_3  and  C4_4 
REMARK    2  A    between atoms: C7_8  and  C8_9 
ROOT
HETATM    1  C8  UNL     1      22.714   0.954  52.922  1.00  0.00     0.036 C 
HETATM    2  C9  UNL     1      22.534  -0.259  53.470  1.00  0.00     0.021 C 
HETATM    3  C10 UNL     1      21.251  -0.914  53.607  1.00  0.00    -0.001 C 
HETATM    4  C11 UNL     1      19.950  -0.902  53.475  1.00  0.00    -0.007 C 
HETATM    5  C12 UNL     1      18.451  -1.067  53.389  1.00  0.00     0.146 C 
HETATM    6  N2  UNL     1      18.188  -0.500  52.043  1.00  0.00    -0.394 N 
HETATM    7  C13 UNL     1      17.948   0.026  50.770  1.00  0.00     0.102 C 
HETATM    8  C14 UNL     1      18.863   0.921  50.352  1.00  0.00     0.133 C 
HETATM    9  N3  UNL     1      20.002   1.405  50.956  1.00  0.00    -0.265 NA
HETATM   10  C15 UNL     1      20.245   2.275  51.828  1.00  0.00     0.267 C 
HETATM   11  S1  UNL     1      21.985   2.354  52.119  1.00  0.00    -0.160 SA
HETATM   12  H13 UNL     1      17.575   0.319  52.360  1.00  0.00     0.159 HD
ENDROOT
BRANCH   1  13
HETATM   13  C7  UNL     1      24.185   1.143  53.048  1.00  0.00     0.165 A 
HETATM   14  N1  UNL     1      24.811   2.262  53.383  1.00  0.00    -0.240 NA
HETATM   15  C6  UNL     1      26.119   2.417  53.608  1.00  0.00     0.121 A 
HETATM   16  C5  UNL     1      26.916   1.319  53.493  1.00  0.00     0.051 A 
HETATM   17  C4  UNL     1      26.344   0.123  53.153  1.00  0.00     0.060 A 
HETATM   18  N4  UNL     1      25.022   0.070  52.940  1.00  0.00    -0.228 NA
BRANCH  17  19
HETATM   19  C3  UNL     1      27.236  -1.047  53.120  1.00  0.00     0.027 C 
HETATM   20  C2  UNL     1      28.561  -1.000  53.304  1.00  0.00    -0.029 C 
HETATM   21  C1  UNL     1      29.318  -2.288  53.236  1.00  0.00     0.036 C 
ENDBRANCH  17  19
ENDBRANCH   1  13
TORSDOF 2
ENDMDL
