MODEL 1
REMARK VINA RESULT:      -8.5      0.000      0.000
REMARK  2 active torsions:
REMARK  status: ('A' for Active; 'I' for Inactive)
REMARK    1  A    between atoms: O1_2  and  C2_3 
REMARK    2  A    between atoms: C16_19  and  O2_20 
ROOT
HETATM    1  C2  UNL     1      27.628   1.163  53.261  1.00  0.00     0.103 A 
HETATM    2  C3  UNL     1      27.202   0.319  54.264  1.00  0.00     0.072 A 
HETATM    3  C4  UNL     1      25.901  -0.071  54.308  1.00  0.00     0.073 A 
HETATM    4  N1  UNL     1      25.529  -0.879  55.297  1.00  0.00    -0.241 NA
HETATM    5  C5  UNL     1      24.260  -1.283  55.388  1.00  0.00     0.234 A 
HETATM    6  N2  UNL     1      23.371  -0.878  54.490  1.00  0.00    -0.241 NA
HETATM    7  C6  UNL     1      23.600  -0.074  53.452  1.00  0.00     0.077 A 
HETATM    8  C7  UNL     1      22.567   0.321  52.526  1.00  0.00    -0.020 C 
HETATM    9  C8  UNL     1      22.259   0.965  51.445  1.00  0.00     0.010 C 
HETATM   10  C9  UNL     1      20.909   1.001  51.002  1.00  0.00     0.004 C 
HETATM   11  C10 UNL     1      20.229   0.309  51.888  1.00  0.00    -0.071 C 
HETATM   12  C11 UNL     1      19.316  -0.466  52.840  1.00  0.00     0.036 C 
HETATM   13  C12 UNL     1      20.389   0.027  53.885  1.00  0.00     0.018 C 
HETATM   14  C13 UNL     1      21.283  -0.307  52.749  1.00  0.00     0.050 C 
HETATM   15  C14 UNL     1      24.919   0.303  53.420  1.00  0.00     0.025 A 
HETATM   16  C15 UNL     1      25.400   1.141  52.445  1.00  0.00     0.055 A 
HETATM   17  C16 UNL     1      26.690   1.578  52.332  1.00  0.00     0.102 A 
ENDROOT
BRANCH  17  18
HETATM   18  O2  UNL     1      27.143   2.422  51.343  1.00  0.00    -0.353 OA
HETATM   19  C17 UNL     1      26.320   3.210  50.536  1.00  0.00     0.210 C 
ENDBRANCH  17  18
BRANCH   1  20
HETATM   20  O1  UNL     1      28.947   1.585  53.179  1.00  0.00    -0.353 OA
HETATM   21  C1  UNL     1      29.619   2.107  54.302  1.00  0.00     0.210 C 
ENDBRANCH   1  20
TORSDOF 2
ENDMDL
MODEL 2
REMARK VINA RESULT:      -8.2      2.699      6.172
REMARK  2 active torsions:
REMARK  status: ('A' for Active; 'I' for Inactive)
REMARK    1  A    between atoms: O1_2  and  C2_3 
REMARK    2  A    between atoms: C16_19  and  O2_20 
ROOT
HETATM    1  C2  UNL     1      19.995  -0.417  52.941  1.00  0.00     0.103 A 
HETATM    2  C3  UNL     1      20.531  -1.068  54.032  1.00  0.00     0.072 A 
HETATM    3  C4  UNL     1      21.864  -0.984  54.277  1.00  0.00     0.073 A 
HETATM    4  N1  UNL     1      22.343  -1.634  55.334  1.00  0.00    -0.241 NA
HETATM    5  C5  UNL     1      23.648  -1.589  55.613  1.00  0.00     0.234 A 
HETATM    6  N2  UNL     1      24.466  -0.895  54.832  1.00  0.00    -0.241 NA
HETATM    7  C6  UNL     1      24.129  -0.199  53.747  1.00  0.00     0.077 A 
HETATM    8  C7  UNL     1      25.092   0.523  52.951  1.00  0.00    -0.020 C 
HETATM    9  C8  UNL     1      25.304   1.310  51.944  1.00  0.00     0.010 C 
HETATM   10  C9  UNL     1      26.631   1.702  51.619  1.00  0.00     0.004 C 
HETATM   11  C10 UNL     1      27.401   1.106  52.501  1.00  0.00    -0.071 C 
HETATM   12  C11 UNL     1      28.412   0.475  53.460  1.00  0.00     0.036 C 
HETATM   13  C12 UNL     1      27.325  -0.667  53.473  1.00  0.00     0.018 C 
HETATM   14  C13 UNL     1      26.437   0.521  53.482  1.00  0.00     0.050 C 
HETATM   15  C14 UNL     1      22.780  -0.289  53.520  1.00  0.00     0.025 A 
HETATM   16  C15 UNL     1      22.190   0.337  52.449  1.00  0.00     0.055 A 
HETATM   17  C16 UNL     1      20.861   0.302  52.136  1.00  0.00     0.102 A 
ENDROOT
BRANCH  17  18
HETATM   18  O2  UNL     1      20.298   0.940  51.053  1.00  0.00    -0.353 OA
HETATM   19  C17 UNL     1      20.869   0.990  49.779  1.00  0.00     0.210 C 
ENDBRANCH  17  18
BRANCH   1  20
HETATM   20  O1  UNL     1      18.639  -0.476  52.655  1.00  0.00    -0.353 OA
HETATM   21  C1  UNL     1      17.789  -1.380  53.323  1.00  0.00     0.210 C 
ENDBRANCH   1  20
TORSDOF 2
ENDMDL
MODEL 3
REMARK VINA RESULT:      -8.0      2.902      5.975
REMARK  2 active torsions:
REMARK  status: ('A' for Active; 'I' for Inactive)
REMARK    1  A    between atoms: O1_2  and  C2_3 
REMARK    2  A    between atoms: C16_19  and  O2_20 
ROOT
HETATM    1  C2  UNL     1      23.225  -0.262  53.025  1.00  0.00     0.103 A 
HETATM    2  C3  UNL     1      24.581  -0.199  53.266  1.00  0.00     0.072 A 
HETATM    3  C4  UNL     1      25.327   0.766  52.667  1.00  0.00     0.073 A 
HETATM    4  N1  UNL     1      26.632   0.787  52.919  1.00  0.00    -0.241 NA
HETATM    5  C5  UNL     1      27.409   1.711  52.348  1.00  0.00     0.234 A 
HETATM    6  N2  UNL     1      26.874   2.609  51.531  1.00  0.00    -0.241 NA
HETATM    7  C6  UNL     1      25.590   2.709  51.189  1.00  0.00     0.077 A 
HETATM    8  C7  UNL     1      25.097   3.718  50.283  1.00  0.00    -0.020 C 
HETATM    9  C8  UNL     1      24.073   4.253  49.700  1.00  0.00     0.010 C 
HETATM   10  C9  UNL     1      24.256   5.338  48.800  1.00  0.00     0.004 C 
HETATM   11  C10 UNL     1      25.552   5.554  48.768  1.00  0.00    -0.071 C 
HETATM   12  C11 UNL     1      27.033   5.913  48.633  1.00  0.00     0.036 C 
HETATM   13  C12 UNL     1      27.185   4.367  48.906  1.00  0.00     0.018 C 
HETATM   14  C13 UNL     1      26.089   4.680  49.855  1.00  0.00     0.050 C 
HETATM   15  C14 UNL     1      24.853   1.732  51.808  1.00  0.00     0.025 A 
HETATM   16  C15 UNL     1      23.500   1.620  51.606  1.00  0.00     0.055 A 
HETATM   17  C16 UNL     1      22.682   0.680  52.169  1.00  0.00     0.102 A 
ENDROOT
BRANCH  17  18
HETATM   18  O2  UNL     1      21.327   0.593  51.947  1.00  0.00    -0.353 OA
HETATM   19  C17 UNL     1      20.370   1.403  52.562  1.00  0.00     0.210 C 
ENDBRANCH  17  18
BRANCH   1  20
HETATM   20  O1  UNL     1      22.428  -1.231  53.616  1.00  0.00    -0.353 OA
HETATM   21  C1  UNL     1      22.173  -1.225  55.001  1.00  0.00     0.210 C 
ENDBRANCH   1  20
TORSDOF 2
ENDMDL
MODEL 4
REMARK VINA RESULT:      -7.9      2.361      3.810
REMARK  2 active torsions:
REMARK  status: ('A' for Active; 'I' for Inactive)
REMARK    1  A    between atoms: O1_2  and  C2_3 
REMARK    2  A    between atoms: C16_19  and  O2_20 
ROOT
HETATM    1  C2  UNL     1      27.270   0.577  53.812  1.00  0.00     0.103 A 
HETATM    2  C3  UNL     1      27.522   1.516  52.835  1.00  0.00     0.072 A 
HETATM    3  C4  UNL     1      26.525   1.897  51.993  1.00  0.00     0.073 A 
HETATM    4  N1  UNL     1      26.812   2.799  51.060  1.00  0.00    -0.241 NA
HETATM    5  C5  UNL     1      25.869   3.199  50.204  1.00  0.00     0.234 A 
HETATM    6  N2  UNL     1      24.644   2.695  50.288  1.00  0.00    -0.241 NA
HETATM    7  C6  UNL     1      24.216   1.790  51.168  1.00  0.00     0.077 A 
HETATM    8  C7  UNL     1      22.862   1.291  51.180  1.00  0.00    -0.020 C 
HETATM    9  C8  UNL     1      21.983   0.536  51.759  1.00  0.00     0.010 C 
HETATM   10  C9  UNL     1      20.669   0.443  51.226  1.00  0.00     0.004 C 
HETATM   11  C10 UNL     1      20.663   1.216  50.165  1.00  0.00    -0.071 C 
HETATM   12  C11 UNL     1      20.515   2.077  48.909  1.00  0.00     0.036 C 
HETATM   13  C12 UNL     1      22.041   1.705  48.765  1.00  0.00     0.018 C 
HETATM   14  C13 UNL     1      21.975   1.928  50.231  1.00  0.00     0.050 C 
HETATM   15  C14 UNL     1      25.233   1.424  52.012  1.00  0.00     0.025 A 
HETATM   16  C15 UNL     1      25.041   0.493  53.003  1.00  0.00     0.055 A 
HETATM   17  C16 UNL     1      25.989   0.059  53.886  1.00  0.00     0.102 A 
ENDROOT
BRANCH  17  18
HETATM   18  O2  UNL     1      25.766  -0.878  54.870  1.00  0.00    -0.353 OA
HETATM   19  C17 UNL     1      24.507  -1.213  55.373  1.00  0.00     0.210 C 
ENDBRANCH  17  18
BRANCH   1  20
HETATM   20  O1  UNL     1      28.259   0.161  54.690  1.00  0.00    -0.353 OA
HETATM   21  C1  UNL     1      29.416  -0.498  54.230  1.00  0.00     0.210 C 
ENDBRANCH   1  20
TORSDOF 2
ENDMDL
MODEL 5
REMARK VINA RESULT:      -7.9      2.842      6.019
REMARK  2 active torsions:
REMARK  status: ('A' for Active; 'I' for Inactive)
REMARK    1  A    between atoms: O1_2  and  C2_3 
REMARK    2  A    between atoms: C16_19  and  O2_20 
ROOT
HETATM    1  C2  UNL     1      20.455   2.860  52.383  1.00  0.00     0.103 A 
HETATM    2  C3  UNL     1      20.361   1.539  52.767  1.00  0.00     0.072 A 
HETATM    3  C4  UNL     1      21.493   0.816  52.972  1.00  0.00     0.073 A 
HETATM    4  N1  UNL     1      21.358  -0.457  53.334  1.00  0.00    -0.241 NA
HETATM    5  C5  UNL     1      22.440  -1.212  53.539  1.00  0.00     0.234 A 
HETATM    6  N2  UNL     1      23.650  -0.688  53.383  1.00  0.00    -0.241 NA
HETATM    7  C6  UNL     1      23.934   0.564  53.027  1.00  0.00     0.077 A 
HETATM    8  C7  UNL     1      25.285   1.046  52.874  1.00  0.00    -0.020 C 
HETATM    9  C8  UNL     1      26.063   2.051  52.624  1.00  0.00     0.010 C 
HETATM   10  C9  UNL     1      27.472   1.867  52.601  1.00  0.00     0.004 C 
HETATM   11  C10 UNL     1      27.666   0.594  52.857  1.00  0.00    -0.071 C 
HETATM   12  C11 UNL     1      28.036  -0.863  53.141  1.00  0.00     0.036 C 
HETATM   13  C12 UNL     1      26.649  -1.104  52.431  1.00  0.00     0.018 C 
HETATM   14  C13 UNL     1      26.311   0.094  53.240  1.00  0.00     0.050 C 
HETATM   15  C14 UNL     1      22.781   1.280  52.832  1.00  0.00     0.025 A 
HETATM   16  C15 UNL     1      22.813   2.598  52.449  1.00  0.00     0.055 A 
HETATM   17  C16 UNL     1      21.723   3.392  52.223  1.00  0.00     0.102 A 
ENDROOT
BRANCH  17  18
HETATM   18  O2  UNL     1      21.786   4.712  51.838  1.00  0.00    -0.353 OA
HETATM   19  C17 UNL     1      22.962   5.376  51.479  1.00  0.00     0.210 C 
ENDBRANCH  17  18
BRANCH   1  20
HETATM   20  O1  UNL     1      19.325   3.634  52.163  1.00  0.00    -0.353 OA
HETATM   21  C1  UNL     1      18.209   3.120  51.474  1.00  0.00     0.210 C 
ENDBRANCH   1  20
TORSDOF 2
ENDMDL
MODEL 6
REMARK VINA RESULT:      -7.8      2.311      3.549
REMARK  2 active torsions:
REMARK  status: ('A' for Active; 'I' for Inactive)
REMARK    1  A    between atoms: O1_2  and  C2_3 
REMARK    2  A    between atoms: C16_19  and  O2_20 
ROOT
HETATM    1  C2  UNL     1      25.770   3.937  50.067  1.00  0.00     0.103 A 
HETATM    2  C3  UNL     1      26.590   2.996  50.654  1.00  0.00     0.072 A 
HETATM    3  C4  UNL     1      26.042   1.982  51.374  1.00  0.00     0.073 A 
HETATM    4  N1  UNL     1      26.868   1.101  51.931  1.00  0.00    -0.241 NA
HETATM    5  C5  UNL     1      26.379   0.091  52.655  1.00  0.00     0.234 A 
HETATM    6  N2  UNL     1      25.068  -0.030  52.817  1.00  0.00    -0.241 NA
HETATM    7  C6  UNL     1      24.127   0.773  52.321  1.00  0.00     0.077 A 
HETATM    8  C7  UNL     1      22.719   0.567  52.556  1.00  0.00    -0.020 C 
HETATM    9  C8  UNL     1      21.505   0.952  52.318  1.00  0.00     0.010 C 
HETATM   10  C9  UNL     1      20.414   0.274  52.927  1.00  0.00     0.004 C 
HETATM   11  C10 UNL     1      20.953  -0.670  53.664  1.00  0.00    -0.071 C 
HETATM   12  C11 UNL     1      21.444  -1.807  54.563  1.00  0.00     0.036 C 
HETATM   13  C12 UNL     1      22.664  -0.823  54.734  1.00  0.00     0.018 C 
HETATM   14  C13 UNL     1      22.399  -0.641  53.285  1.00  0.00     0.050 C 
HETATM   15  C14 UNL     1      24.698   1.784  51.592  1.00  0.00     0.025 A 
HETATM   16  C15 UNL     1      23.932   2.749  50.985  1.00  0.00     0.055 A 
HETATM   17  C16 UNL     1      24.405   3.797  50.246  1.00  0.00     0.102 A 
ENDROOT
BRANCH  17  18
HETATM   18  O2  UNL     1      23.612   4.751  49.651  1.00  0.00    -0.353 OA
HETATM   19  C17 UNL     1      22.959   4.587  48.426  1.00  0.00     0.210 C 
ENDBRANCH  17  18
BRANCH   1  20
HETATM   20  O1  UNL     1      26.288   4.987  49.324  1.00  0.00    -0.353 OA
HETATM   21  C1  UNL     1      27.556   4.898  48.716  1.00  0.00     0.210 C 
ENDBRANCH   1  20
TORSDOF 2
ENDMDL
MODEL 7
REMARK VINA RESULT:      -7.3      2.179      3.625
REMARK  2 active torsions:
REMARK  status: ('A' for Active; 'I' for Inactive)
REMARK    1  A    between atoms: O1_2  and  C2_3 
REMARK    2  A    between atoms: C16_19  and  O2_20 
ROOT
HETATM    1  C2  UNL     1      26.184   0.289  53.459  1.00  0.00     0.103 A 
HETATM    2  C3  UNL     1      25.967   1.176  52.426  1.00  0.00     0.072 A 
HETATM    3  C4  UNL     1      24.704   1.379  51.967  1.00  0.00     0.073 A 
HETATM    4  N1  UNL     1      24.539   2.237  50.964  1.00  0.00    -0.241 NA
HETATM    5  C5  UNL     1      23.319   2.464  50.473  1.00  0.00     0.234 A 
HETATM    6  N2  UNL     1      22.272   1.833  50.988  1.00  0.00    -0.241 NA
HETATM    7  C6  UNL     1      22.286   0.954  51.989  1.00  0.00     0.077 A 
HETATM    8  C7  UNL     1      21.094   0.309  52.482  1.00  0.00    -0.020 C 
HETATM    9  C8  UNL     1      20.568  -0.495  53.350  1.00  0.00     0.010 C 
HETATM   10  C9  UNL     1      19.175  -0.775  53.305  1.00  0.00     0.004 C 
HETATM   11  C10 UNL     1      18.711  -0.087  52.286  1.00  0.00    -0.071 C 
HETATM   12  C11 UNL     1      18.037   0.657  51.132  1.00  0.00     0.036 C 
HETATM   13  C12 UNL     1      19.460   0.449  50.485  1.00  0.00     0.018 C 
HETATM   14  C13 UNL     1      19.864   0.770  51.876  1.00  0.00     0.050 C 
HETATM   15  C14 UNL     1      23.567   0.767  52.443  1.00  0.00     0.025 A 
HETATM   16  C15 UNL     1      23.843  -0.104  53.468  1.00  0.00     0.055 A 
HETATM   17  C16 UNL     1      25.082  -0.363  53.985  1.00  0.00     0.102 A 
ENDROOT
BRANCH  17  18
HETATM   18  O2  UNL     1      25.328  -1.244  55.013  1.00  0.00    -0.353 OA
HETATM   19  C17 UNL     1      24.888  -1.069  56.328  1.00  0.00     0.210 C 
ENDBRANCH  17  18
BRANCH   1  20
HETATM   20  O1  UNL     1      27.456   0.052  53.956  1.00  0.00    -0.353 OA
HETATM   21  C1  UNL     1      28.395  -0.709  53.232  1.00  0.00     0.210 C 
ENDBRANCH   1  20
TORSDOF 2
ENDMDL
MODEL 8
REMARK VINA RESULT:      -7.3      3.352      5.758
REMARK  2 active torsions:
REMARK  status: ('A' for Active; 'I' for Inactive)
REMARK    1  A    between atoms: O1_2  and  C2_3 
REMARK    2  A    between atoms: C16_19  and  O2_20 
ROOT
HETATM    1  C2  UNL     1      26.250   5.970  48.776  1.00  0.00     0.103 A 
HETATM    2  C3  UNL     1      25.083   6.174  49.482  1.00  0.00     0.072 A 
HETATM    3  C4  UNL     1      24.664   5.238  50.374  1.00  0.00     0.073 A 
HETATM    4  N1  UNL     1      23.530   5.469  51.027  1.00  0.00    -0.241 NA
HETATM    5  C5  UNL     1      23.072   4.576  51.908  1.00  0.00     0.234 A 
HETATM    6  N2  UNL     1      23.753   3.459  52.130  1.00  0.00    -0.241 NA
HETATM    7  C6  UNL     1      24.898   3.097  51.552  1.00  0.00     0.077 A 
HETATM    8  C7  UNL     1      25.566   1.855  51.851  1.00  0.00    -0.020 C 
HETATM    9  C8  UNL     1      26.597   1.095  51.654  1.00  0.00     0.010 C 
HETATM   10  C9  UNL     1      26.681  -0.168  52.300  1.00  0.00     0.004 C 
HETATM   11  C10 UNL     1      25.579  -0.276  53.007  1.00  0.00    -0.071 C 
HETATM   12  C11 UNL     1      24.344  -0.535  53.872  1.00  0.00     0.036 C 
HETATM   13  C12 UNL     1      23.670   0.347  52.752  1.00  0.00     0.018 C 
HETATM   14  C13 UNL     1      24.953   1.077  52.906  1.00  0.00     0.050 C 
HETATM   15  C14 UNL     1      25.308   4.056  50.661  1.00  0.00     0.025 A 
HETATM   16  C15 UNL     1      26.461   3.908  49.931  1.00  0.00     0.055 A 
HETATM   17  C16 UNL     1      26.948   4.800  49.017  1.00  0.00     0.102 A 
ENDROOT
BRANCH  17  18
HETATM   18  O2  UNL     1      28.108   4.623  48.297  1.00  0.00    -0.353 OA
HETATM   19  C17 UNL     1      29.250   5.416  48.429  1.00  0.00     0.210 C 
ENDBRANCH  17  18
BRANCH   1  20
HETATM   20  O1  UNL     1      26.713   6.899  47.856  1.00  0.00    -0.353 OA
HETATM   21  C1  UNL     1      26.277   8.239  47.886  1.00  0.00     0.210 C 
ENDBRANCH   1  20
TORSDOF 2
ENDMDL
MODEL 9
REMARK VINA RESULT:      -7.1      3.201      4.533
REMARK  2 active torsions:
REMARK  status: ('A' for Active; 'I' for Inactive)
REMARK    1  A    between atoms: O1_2  and  C2_3 
REMARK    2  A    between atoms: C16_19  and  O2_20 
ROOT
HETATM    1  C2  UNL     1      26.343  -0.050  53.012  1.00  0.00     0.103 A 
HETATM    2  C3  UNL     1      26.946   0.862  52.172  1.00  0.00     0.072 A 
HETATM    3  C4  UNL     1      26.211   1.873  51.638  1.00  0.00     0.073 A 
HETATM    4  N1  UNL     1      26.828   2.726  50.826  1.00  0.00    -0.241 NA
HETATM    5  C5  UNL     1      26.147   3.731  50.269  1.00  0.00     0.234 A 
HETATM    6  N2  UNL     1      24.854   3.876  50.529  1.00  0.00    -0.241 NA
HETATM    7  C6  UNL     1      24.110   3.102  51.319  1.00  0.00     0.077 A 
HETATM    8  C7  UNL     1      22.703   3.332  51.538  1.00  0.00    -0.020 C 
HETATM    9  C8  UNL     1      21.623   2.976  52.158  1.00  0.00     0.010 C 
HETATM   10  C9  UNL     1      20.404   3.664  51.911  1.00  0.00     0.004 C 
HETATM   11  C10 UNL     1      20.693   4.583  51.017  1.00  0.00    -0.071 C 
HETATM   12  C11 UNL     1      20.887   5.692  49.981  1.00  0.00     0.036 C 
HETATM   13  C12 UNL     1      21.977   4.681  49.456  1.00  0.00     0.018 C 
HETATM   14  C13 UNL     1      22.183   4.532  50.918  1.00  0.00     0.050 C 
HETATM   15  C14 UNL     1      24.870   2.093  51.854  1.00  0.00     0.025 A 
HETATM   16  C15 UNL     1      24.324   1.156  52.695  1.00  0.00     0.055 A 
HETATM   17  C16 UNL     1      24.993   0.113  53.272  1.00  0.00     0.102 A 
ENDROOT
BRANCH  17  18
HETATM   18  O2  UNL     1      24.418  -0.813  54.112  1.00  0.00    -0.353 OA
HETATM   19  C17 UNL     1      23.052  -0.886  54.392  1.00  0.00     0.210 C 
ENDBRANCH  17  18
BRANCH   1  20
HETATM   20  O1  UNL     1      27.056  -1.096  53.578  1.00  0.00    -0.353 OA
HETATM   21  C1  UNL     1      28.436  -1.252  53.343  1.00  0.00     0.210 C 
ENDBRANCH   1  20
TORSDOF 2
ENDMDL
