MODEL 1
REMARK VINA RESULT:      -7.0      0.000      0.000
REMARK  6 active torsions:
REMARK  status: ('A' for Active; 'I' for Inactive)
REMARK    1  A    between atoms: C1_2  and  C2_3 
REMARK       I    between atoms: C1_2  and  N1_5 
REMARK    2  A    between atoms: N1_5  and  C3_6 
REMARK    3  A    between atoms: C4_7  and  C5_8 
REMARK    4  A    between atoms: N2_12  and  C9_13 
REMARK    5  A    between atoms: C12_16  and  C13_17 
REMARK    6  A    between atoms: C13_17  and  P1_18 
ROOT
HETATM    1  C5  UNL     1      23.089   0.174  53.113  1.00  0.00     0.040 A 
HETATM    2  C6  UNL     1      22.714  -0.628  54.096  1.00  0.00     0.057 A 
HETATM    3  C7  UNL     1      21.973  -1.490  55.020  1.00  0.00     0.046 A 
HETATM    4  C8  UNL     1      21.318  -0.942  53.985  1.00  0.00     0.103 A 
HETATM    5  N2  UNL     1      20.816  -0.259  52.819  1.00  0.00    -0.278 N 
HETATM    6  N3  UNL     1      21.925   0.408  52.319  1.00  0.00    -0.300 N 
HETATM    7  H13 UNL     1      21.930   1.013  51.465  1.00  0.00     0.187 HD
ENDROOT
BRANCH   5   8
HETATM    8  C9  UNL     1      19.493  -0.258  52.292  1.00  0.00     0.052 A 
HETATM    9  C10 UNL     1      19.197   0.368  51.081  1.00  0.00     0.032 A 
HETATM   10  C11 UNL     1      17.902   0.343  50.610  1.00  0.00     0.014 A 
HETATM   11  C12 UNL     1      16.943  -0.305  51.361  1.00  0.00    -0.035 A 
HETATM   12  C14 UNL     1      17.203  -0.936  52.565  1.00  0.00     0.014 A 
HETATM   13  C15 UNL     1      18.509  -0.895  53.010  1.00  0.00     0.032 A 
BRANCH  11  14
HETATM   14  C13 UNL     1      15.598  -0.313  50.839  1.00  0.00     0.020 C 
BRANCH  14  15
HETATM   15  P1  UNL     1      14.678  -1.685  50.709  1.00  0.00    -0.075 P 
HETATM   16  H10 UNL     1      13.737  -1.752  49.593  1.00  0.00     0.066 HD
ENDBRANCH  14  15
ENDBRANCH  11  14
ENDBRANCH   5   8
BRANCH   1  17
HETATM   17  C4  UNL     1      24.418   0.722  52.866  1.00  0.00     0.044 C 
HETATM   18  C3  UNL     1      25.457  -0.056  52.973  1.00  0.00     0.093 C 
BRANCH  18  19
HETATM   19  N1  UNL     1      26.775   0.425  52.744  1.00  0.00    -0.336 N 
HETATM   20  C1  UNL     1      27.681   0.205  53.835  1.00  0.00     0.235 C 
HETATM   21  O1  UNL     1      27.275  -0.378  54.887  1.00  0.00    -0.272 OA
HETATM   22  H3  UNL     1      27.303   0.920  51.969  1.00  0.00     0.168 HD
BRANCH  20  23
HETATM   23  C2  UNL     1      29.118   0.546  54.001  1.00  0.00     0.217 C 
HETATM   24 CL1  UNL     1      30.189  -0.816  53.636  1.00  0.00    -0.121 Cl
ENDBRANCH  20  23
ENDBRANCH  18  19
ENDBRANCH   1  17
TORSDOF 6
ENDMDL
MODEL 2
REMARK VINA RESULT:      -6.9      1.353      1.811
REMARK  6 active torsions:
REMARK  status: ('A' for Active; 'I' for Inactive)
REMARK    1  A    between atoms: C1_2  and  C2_3 
REMARK       I    between atoms: C1_2  and  N1_5 
REMARK    2  A    between atoms: N1_5  and  C3_6 
REMARK    3  A    between atoms: C4_7  and  C5_8 
REMARK    4  A    between atoms: N2_12  and  C9_13 
REMARK    5  A    between atoms: C12_16  and  C13_17 
REMARK    6  A    between atoms: C13_17  and  P1_18 
ROOT
HETATM    1  C5  UNL     1      23.257   0.631  52.568  1.00  0.00     0.040 A 
HETATM    2  C6  UNL     1      22.802   1.865  52.416  1.00  0.00     0.057 A 
HETATM    3  C7  UNL     1      21.976   3.060  52.236  1.00  0.00     0.046 A 
HETATM    4  C8  UNL     1      21.372   1.863  52.293  1.00  0.00     0.103 A 
HETATM    5  N2  UNL     1      20.936   0.491  52.382  1.00  0.00    -0.278 N 
HETATM    6  N3  UNL     1      22.113  -0.223  52.548  1.00  0.00    -0.300 N 
HETATM    7  H13 UNL     1      22.177  -1.263  52.650  1.00  0.00     0.187 HD
ENDROOT
BRANCH   5   8
HETATM    8  C9  UNL     1      19.611  -0.024  52.315  1.00  0.00     0.052 A 
HETATM    9  C10 UNL     1      18.776   0.261  51.235  1.00  0.00     0.032 A 
HETATM   10  C11 UNL     1      17.501  -0.260  51.214  1.00  0.00     0.014 A 
HETATM   11  C12 UNL     1      17.097  -1.049  52.271  1.00  0.00    -0.035 A 
HETATM   12  C14 UNL     1      17.899  -1.352  53.358  1.00  0.00     0.014 A 
HETATM   13  C15 UNL     1      19.171  -0.816  53.350  1.00  0.00     0.032 A 
BRANCH  11  14
HETATM   14  C13 UNL     1      15.756  -1.579  52.218  1.00  0.00     0.020 C 
BRANCH  14  15
HETATM   15  P1  UNL     1      14.622  -1.083  51.115  1.00  0.00    -0.075 P 
HETATM   16  H10 UNL     1      14.299  -2.010  50.032  1.00  0.00     0.066 HD
ENDBRANCH  14  15
ENDBRANCH  11  14
ENDBRANCH   5   8
BRANCH   1  17
HETATM   17  C4  UNL     1      24.643   0.204  52.727  1.00  0.00     0.044 C 
HETATM   18  C3  UNL     1      25.007  -0.374  53.837  1.00  0.00     0.093 C 
BRANCH  18  19
HETATM   19  N1  UNL     1      26.343  -0.810  54.045  1.00  0.00    -0.336 N 
HETATM   20  C1  UNL     1      27.220   0.202  54.561  1.00  0.00     0.235 C 
HETATM   21  O1  UNL     1      26.775   1.369  54.790  1.00  0.00    -0.272 OA
HETATM   22  H3  UNL     1      26.902  -1.703  53.925  1.00  0.00     0.168 HD
BRANCH  20  23
HETATM   23  C2  UNL     1      28.664   0.163  54.912  1.00  0.00     0.217 C 
HETATM   24 CL1  UNL     1      29.627  -0.748  53.739  1.00  0.00    -0.121 Cl
ENDBRANCH  20  23
ENDBRANCH  18  19
ENDBRANCH   1  17
TORSDOF 6
ENDMDL
MODEL 3
REMARK VINA RESULT:      -6.9      4.046      5.023
REMARK  6 active torsions:
REMARK  status: ('A' for Active; 'I' for Inactive)
REMARK    1  A    between atoms: C1_2  and  C2_3 
REMARK       I    between atoms: C1_2  and  N1_5 
REMARK    2  A    between atoms: N1_5  and  C3_6 
REMARK    3  A    between atoms: C4_7  and  C5_8 
REMARK    4  A    between atoms: N2_12  and  C9_13 
REMARK    5  A    between atoms: C12_16  and  C13_17 
REMARK    6  A    between atoms: C13_17  and  P1_18 
ROOT
HETATM    1  C5  UNL     1      25.950   1.538  51.913  1.00  0.00     0.040 A 
HETATM    2  C6  UNL     1      26.383   0.425  52.483  1.00  0.00     0.057 A 
HETATM    3  C7  UNL     1      26.504  -0.869  53.159  1.00  0.00     0.046 A 
HETATM    4  C8  UNL     1      25.278  -0.369  52.941  1.00  0.00     0.103 A 
HETATM    5  N2  UNL     1      24.070   0.346  52.608  1.00  0.00    -0.278 N 
HETATM    6  N3  UNL     1      24.525   1.499  51.986  1.00  0.00    -0.300 N 
HETATM    7  H13 UNL     1      23.914   2.260  51.607  1.00  0.00     0.187 HD
ENDROOT
BRANCH   5   8
HETATM    8  C9  UNL     1      22.720  -0.032  52.855  1.00  0.00     0.052 A 
HETATM    9  C10 UNL     1      21.691   0.360  52.000  1.00  0.00     0.032 A 
HETATM   10  C11 UNL     1      20.399  -0.029  52.279  1.00  0.00     0.014 A 
HETATM   11  C12 UNL     1      20.173  -0.796  53.403  1.00  0.00    -0.035 A 
HETATM   12  C14 UNL     1      21.170  -1.202  54.272  1.00  0.00     0.014 A 
HETATM   13  C15 UNL     1      22.454  -0.797  53.966  1.00  0.00     0.032 A 
BRANCH  11  14
HETATM   14  C13 UNL     1      18.809  -1.186  53.667  1.00  0.00     0.020 C 
BRANCH  14  15
HETATM   15  P1  UNL     1      17.556  -0.882  52.625  1.00  0.00    -0.075 P 
HETATM   16  H10 UNL     1      17.546  -1.620  51.364  1.00  0.00     0.066 HD
ENDBRANCH  14  15
ENDBRANCH  11  14
ENDBRANCH   5   8
BRANCH   1  17
HETATM   17  C4  UNL     1      26.748   2.607  51.322  1.00  0.00     0.044 C 
HETATM   18  C3  UNL     1      26.431   3.059  50.142  1.00  0.00     0.093 C 
BRANCH  18  19
HETATM   19  N1  UNL     1      27.173   4.099  49.519  1.00  0.00    -0.336 N 
HETATM   20  C1  UNL     1      26.382   5.223  49.107  1.00  0.00     0.235 C 
HETATM   21  O1  UNL     1      25.129   5.225  49.313  1.00  0.00    -0.272 OA
HETATM   22  H3  UNL     1      28.183   4.291  49.258  1.00  0.00     0.168 HD
BRANCH  20  23
HETATM   23  C2  UNL     1      26.758   6.493  48.432  1.00  0.00     0.217 C 
HETATM   24 CL1  UNL     1      28.444   6.506  47.895  1.00  0.00    -0.121 Cl
ENDBRANCH  20  23
ENDBRANCH  18  19
ENDBRANCH   1  17
TORSDOF 6
ENDMDL
MODEL 4
REMARK VINA RESULT:      -6.8      5.311      8.106
REMARK  6 active torsions:
REMARK  status: ('A' for Active; 'I' for Inactive)
REMARK    1  A    between atoms: C1_2  and  C2_3 
REMARK       I    between atoms: C1_2  and  N1_5 
REMARK    2  A    between atoms: N1_5  and  C3_6 
REMARK    3  A    between atoms: C4_7  and  C5_8 
REMARK    4  A    between atoms: N2_12  and  C9_13 
REMARK    5  A    between atoms: C12_16  and  C13_17 
REMARK    6  A    between atoms: C13_17  and  P1_18 
ROOT
HETATM    1  C5  UNL     1      23.613  -0.163  53.294  1.00  0.00     0.040 A 
HETATM    2  C6  UNL     1      24.895  -0.439  53.474  1.00  0.00     0.057 A 
HETATM    3  C7  UNL     1      26.358  -0.456  53.453  1.00  0.00     0.046 A 
HETATM    4  C8  UNL     1      25.716   0.488  52.749  1.00  0.00     0.103 A 
HETATM    5  N2  UNL     1      24.833   1.405  52.072  1.00  0.00    -0.278 N 
HETATM    6  N3  UNL     1      23.564   0.973  52.430  1.00  0.00    -0.300 N 
HETATM    7  H13 UNL     1      22.667   1.413  52.117  1.00  0.00     0.187 HD
ENDROOT
BRANCH   5   8
HETATM    8  C9  UNL     1      25.169   2.502  51.229  1.00  0.00     0.052 A 
HETATM    9  C10 UNL     1      26.409   2.575  50.596  1.00  0.00     0.032 A 
HETATM   10  C11 UNL     1      26.691   3.656  49.789  1.00  0.00     0.014 A 
HETATM   11  C12 UNL     1      25.727   4.632  49.639  1.00  0.00    -0.035 A 
HETATM   12  C14 UNL     1      24.487   4.590  50.252  1.00  0.00     0.014 A 
HETATM   13  C15 UNL     1      24.234   3.495  51.053  1.00  0.00     0.032 A 
BRANCH  11  14
HETATM   14  C13 UNL     1      26.054   5.750  48.788  1.00  0.00     0.020 C 
BRANCH  14  15
HETATM   15  P1  UNL     1      25.019   7.014  48.506  1.00  0.00    -0.075 P 
HETATM   16  H10 UNL     1      25.403   7.969  47.468  1.00  0.00     0.066 HD
ENDBRANCH  14  15
ENDBRANCH  11  14
ENDBRANCH   5   8
BRANCH   1  17
HETATM   17  C4  UNL     1      22.462  -0.862  53.854  1.00  0.00     0.044 C 
HETATM   18  C3  UNL     1      21.263  -0.428  53.587  1.00  0.00     0.093 C 
BRANCH  18  19
HETATM   19  N1  UNL     1      20.105  -1.071  54.105  1.00  0.00    -0.336 N 
HETATM   20  C1  UNL     1      18.943  -0.954  53.272  1.00  0.00     0.235 C 
HETATM   21  O1  UNL     1      19.011  -0.318  52.175  1.00  0.00    -0.272 OA
HETATM   22  H3  UNL     1      19.842  -1.633  54.965  1.00  0.00     0.168 HD
BRANCH  20  23
HETATM   23  C2  UNL     1      17.559  -1.469  53.441  1.00  0.00     0.217 C 
HETATM   24 CL1  UNL     1      17.511  -3.217  53.720  1.00  0.00    -0.121 Cl
ENDBRANCH  20  23
ENDBRANCH  18  19
ENDBRANCH   1  17
TORSDOF 6
ENDMDL
MODEL 5
REMARK VINA RESULT:      -6.8      2.060      2.680
REMARK  6 active torsions:
REMARK  status: ('A' for Active; 'I' for Inactive)
REMARK    1  A    between atoms: C1_2  and  C2_3 
REMARK       I    between atoms: C1_2  and  N1_5 
REMARK    2  A    between atoms: N1_5  and  C3_6 
REMARK    3  A    between atoms: C4_7  and  C5_8 
REMARK    4  A    between atoms: N2_12  and  C9_13 
REMARK    5  A    between atoms: C12_16  and  C13_17 
REMARK    6  A    between atoms: C13_17  and  P1_18 
ROOT
HETATM    1  C5  UNL     1      21.648  -0.711  54.313  1.00  0.00     0.040 A 
HETATM    2  C6  UNL     1      21.247   0.412  53.739  1.00  0.00     0.057 A 
HETATM    3  C7  UNL     1      20.495   1.462  53.050  1.00  0.00     0.046 A 
HETATM    4  C8  UNL     1      19.906   0.274  53.246  1.00  0.00     0.103 A 
HETATM    5  N2  UNL     1      19.469  -1.065  53.560  1.00  0.00    -0.278 N 
HETATM    6  N3  UNL     1      20.559  -1.628  54.207  1.00  0.00    -0.300 N 
HETATM    7  H13 UNL     1      20.598  -2.605  54.582  1.00  0.00     0.187 HD
ENDROOT
BRANCH   5   8
HETATM    8  C9  UNL     1      18.216  -1.678  53.277  1.00  0.00     0.052 A 
HETATM    9  C10 UNL     1      17.228  -1.008  52.557  1.00  0.00     0.032 A 
HETATM   10  C11 UNL     1      16.030  -1.642  52.307  1.00  0.00     0.014 A 
HETATM   11  C12 UNL     1      15.854  -2.924  52.784  1.00  0.00    -0.035 A 
HETATM   12  C14 UNL     1      16.813  -3.617  53.501  1.00  0.00     0.014 A 
HETATM   13  C15 UNL     1      18.003  -2.957  53.735  1.00  0.00     0.032 A 
BRANCH  11  14
HETATM   14  C13 UNL     1      14.589  -3.559  52.505  1.00  0.00     0.020 C 
BRANCH  14  15
HETATM   15  P1  UNL     1      13.875  -4.656  53.522  1.00  0.00    -0.075 P 
HETATM   16  H10 UNL     1      14.145  -6.069  53.270  1.00  0.00     0.066 HD
ENDBRANCH  14  15
ENDBRANCH  11  14
ENDBRANCH   5   8
BRANCH   1  17
HETATM   17  C4  UNL     1      22.939  -0.984  54.936  1.00  0.00     0.044 C 
HETATM   18  C3  UNL     1      24.031  -0.711  54.281  1.00  0.00     0.093 C 
BRANCH  18  19
HETATM   19  N1  UNL     1      25.315  -0.956  54.839  1.00  0.00    -0.336 N 
HETATM   20  C1  UNL     1      26.308   0.019  54.484  1.00  0.00     0.235 C 
HETATM   21  O1  UNL     1      25.998   0.993  53.732  1.00  0.00    -0.272 OA
HETATM   22  H3  UNL     1      25.771  -1.680  55.465  1.00  0.00     0.168 HD
BRANCH  20  23
HETATM   23  C2  UNL     1      27.745   0.132  54.847  1.00  0.00     0.217 C 
HETATM   24 CL1  UNL     1      28.798  -0.781  53.756  1.00  0.00    -0.121 Cl
ENDBRANCH  20  23
ENDBRANCH  18  19
ENDBRANCH   1  17
TORSDOF 6
ENDMDL
MODEL 6
REMARK VINA RESULT:      -6.7      6.333      8.287
REMARK  6 active torsions:
REMARK  status: ('A' for Active; 'I' for Inactive)
REMARK    1  A    between atoms: C1_2  and  C2_3 
REMARK       I    between atoms: C1_2  and  N1_5 
REMARK    2  A    between atoms: N1_5  and  C3_6 
REMARK    3  A    between atoms: C4_7  and  C5_8 
REMARK    4  A    between atoms: N2_12  and  C9_13 
REMARK    5  A    between atoms: C12_16  and  C13_17 
REMARK    6  A    between atoms: C13_17  and  P1_18 
ROOT
HETATM    1  C5  UNL     1      27.081   5.468  48.783  1.00  0.00     0.040 A 
HETATM    2  C6  UNL     1      25.813   5.812  48.626  1.00  0.00     0.057 A 
HETATM    3  C7  UNL     1      24.353   5.906  48.673  1.00  0.00     0.046 A 
HETATM    4  C8  UNL     1      24.956   4.924  49.359  1.00  0.00     0.103 A 
HETATM    5  N2  UNL     1      25.801   3.956  50.015  1.00  0.00    -0.278 N 
HETATM    6  N3  UNL     1      27.084   4.324  49.637  1.00  0.00    -0.300 N 
HETATM    7  H13 UNL     1      27.962   3.836  49.933  1.00  0.00     0.187 HD
ENDROOT
BRANCH   5   8
HETATM    8  C9  UNL     1      25.421   2.872  50.856  1.00  0.00     0.052 A 
HETATM    9  C10 UNL     1      26.362   1.958  51.328  1.00  0.00     0.032 A 
HETATM   10  C11 UNL     1      25.948   0.924  52.140  1.00  0.00     0.014 A 
HETATM   11  C12 UNL     1      24.608   0.834  52.455  1.00  0.00    -0.035 A 
HETATM   12  C14 UNL     1      23.649   1.724  52.004  1.00  0.00     0.014 A 
HETATM   13  C15 UNL     1      24.094   2.749  51.194  1.00  0.00     0.032 A 
BRANCH  11  14
HETATM   14  C13 UNL     1      24.208  -0.260  53.306  1.00  0.00     0.020 C 
BRANCH  14  15
HETATM   15  P1  UNL     1      22.632  -0.731  53.507  1.00  0.00    -0.075 P 
HETATM   16  H10 UNL     1      22.353  -1.681  54.581  1.00  0.00     0.066 HD
ENDBRANCH  14  15
ENDBRANCH  11  14
ENDBRANCH   5   8
BRANCH   1  17
HETATM   17  C4  UNL     1      28.258   6.111  48.209  1.00  0.00     0.044 C 
HETATM   18  C3  UNL     1      29.397   5.477  48.218  1.00  0.00     0.093 C 
BRANCH  18  19
HETATM   19  N1  UNL     1      30.575   6.056  47.673  1.00  0.00    -0.336 N 
HETATM   20  C1  UNL     1      31.704   6.040  48.560  1.00  0.00     0.235 C 
HETATM   21  O1  UNL     1      31.592   5.535  49.719  1.00  0.00    -0.272 OA
HETATM   22  H3  UNL     1      30.873   6.515  46.765  1.00  0.00     0.168 HD
BRANCH  20  23
HETATM   23  C2  UNL     1      33.095   6.533  48.385  1.00  0.00     0.217 C 
HETATM   24 CL1  UNL     1      33.882   5.859  46.949  1.00  0.00    -0.121 Cl
ENDBRANCH  20  23
ENDBRANCH  18  19
ENDBRANCH   1  17
TORSDOF 6
ENDMDL
MODEL 7
REMARK VINA RESULT:      -6.5      7.791     10.131
REMARK  6 active torsions:
REMARK  status: ('A' for Active; 'I' for Inactive)
REMARK    1  A    between atoms: C1_2  and  C2_3 
REMARK       I    between atoms: C1_2  and  N1_5 
REMARK    2  A    between atoms: N1_5  and  C3_6 
REMARK    3  A    between atoms: C4_7  and  C5_8 
REMARK    4  A    between atoms: N2_12  and  C9_13 
REMARK    5  A    between atoms: C12_16  and  C13_17 
REMARK    6  A    between atoms: C13_17  and  P1_18 
ROOT
HETATM    1  C5  UNL     1      26.226   3.543  50.088  1.00  0.00     0.040 A 
HETATM    2  C6  UNL     1      25.056   4.146  49.951  1.00  0.00     0.057 A 
HETATM    3  C7  UNL     1      23.961   5.059  49.616  1.00  0.00     0.046 A 
HETATM    4  C8  UNL     1      25.201   5.363  49.204  1.00  0.00     0.103 A 
HETATM    5  N2  UNL     1      26.597   5.495  48.865  1.00  0.00    -0.278 N 
HETATM    6  N3  UNL     1      27.183   4.368  49.422  1.00  0.00    -0.300 N 
HETATM    7  H13 UNL     1      28.201   4.131  49.371  1.00  0.00     0.187 HD
ENDROOT
BRANCH   5   8
HETATM    8  C9  UNL     1      27.238   6.532  48.131  1.00  0.00     0.052 A 
HETATM    9  C10 UNL     1      28.607   6.495  47.869  1.00  0.00     0.032 A 
HETATM   10  C11 UNL     1      29.184   7.522  47.155  1.00  0.00     0.014 A 
HETATM   11  C12 UNL     1      28.378   8.556  46.724  1.00  0.00    -0.035 A 
HETATM   12  C14 UNL     1      27.017   8.623  46.966  1.00  0.00     0.014 A 
HETATM   13  C15 UNL     1      26.468   7.580  47.684  1.00  0.00     0.032 A 
BRANCH  11  14
HETATM   14  C13 UNL     1      29.013   9.615  45.979  1.00  0.00     0.020 C 
BRANCH  14  15
HETATM   15  P1  UNL     1      29.190  11.158  46.558  1.00  0.00    -0.075 P 
HETATM   16  H10 UNL     1      29.079  11.343  48.003  1.00  0.00     0.066 HD
ENDBRANCH  14  15
ENDBRANCH  11  14
ENDBRANCH   5   8
BRANCH   1  17
HETATM   17  C4  UNL     1      26.508   2.289  50.777  1.00  0.00     0.044 C 
HETATM   18  C3  UNL     1      26.866   2.318  52.030  1.00  0.00     0.093 C 
BRANCH  18  19
HETATM   19  N1  UNL     1      27.153   1.126  52.750  1.00  0.00    -0.336 N 
HETATM   20  C1  UNL     1      28.138   1.285  53.782  1.00  0.00     0.235 C 
HETATM   21  O1  UNL     1      28.667   2.421  53.984  1.00  0.00    -0.272 OA
HETATM   22  H3  UNL     1      26.839   0.114  52.744  1.00  0.00     0.168 HD
BRANCH  20  23
HETATM   23  C2  UNL     1      28.713   0.311  54.747  1.00  0.00     0.217 C 
HETATM   24 CL1  UNL     1      29.797  -0.855  53.974  1.00  0.00    -0.121 Cl
ENDBRANCH  20  23
ENDBRANCH  18  19
ENDBRANCH   1  17
TORSDOF 6
ENDMDL
MODEL 8
REMARK VINA RESULT:      -6.5      6.908      8.955
REMARK  6 active torsions:
REMARK  status: ('A' for Active; 'I' for Inactive)
REMARK    1  A    between atoms: C1_2  and  C2_3 
REMARK       I    between atoms: C1_2  and  N1_5 
REMARK    2  A    between atoms: N1_5  and  C3_6 
REMARK    3  A    between atoms: C4_7  and  C5_8 
REMARK    4  A    between atoms: N2_12  and  C9_13 
REMARK    5  A    between atoms: C12_16  and  C13_17 
REMARK    6  A    between atoms: C13_17  and  P1_18 
ROOT
HETATM    1  C5  UNL     1      28.302   6.188  48.284  1.00  0.00     0.040 A 
HETATM    2  C6  UNL     1      27.192   6.878  48.074  1.00  0.00     0.057 A 
HETATM    3  C7  UNL     1      25.812   7.365  48.026  1.00  0.00     0.046 A 
HETATM    4  C8  UNL     1      26.063   6.203  48.647  1.00  0.00     0.103 A 
HETATM    5  N2  UNL     1      26.553   4.991  49.258  1.00  0.00    -0.278 N 
HETATM    6  N3  UNL     1      27.918   5.022  49.013  1.00  0.00    -0.300 N 
HETATM    7  H13 UNL     1      28.601   4.290  49.318  1.00  0.00     0.187 HD
ENDROOT
BRANCH   5   8
HETATM    8  C9  UNL     1      25.819   3.989  49.953  1.00  0.00     0.052 A 
HETATM    9  C10 UNL     1      24.430   3.909  49.854  1.00  0.00     0.032 A 
HETATM   10  C11 UNL     1      23.762   2.921  50.545  1.00  0.00     0.014 A 
HETATM   11  C12 UNL     1      24.499   2.045  51.314  1.00  0.00    -0.035 A 
HETATM   12  C14 UNL     1      25.876   2.096  51.434  1.00  0.00     0.014 A 
HETATM   13  C15 UNL     1      26.518   3.096  50.730  1.00  0.00     0.032 A 
BRANCH  11  14
HETATM   14  C13 UNL     1      23.768   1.023  52.024  1.00  0.00     0.020 C 
BRANCH  14  15
HETATM   15  P1  UNL     1      22.113   0.960  52.085  1.00  0.00    -0.075 P 
HETATM   16  H10 UNL     1      21.512   0.412  53.298  1.00  0.00     0.066 HD
ENDBRANCH  14  15
ENDBRANCH  11  14
ENDBRANCH   5   8
BRANCH   1  17
HETATM   17  C4  UNL     1      29.657   6.527  47.865  1.00  0.00     0.044 C 
HETATM   18  C3  UNL     1      30.667   5.948  48.449  1.00  0.00     0.093 C 
BRANCH  18  19
HETATM   19  N1  UNL     1      32.009   6.241  48.081  1.00  0.00    -0.336 N 
HETATM   20  C1  UNL     1      32.870   5.093  48.030  1.00  0.00     0.235 C 
HETATM   21  O1  UNL     1      32.408   3.943  48.302  1.00  0.00    -0.272 OA
HETATM   22  H3  UNL     1      32.580   7.096  47.824  1.00  0.00     0.168 HD
BRANCH  20  23
HETATM   23  C2  UNL     1      34.313   4.964  47.696  1.00  0.00     0.217 C 
HETATM   24 CL1  UNL     1      34.870   3.285  47.719  1.00  0.00    -0.121 Cl
ENDBRANCH  20  23
ENDBRANCH  18  19
ENDBRANCH   1  17
TORSDOF 6
ENDMDL
MODEL 9
REMARK VINA RESULT:      -6.5      5.598      8.899
REMARK  6 active torsions:
REMARK  status: ('A' for Active; 'I' for Inactive)
REMARK    1  A    between atoms: C1_2  and  C2_3 
REMARK       I    between atoms: C1_2  and  N1_5 
REMARK    2  A    between atoms: N1_5  and  C3_6 
REMARK    3  A    between atoms: C4_7  and  C5_8 
REMARK    4  A    between atoms: N2_12  and  C9_13 
REMARK    5  A    between atoms: C12_16  and  C13_17 
REMARK    6  A    between atoms: C13_17  and  P1_18 
ROOT
HETATM    1  C5  UNL     1      18.704  -0.839  53.062  1.00  0.00     0.040 A 
HETATM    2  C6  UNL     1      18.908  -0.066  52.008  1.00  0.00     0.057 A 
HETATM    3  C7  UNL     1      19.479   0.784  50.961  1.00  0.00     0.046 A 
HETATM    4  C8  UNL     1      20.291   0.307  51.916  1.00  0.00     0.103 A 
HETATM    5  N2  UNL     1      20.975  -0.307  53.028  1.00  0.00    -0.278 N 
HETATM    6  N3  UNL     1      19.973  -0.993  53.698  1.00  0.00    -0.300 N 
HETATM    7  H13 UNL     1      20.110  -1.562  54.566  1.00  0.00     0.187 HD
ENDROOT
BRANCH   5   8
HETATM    8  C9  UNL     1      22.355  -0.234  53.370  1.00  0.00     0.052 A 
HETATM    9  C10 UNL     1      23.242   0.551  52.636  1.00  0.00     0.032 A 
HETATM   10  C11 UNL     1      24.570   0.591  53.004  1.00  0.00     0.014 A 
HETATM   11  C12 UNL     1      24.971  -0.155  54.093  1.00  0.00    -0.035 A 
HETATM   12  C14 UNL     1      24.116  -0.944  54.843  1.00  0.00     0.014 A 
HETATM   13  C15 UNL     1      22.793  -0.963  54.450  1.00  0.00     0.032 A 
BRANCH  11  14
HETATM   14  C13 UNL     1      26.367  -0.092  54.451  1.00  0.00     0.020 C 
BRANCH  14  15
HETATM   15  P1  UNL     1      27.457   0.905  53.700  1.00  0.00    -0.075 P 
HETATM   16  H10 UNL     1      26.988   1.642  52.529  1.00  0.00     0.066 HD
ENDBRANCH  14  15
ENDBRANCH  11  14
ENDBRANCH   5   8
BRANCH   1  17
HETATM   17  C4  UNL     1      17.446  -1.428  53.507  1.00  0.00     0.044 C 
HETATM   18  C3  UNL     1      17.029  -2.531  52.953  1.00  0.00     0.093 C 
BRANCH  18  19
HETATM   19  N1  UNL     1      15.811  -3.149  53.347  1.00  0.00    -0.336 N 
HETATM   20  C1  UNL     1      15.923  -4.554  53.620  1.00  0.00     0.235 C 
HETATM   21  O1  UNL     1      17.046  -5.134  53.500  1.00  0.00    -0.272 OA
HETATM   22  H3  UNL     1      14.802  -2.860  53.503  1.00  0.00     0.168 HD
BRANCH  20  23
HETATM   23  C2  UNL     1      14.911  -5.553  54.050  1.00  0.00     0.217 C 
HETATM   24 CL1  UNL     1      15.275  -6.254  55.634  1.00  0.00    -0.121 Cl
ENDBRANCH  20  23
ENDBRANCH  18  19
ENDBRANCH   1  17
TORSDOF 6
ENDMDL
