MODEL 1
REMARK VINA RESULT:      -7.9      0.000      0.000
REMARK  7 active torsions:
REMARK  status: ('A' for Active; 'I' for Inactive)
REMARK    1  A    between atoms: O1_1  and  C1_2 
REMARK    2  A    between atoms: C6_8  and  C7_9 
REMARK    3  A    between atoms: C7_9  and  N1_10 
REMARK    4  A    between atoms: N1_10  and  P1_11 
REMARK    5  A    between atoms: P1_11  and  C8_12 
REMARK    6  A    between atoms: C11_17  and  N4_18 
REMARK    7  A    between atoms: N4_18  and  C12_19 
ROOT
HETATM    1  C8  UNL     1      27.365   0.236  53.669  1.00  0.00     0.060 A 
HETATM    2  C9  UNL     1      28.308   0.517  54.597  1.00  0.00     0.136 A 
HETATM    3  N2  UNL     1      29.115   1.554  54.686  1.00  0.00    -0.253 NA
HETATM    4  C10 UNL     1      29.035   2.525  53.730  1.00  0.00     0.234 A 
HETATM    5  N3  UNL     1      28.129   2.339  52.764  1.00  0.00    -0.223 NA
HETATM    6  C11 UNL     1      27.312   1.260  52.697  1.00  0.00     0.144 A 
ENDROOT
BRANCH   1   7
HETATM    7  P1  UNL     1      26.159  -1.046  53.300  1.00  0.00     0.097 P 
BRANCH   7   8
HETATM    8  N1  UNL     1      24.635  -0.795  53.066  1.00  0.00    -0.285 NA
BRANCH   8   9
HETATM    9  C7  UNL     1      23.577  -0.744  53.958  1.00  0.00     0.189 C 
BRANCH   9  10
HETATM   10  C6  UNL     1      22.252  -0.376  53.357  1.00  0.00    -0.004 A 
HETATM   11  C1  UNL     1      21.056  -0.785  53.872  1.00  0.00     0.073 A 
HETATM   12  C2  UNL     1      19.851  -0.420  53.301  1.00  0.00     0.039 A 
HETATM   13  C3  UNL     1      19.789   0.387  52.167  1.00  0.00     0.026 A 
HETATM   14  C4  UNL     1      20.999   0.811  51.634  1.00  0.00     0.034 A 
HETATM   15 CL1  UNL     1      21.005   1.837  50.188  1.00  0.00    -0.084 Cl
HETATM   16  C5  UNL     1      22.164   0.420  52.239  1.00  0.00     0.035 A 
BRANCH  11  17
HETATM   17  O1  UNL     1      21.015  -1.593  54.996  1.00  0.00    -0.360 OA
HETATM   18  H1  UNL     1      21.749  -2.266  55.148  1.00  0.00     0.217 HD
ENDBRANCH  11  17
ENDBRANCH   9  10
ENDBRANCH   8   9
ENDBRANCH   7   8
ENDBRANCH   1   7
BRANCH   6  19
HETATM   19  N4  UNL     1      26.443   1.349  51.556  1.00  0.00    -0.340 N 
HETATM   20  H9  UNL     1      26.509   0.806  50.665  1.00  0.00     0.167 HD
BRANCH  19  21
HETATM   21  C12 UNL     1      25.428   2.333  51.853  1.00  0.00     0.033 A 
HETATM   22  C13 UNL     1      24.776   2.734  52.995  1.00  0.00     0.032 A 
HETATM   23  C14 UNL     1      23.848   3.751  52.909  1.00  0.00     0.044 A 
HETATM   24  C15 UNL     1      23.562   4.371  51.718  1.00  0.00     0.116 A 
HETATM   25  F1  UNL     1      22.636   5.368  51.705  1.00  0.00    -0.206 F 
HETATM   26  C16 UNL     1      24.216   3.968  50.579  1.00  0.00     0.044 A 
HETATM   27  C17 UNL     1      25.164   2.940  50.624  1.00  0.00     0.032 A 
ENDBRANCH  19  21
ENDBRANCH   6  19
TORSDOF 7
ENDMDL
MODEL 2
REMARK VINA RESULT:      -7.6      3.738      6.680
REMARK  7 active torsions:
REMARK  status: ('A' for Active; 'I' for Inactive)
REMARK    1  A    between atoms: O1_1  and  C1_2 
REMARK    2  A    between atoms: C6_8  and  C7_9 
REMARK    3  A    between atoms: C7_9  and  N1_10 
REMARK    4  A    between atoms: N1_10  and  P1_11 
REMARK    5  A    between atoms: P1_11  and  C8_12 
REMARK    6  A    between atoms: C11_17  and  N4_18 
REMARK    7  A    between atoms: N4_18  and  C12_19 
ROOT
HETATM    1  C8  UNL     1      23.007   2.815  50.246  1.00  0.00     0.060 A 
HETATM    2  C9  UNL     1      22.911   2.491  48.936  1.00  0.00     0.136 A 
HETATM    3  N2  UNL     1      22.007   1.761  48.316  1.00  0.00    -0.253 NA
HETATM    4  C10 UNL     1      20.989   1.224  49.050  1.00  0.00     0.234 A 
HETATM    5  N3  UNL     1      20.994   1.487  50.361  1.00  0.00    -0.223 NA
HETATM    6  C11 UNL     1      21.939   2.241  50.972  1.00  0.00     0.144 A 
ENDROOT
BRANCH   1   7
HETATM    7  P1  UNL     1      24.081   3.755  51.339  1.00  0.00     0.097 P 
BRANCH   7   8
HETATM    8  N1  UNL     1      25.384   3.200  52.001  1.00  0.00    -0.285 NA
BRANCH   8   9
HETATM    9  C7  UNL     1      26.419   2.449  51.473  1.00  0.00     0.189 C 
BRANCH   9  10
HETATM   10  C6  UNL     1      26.993   1.413  52.396  1.00  0.00    -0.004 A 
HETATM   11  C1  UNL     1      27.625   1.720  53.566  1.00  0.00     0.073 A 
HETATM   12  C2  UNL     1      28.134   0.742  54.400  1.00  0.00     0.039 A 
HETATM   13  C3  UNL     1      28.030  -0.613  54.094  1.00  0.00     0.026 A 
HETATM   14  C4  UNL     1      27.388  -0.938  52.906  1.00  0.00     0.034 A 
HETATM   15 CL1  UNL     1      27.220  -2.642  52.442  1.00  0.00    -0.084 Cl
HETATM   16  C5  UNL     1      26.903   0.070  52.116  1.00  0.00     0.035 A 
BRANCH  11  17
HETATM   17  O1  UNL     1      27.781   3.040  53.955  1.00  0.00    -0.360 OA
HETATM   18  H1  UNL     1      28.257   3.248  54.819  1.00  0.00     0.217 HD
ENDBRANCH  11  17
ENDBRANCH   9  10
ENDBRANCH   8   9
ENDBRANCH   7   8
ENDBRANCH   1   7
BRANCH   6  19
HETATM   19  N4  UNL     1      21.670   2.354  52.380  1.00  0.00    -0.340 N 
HETATM   20  H9  UNL     1      21.188   3.140  52.872  1.00  0.00     0.167 HD
BRANCH  19  21
HETATM   21  C12 UNL     1      22.182   1.164  53.020  1.00  0.00     0.033 A 
HETATM   22  C13 UNL     1      23.372   0.477  52.972  1.00  0.00     0.032 A 
HETATM   23  C14 UNL     1      23.524  -0.646  53.758  1.00  0.00     0.044 A 
HETATM   24  C15 UNL     1      22.522  -1.092  54.584  1.00  0.00     0.116 A 
HETATM   25  F1  UNL     1      22.740  -2.207  55.333  1.00  0.00    -0.206 F 
HETATM   26  C16 UNL     1      21.335  -0.403  54.630  1.00  0.00     0.044 A 
HETATM   27  C17 UNL     1      21.141   0.741  53.848  1.00  0.00     0.032 A 
ENDBRANCH  19  21
ENDBRANCH   6  19
TORSDOF 7
ENDMDL
MODEL 3
REMARK VINA RESULT:      -7.5      3.694      6.557
REMARK  7 active torsions:
REMARK  status: ('A' for Active; 'I' for Inactive)
REMARK    1  A    between atoms: O1_1  and  C1_2 
REMARK    2  A    between atoms: C6_8  and  C7_9 
REMARK    3  A    between atoms: C7_9  and  N1_10 
REMARK    4  A    between atoms: N1_10  and  P1_11 
REMARK    5  A    between atoms: P1_11  and  C8_12 
REMARK    6  A    between atoms: C11_17  and  N4_18 
REMARK    7  A    between atoms: N4_18  and  C12_19 
ROOT
HETATM    1  C8  UNL     1      24.147   4.078  50.833  1.00  0.00     0.060 A 
HETATM    2  C9  UNL     1      23.720   5.290  51.256  1.00  0.00     0.136 A 
HETATM    3  N2  UNL     1      22.519   5.668  51.644  1.00  0.00    -0.253 NA
HETATM    4  C10 UNL     1      21.514   4.745  51.639  1.00  0.00     0.234 A 
HETATM    5  N3  UNL     1      21.835   3.513  51.235  1.00  0.00    -0.223 NA
HETATM    6  C11 UNL     1      23.080   3.152  50.841  1.00  0.00     0.144 A 
ENDROOT
BRANCH   1   7
HETATM    7  P1  UNL     1      25.661   3.293  50.264  1.00  0.00     0.097 P 
BRANCH   7   8
HETATM    8  N1  UNL     1      26.803   2.778  51.198  1.00  0.00    -0.285 NA
BRANCH   8   9
HETATM    9  C7  UNL     1      26.796   2.452  52.543  1.00  0.00     0.189 C 
BRANCH   9  10
HETATM   10  C6  UNL     1      27.668   1.291  52.925  1.00  0.00    -0.004 A 
HETATM   11  C1  UNL     1      28.870   1.432  53.554  1.00  0.00     0.073 A 
HETATM   12  C2  UNL     1      29.646   0.342  53.902  1.00  0.00     0.039 A 
HETATM   13  C3  UNL     1      29.243  -0.964  53.630  1.00  0.00     0.026 A 
HETATM   14  C4  UNL     1      28.021  -1.121  52.991  1.00  0.00     0.034 A 
HETATM   15 CL1  UNL     1      27.440  -2.751  52.604  1.00  0.00    -0.084 Cl
HETATM   16  C5  UNL     1      27.292  -0.006  52.668  1.00  0.00     0.035 A 
BRANCH  11  17
HETATM   17  O1  UNL     1      29.358   2.691  53.864  1.00  0.00    -0.360 OA
HETATM   18  H1  UNL     1      28.765   3.496  53.738  1.00  0.00     0.217 HD
ENDBRANCH  11  17
ENDBRANCH   9  10
ENDBRANCH   8   9
ENDBRANCH   7   8
ENDBRANCH   1   7
BRANCH   6  19
HETATM   19  N4  UNL     1      23.117   1.762  50.476  1.00  0.00    -0.340 N 
HETATM   20  H9  UNL     1      23.487   1.350  49.589  1.00  0.00     0.167 HD
BRANCH  19  21
HETATM   21  C12 UNL     1      22.549   1.006  51.568  1.00  0.00     0.033 A 
HETATM   22  C13 UNL     1      21.299   0.512  51.854  1.00  0.00     0.032 A 
HETATM   23  C14 UNL     1      21.117  -0.203  53.019  1.00  0.00     0.044 A 
HETATM   24  C15 UNL     1      22.148  -0.434  53.896  1.00  0.00     0.116 A 
HETATM   25  F1  UNL     1      21.898  -1.148  55.027  1.00  0.00    -0.206 F 
HETATM   26  C16 UNL     1      23.396   0.062  53.608  1.00  0.00     0.044 A 
HETATM   27  C17 UNL     1      23.622   0.793  52.436  1.00  0.00     0.032 A 
ENDBRANCH  19  21
ENDBRANCH   6  19
TORSDOF 7
ENDMDL
MODEL 4
REMARK VINA RESULT:      -7.4      3.717      6.255
REMARK  7 active torsions:
REMARK  status: ('A' for Active; 'I' for Inactive)
REMARK    1  A    between atoms: O1_1  and  C1_2 
REMARK    2  A    between atoms: C6_8  and  C7_9 
REMARK    3  A    between atoms: C7_9  and  N1_10 
REMARK    4  A    between atoms: N1_10  and  P1_11 
REMARK    5  A    between atoms: P1_11  and  C8_12 
REMARK    6  A    between atoms: C11_17  and  N4_18 
REMARK    7  A    between atoms: N4_18  and  C12_19 
ROOT
HETATM    1  C8  UNL     1      22.254   1.374  51.012  1.00  0.00     0.060 A 
HETATM    2  C9  UNL     1      21.541   0.757  50.043  1.00  0.00     0.136 A 
HETATM    3  N2  UNL     1      21.295   1.143  48.807  1.00  0.00    -0.253 NA
HETATM    4  C10 UNL     1      21.808   2.334  48.383  1.00  0.00     0.234 A 
HETATM    5  N3  UNL     1      22.531   3.023  49.271  1.00  0.00    -0.223 NA
HETATM    6  C11 UNL     1      22.768   2.602  50.537  1.00  0.00     0.144 A 
ENDROOT
BRANCH   1   7
HETATM    7  P1  UNL     1      22.745   1.103  52.721  1.00  0.00     0.097 P 
BRANCH   7   8
HETATM    8  N1  UNL     1      24.202   0.788  53.190  1.00  0.00    -0.285 NA
BRANCH   8   9
HETATM    9  C7  UNL     1      25.291   0.292  52.494  1.00  0.00     0.189 C 
BRANCH   9  10
HETATM   10  C6  UNL     1      26.632   0.688  53.038  1.00  0.00    -0.004 A 
HETATM   11  C1  UNL     1      26.923   1.949  53.471  1.00  0.00     0.073 A 
HETATM   12  C2  UNL     1      28.166   2.279  53.978  1.00  0.00     0.039 A 
HETATM   13  C3  UNL     1      29.194   1.343  54.075  1.00  0.00     0.026 A 
HETATM   14  C4  UNL     1      28.909   0.056  53.639  1.00  0.00     0.034 A 
HETATM   15 CL1  UNL     1      30.167  -1.193  53.724  1.00  0.00    -0.084 Cl
HETATM   16  C5  UNL     1      27.661  -0.218  53.145  1.00  0.00     0.035 A 
BRANCH  11  17
HETATM   17  O1  UNL     1      25.968   2.950  53.411  1.00  0.00    -0.360 OA
HETATM   18  H1  UNL     1      26.139   3.825  53.880  1.00  0.00     0.217 HD
ENDBRANCH  11  17
ENDBRANCH   9  10
ENDBRANCH   8   9
ENDBRANCH   7   8
ENDBRANCH   1   7
BRANCH   6  19
HETATM   19  N4  UNL     1      23.584   3.549  51.246  1.00  0.00    -0.340 N 
HETATM   20  H9  UNL     1      23.369   4.013  52.158  1.00  0.00     0.167 HD
BRANCH  19  21
HETATM   21  C12 UNL     1      24.787   3.757  50.474  1.00  0.00     0.033 A 
HETATM   22  C13 UNL     1      25.788   2.938  50.005  1.00  0.00     0.032 A 
HETATM   23  C14 UNL     1      26.807   3.493  49.260  1.00  0.00     0.044 A 
HETATM   24  C15 UNL     1      26.847   4.836  48.976  1.00  0.00     0.116 A 
HETATM   25  F1  UNL     1      27.883   5.317  48.235  1.00  0.00    -0.206 F 
HETATM   26  C16 UNL     1      25.846   5.651  49.446  1.00  0.00     0.044 A 
HETATM   27  C17 UNL     1      24.794   5.127  50.204  1.00  0.00     0.032 A 
ENDBRANCH  19  21
ENDBRANCH   6  19
TORSDOF 7
ENDMDL
MODEL 5
REMARK VINA RESULT:      -7.4      3.142      4.607
REMARK  7 active torsions:
REMARK  status: ('A' for Active; 'I' for Inactive)
REMARK    1  A    between atoms: O1_1  and  C1_2 
REMARK    2  A    between atoms: C6_8  and  C7_9 
REMARK    3  A    between atoms: C7_9  and  N1_10 
REMARK    4  A    between atoms: N1_10  and  P1_11 
REMARK    5  A    between atoms: P1_11  and  C8_12 
REMARK    6  A    between atoms: C11_17  and  N4_18 
REMARK    7  A    between atoms: N4_18  and  C12_19 
ROOT
HETATM    1  C8  UNL     1      24.361   4.034  50.925  1.00  0.00     0.060 A 
HETATM    2  C9  UNL     1      24.920   5.090  50.291  1.00  0.00     0.136 A 
HETATM    3  N2  UNL     1      26.042   5.159  49.605  1.00  0.00    -0.253 NA
HETATM    4  C10 UNL     1      26.798   4.029  49.479  1.00  0.00     0.234 A 
HETATM    5  N3  UNL     1      26.329   2.927  50.072  1.00  0.00    -0.223 NA
HETATM    6  C11 UNL     1      25.171   2.886  50.773  1.00  0.00     0.144 A 
ENDROOT
BRANCH   1   7
HETATM    7  P1  UNL     1      22.899   3.651  51.900  1.00  0.00     0.097 P 
BRANCH   7   8
HETATM    8  N1  UNL     1      22.066   2.335  51.779  1.00  0.00    -0.285 NA
BRANCH   8   9
HETATM    9  C7  UNL     1      21.031   1.842  52.554  1.00  0.00     0.189 C 
BRANCH   9  10
HETATM   10  C6  UNL     1      21.332   0.569  53.290  1.00  0.00    -0.004 A 
HETATM   11  C1  UNL     1      20.406  -0.410  53.503  1.00  0.00     0.073 A 
HETATM   12  C2  UNL     1      20.718  -1.577  54.175  1.00  0.00     0.039 A 
HETATM   13  C3  UNL     1      21.995  -1.820  54.674  1.00  0.00     0.026 A 
HETATM   14  C4  UNL     1      22.947  -0.831  54.463  1.00  0.00     0.034 A 
HETATM   15 CL1  UNL     1      24.596  -1.061  55.074  1.00  0.00    -0.084 Cl
HETATM   16  C5  UNL     1      22.584   0.307  53.791  1.00  0.00     0.035 A 
BRANCH  11  17
HETATM   17  O1  UNL     1      19.107  -0.260  53.047  1.00  0.00    -0.360 OA
HETATM   18  H1  UNL     1      18.482   0.365  53.531  1.00  0.00     0.217 HD
ENDBRANCH  11  17
ENDBRANCH   9  10
ENDBRANCH   8   9
ENDBRANCH   7   8
ENDBRANCH   1   7
BRANCH   6  19
HETATM   19  N4  UNL     1      24.928   1.563  51.281  1.00  0.00    -0.340 N 
HETATM   20  H9  UNL     1      24.196   0.887  50.965  1.00  0.00     0.167 HD
BRANCH  19  21
HETATM   21  C12 UNL     1      25.895   1.310  52.325  1.00  0.00     0.033 A 
HETATM   22  C13 UNL     1      26.299   1.987  53.452  1.00  0.00     0.032 A 
HETATM   23  C14 UNL     1      27.265   1.421  54.256  1.00  0.00     0.044 A 
HETATM   24  C15 UNL     1      27.831   0.205  53.962  1.00  0.00     0.116 A 
HETATM   25  F1  UNL     1      28.779  -0.295  54.801  1.00  0.00    -0.206 F 
HETATM   26  C16 UNL     1      27.425  -0.468  52.836  1.00  0.00     0.044 A 
HETATM   27  C17 UNL     1      26.447   0.072  51.993  1.00  0.00     0.032 A 
ENDBRANCH  19  21
ENDBRANCH   6  19
TORSDOF 7
ENDMDL
MODEL 6
REMARK VINA RESULT:      -7.3      1.889      2.344
REMARK  7 active torsions:
REMARK  status: ('A' for Active; 'I' for Inactive)
REMARK    1  A    between atoms: O1_1  and  C1_2 
REMARK    2  A    between atoms: C6_8  and  C7_9 
REMARK    3  A    between atoms: C7_9  and  N1_10 
REMARK    4  A    between atoms: N1_10  and  P1_11 
REMARK    5  A    between atoms: P1_11  and  C8_12 
REMARK    6  A    between atoms: C11_17  and  N4_18 
REMARK    7  A    between atoms: N4_18  and  C12_19 
ROOT
HETATM    1  C8  UNL     1      25.763   0.459  53.751  1.00  0.00     0.060 A 
HETATM    2  C9  UNL     1      26.763   0.494  54.660  1.00  0.00     0.136 A 
HETATM    3  N2  UNL     1      27.859   1.226  54.675  1.00  0.00    -0.253 NA
HETATM    4  C10 UNL     1      28.073   2.097  53.646  1.00  0.00     0.234 A 
HETATM    5  N3  UNL     1      27.137   2.137  52.692  1.00  0.00    -0.223 NA
HETATM    6  C11 UNL     1      26.020   1.372  52.703  1.00  0.00     0.144 A 
ENDROOT
BRANCH   1   7
HETATM    7  P1  UNL     1      24.206  -0.398  53.474  1.00  0.00     0.097 P 
BRANCH   7   8
HETATM    8  N1  UNL     1      22.825   0.305  53.274  1.00  0.00    -0.285 NA
BRANCH   8   9
HETATM    9  C7  UNL     1      21.807   0.061  52.368  1.00  0.00     0.189 C 
BRANCH   9  10
HETATM   10  C6  UNL     1      21.511   1.187  51.421  1.00  0.00    -0.004 A 
HETATM   11  C1  UNL     1      20.791   2.292  51.771  1.00  0.00     0.073 A 
HETATM   12  C2  UNL     1      20.544   3.317  50.877  1.00  0.00     0.039 A 
HETATM   13  C3  UNL     1      21.017   3.281  49.567  1.00  0.00     0.026 A 
HETATM   14  C4  UNL     1      21.753   2.163  49.199  1.00  0.00     0.034 A 
HETATM   15 CL1  UNL     1      22.386   2.038  47.547  1.00  0.00    -0.084 Cl
HETATM   16  C5  UNL     1      21.967   1.175  50.124  1.00  0.00     0.035 A 
BRANCH  11  17
HETATM   17  O1  UNL     1      20.275   2.418  53.050  1.00  0.00    -0.360 OA
HETATM   18  H1  UNL     1      20.754   1.980  53.821  1.00  0.00     0.217 HD
ENDBRANCH  11  17
ENDBRANCH   9  10
ENDBRANCH   8   9
ENDBRANCH   7   8
ENDBRANCH   1   7
BRANCH   6  19
HETATM   19  N4  UNL     1      25.202   1.646  51.553  1.00  0.00    -0.340 N 
HETATM   20  H9  UNL     1      25.044   1.027  50.726  1.00  0.00     0.167 HD
BRANCH  19  21
HETATM   21  C12 UNL     1      24.611   2.951  51.737  1.00  0.00     0.033 A 
HETATM   22  C13 UNL     1      23.979   3.588  52.780  1.00  0.00     0.032 A 
HETATM   23  C14 UNL     1      23.545   4.885  52.601  1.00  0.00     0.044 A 
HETATM   24  C15 UNL     1      23.727   5.553  51.416  1.00  0.00     0.116 A 
HETATM   25  F1  UNL     1      23.273   6.832  51.310  1.00  0.00    -0.206 F 
HETATM   26  C16 UNL     1      24.358   4.914  50.377  1.00  0.00     0.044 A 
HETATM   27  C17 UNL     1      24.814   3.599  50.517  1.00  0.00     0.032 A 
ENDBRANCH  19  21
ENDBRANCH   6  19
TORSDOF 7
ENDMDL
MODEL 7
REMARK VINA RESULT:      -7.2      4.479      7.019
REMARK  7 active torsions:
REMARK  status: ('A' for Active; 'I' for Inactive)
REMARK    1  A    between atoms: O1_1  and  C1_2 
REMARK    2  A    between atoms: C6_8  and  C7_9 
REMARK    3  A    between atoms: C7_9  and  N1_10 
REMARK    4  A    between atoms: N1_10  and  P1_11 
REMARK    5  A    between atoms: P1_11  and  C8_12 
REMARK    6  A    between atoms: C11_17  and  N4_18 
REMARK    7  A    between atoms: N4_18  and  C12_19 
ROOT
HETATM    1  C8  UNL     1      27.416   1.840  52.666  1.00  0.00     0.060 A 
HETATM    2  C9  UNL     1      28.376   2.353  53.470  1.00  0.00     0.136 A 
HETATM    3  N2  UNL     1      29.014   1.793  54.477  1.00  0.00    -0.253 NA
HETATM    4  C10 UNL     1      28.705   0.505  54.807  1.00  0.00     0.234 A 
HETATM    5  N3  UNL     1      27.765  -0.092  54.069  1.00  0.00    -0.223 NA
HETATM    6  C11 UNL     1      27.124   0.509  53.038  1.00  0.00     0.144 A 
ENDROOT
BRANCH   1   7
HETATM    7  P1  UNL     1      26.403   2.342  51.268  1.00  0.00     0.097 P 
BRANCH   7   8
HETATM    8  N1  UNL     1      26.842   3.364  50.170  1.00  0.00    -0.285 NA
BRANCH   8   9
HETATM    9  C7  UNL     1      26.166   4.430  49.602  1.00  0.00     0.189 C 
BRANCH   9  10
HETATM   10  C6  UNL     1      27.022   5.392  48.831  1.00  0.00    -0.004 A 
HETATM   11  C1  UNL     1      26.561   6.579  48.340  1.00  0.00     0.073 A 
HETATM   12  C2  UNL     1      27.378   7.449  47.643  1.00  0.00     0.039 A 
HETATM   13  C3  UNL     1      28.720   7.163  47.400  1.00  0.00     0.026 A 
HETATM   14  C4  UNL     1      29.201   5.958  47.895  1.00  0.00     0.034 A 
HETATM   15 CL1  UNL     1      30.898   5.518  47.623  1.00  0.00    -0.084 Cl
HETATM   16  C5  UNL     1      28.349   5.133  48.579  1.00  0.00     0.035 A 
BRANCH  11  17
HETATM   17  O1  UNL     1      25.240   6.950  48.528  1.00  0.00    -0.360 OA
HETATM   18  H1  UNL     1      25.031   7.819  48.994  1.00  0.00     0.217 HD
ENDBRANCH  11  17
ENDBRANCH   9  10
ENDBRANCH   8   9
ENDBRANCH   7   8
ENDBRANCH   1   7
BRANCH   6  19
HETATM   19  N4  UNL     1      26.178  -0.388  52.433  1.00  0.00    -0.340 N 
HETATM   20  H9  UNL     1      26.245  -0.839  51.492  1.00  0.00     0.167 HD
BRANCH  19  21
HETATM   21  C12 UNL     1      25.091  -0.575  53.367  1.00  0.00     0.033 A 
HETATM   22  C13 UNL     1      24.996  -1.040  54.658  1.00  0.00     0.032 A 
HETATM   23  C14 UNL     1      23.759  -1.063  55.266  1.00  0.00     0.044 A 
HETATM   24  C15 UNL     1      22.626  -0.636  54.619  1.00  0.00     0.116 A 
HETATM   25  F1  UNL     1      21.437  -0.687  55.280  1.00  0.00    -0.206 F 
HETATM   26  C16 UNL     1      22.724  -0.174  53.330  1.00  0.00     0.044 A 
HETATM   27  C17 UNL     1      23.961  -0.133  52.677  1.00  0.00     0.032 A 
ENDBRANCH  19  21
ENDBRANCH   6  19
TORSDOF 7
ENDMDL
MODEL 8
REMARK VINA RESULT:      -7.1      5.171      8.138
REMARK  7 active torsions:
REMARK  status: ('A' for Active; 'I' for Inactive)
REMARK    1  A    between atoms: O1_1  and  C1_2 
REMARK    2  A    between atoms: C6_8  and  C7_9 
REMARK    3  A    between atoms: C7_9  and  N1_10 
REMARK    4  A    between atoms: N1_10  and  P1_11 
REMARK    5  A    between atoms: P1_11  and  C8_12 
REMARK    6  A    between atoms: C11_17  and  N4_18 
REMARK    7  A    between atoms: N4_18  and  C12_19 
ROOT
HETATM    1  C8  UNL     1      24.831   2.537  51.035  1.00  0.00     0.060 A 
HETATM    2  C9  UNL     1      23.566   2.097  50.843  1.00  0.00     0.136 A 
HETATM    3  N2  UNL     1      22.739   1.523  51.692  1.00  0.00    -0.253 NA
HETATM    4  C10 UNL     1      23.164   1.313  52.972  1.00  0.00     0.234 A 
HETATM    5  N3  UNL     1      24.405   1.714  53.263  1.00  0.00    -0.223 NA
HETATM    6  C11 UNL     1      25.234   2.302  52.368  1.00  0.00     0.144 A 
ENDROOT
BRANCH   1   7
HETATM    7  P1  UNL     1      26.151   3.330  50.106  1.00  0.00     0.097 P 
BRANCH   7   8
HETATM    8  N1  UNL     1      25.960   4.557  49.158  1.00  0.00    -0.285 NA
BRANCH   8   9
HETATM    9  C7  UNL     1      26.150   5.911  49.378  1.00  0.00     0.189 C 
BRANCH   9  10
HETATM   10  C6  UNL     1      27.059   6.596  48.400  1.00  0.00    -0.004 A 
HETATM   11  C1  UNL     1      28.384   6.297  48.271  1.00  0.00     0.073 A 
HETATM   12  C2  UNL     1      29.192   6.940  47.352  1.00  0.00     0.039 A 
HETATM   13  C3  UNL     1      28.701   7.931  46.506  1.00  0.00     0.026 A 
HETATM   14  C4  UNL     1      27.353   8.244  46.627  1.00  0.00     0.034 A 
HETATM   15 CL1  UNL     1      26.652   9.499  45.588  1.00  0.00    -0.084 Cl
HETATM   16  C5  UNL     1      26.597   7.576  47.554  1.00  0.00     0.035 A 
BRANCH  11  17
HETATM   17  O1  UNL     1      28.966   5.328  49.071  1.00  0.00    -0.360 OA
HETATM   18  H1  UNL     1      28.698   4.363  48.954  1.00  0.00     0.217 HD
ENDBRANCH  11  17
ENDBRANCH   9  10
ENDBRANCH   8   9
ENDBRANCH   7   8
ENDBRANCH   1   7
BRANCH   6  19
HETATM   19  N4  UNL     1      26.494   2.629  52.978  1.00  0.00    -0.340 N 
HETATM   20  H9  UNL     1      26.824   3.573  53.284  1.00  0.00     0.167 HD
BRANCH  19  21
HETATM   21  C12 UNL     1      27.248   1.404  53.111  1.00  0.00     0.033 A 
HETATM   22  C13 UNL     1      27.032   0.093  52.758  1.00  0.00     0.032 A 
HETATM   23  C14 UNL     1      28.010  -0.840  53.032  1.00  0.00     0.044 A 
HETATM   24  C15 UNL     1      29.189  -0.494  53.646  1.00  0.00     0.116 A 
HETATM   25  F1  UNL     1      30.111  -1.466  53.886  1.00  0.00    -0.206 F 
HETATM   26  C16 UNL     1      29.401   0.816  53.998  1.00  0.00     0.044 A 
HETATM   27  C17 UNL     1      28.434   1.793  53.736  1.00  0.00     0.032 A 
ENDBRANCH  19  21
ENDBRANCH   6  19
TORSDOF 7
ENDMDL
MODEL 9
REMARK VINA RESULT:      -7.1      4.363      7.323
REMARK  7 active torsions:
REMARK  status: ('A' for Active; 'I' for Inactive)
REMARK    1  A    between atoms: O1_1  and  C1_2 
REMARK    2  A    between atoms: C6_8  and  C7_9 
REMARK    3  A    between atoms: C7_9  and  N1_10 
REMARK    4  A    between atoms: N1_10  and  P1_11 
REMARK    5  A    between atoms: P1_11  and  C8_12 
REMARK    6  A    between atoms: C11_17  and  N4_18 
REMARK    7  A    between atoms: N4_18  and  C12_19 
ROOT
HETATM    1  C8  UNL     1      22.730   2.029  52.051  1.00  0.00     0.060 A 
HETATM    2  C9  UNL     1      21.673   1.202  51.887  1.00  0.00     0.136 A 
HETATM    3  N2  UNL     1      21.417   0.044  52.460  1.00  0.00    -0.253 NA
HETATM    4  C10 UNL     1      22.315  -0.447  53.363  1.00  0.00     0.234 A 
HETATM    5  N3  UNL     1      23.398   0.299  53.595  1.00  0.00    -0.223 NA
HETATM    6  C11 UNL     1      23.636   1.488  52.990  1.00  0.00     0.144 A 
ENDROOT
BRANCH   1   7
HETATM    7  P1  UNL     1      23.329   3.610  51.435  1.00  0.00     0.097 P 
BRANCH   7   8
HETATM    8  N1  UNL     1      24.775   3.868  50.902  1.00  0.00    -0.285 NA
BRANCH   8   9
HETATM    9  C7  UNL     1      25.341   3.622  49.664  1.00  0.00     0.189 C 
BRANCH   9  10
HETATM   10  C6  UNL     1      26.130   4.760  49.084  1.00  0.00    -0.004 A 
HETATM   11  C1  UNL     1      25.579   5.966  48.759  1.00  0.00     0.073 A 
HETATM   12  C2  UNL     1      26.335   6.998  48.236  1.00  0.00     0.039 A 
HETATM   13  C3  UNL     1      27.704   6.867  48.011  1.00  0.00     0.026 A 
HETATM   14  C4  UNL     1      28.276   5.645  48.339  1.00  0.00     0.034 A 
HETATM   15 CL1  UNL     1      30.013   5.397  48.077  1.00  0.00    -0.084 Cl
HETATM   16  C5  UNL     1      27.481   4.655  48.853  1.00  0.00     0.035 A 
BRANCH  11  17
HETATM   17  O1  UNL     1      24.225   6.191  48.943  1.00  0.00    -0.360 OA
HETATM   18  H1  UNL     1      23.926   6.919  49.572  1.00  0.00     0.217 HD
ENDBRANCH  11  17
ENDBRANCH   9  10
ENDBRANCH   8   9
ENDBRANCH   7   8
ENDBRANCH   1   7
BRANCH   6  19
HETATM   19  N4  UNL     1      24.873   2.057  53.451  1.00  0.00    -0.340 N 
HETATM   20  H9  UNL     1      25.016   3.003  53.873  1.00  0.00     0.167 HD
BRANCH  19  21
HETATM   21  C12 UNL     1      25.913   1.078  53.238  1.00  0.00     0.033 A 
HETATM   22  C13 UNL     1      26.238   0.222  52.212  1.00  0.00     0.032 A 
HETATM   23  C14 UNL     1      27.348  -0.586  52.347  1.00  0.00     0.044 A 
HETATM   24  C15 UNL     1      28.132  -0.557  53.473  1.00  0.00     0.116 A 
HETATM   25  F1  UNL     1      29.213  -1.382  53.540  1.00  0.00    -0.206 F 
HETATM   26  C16 UNL     1      27.804   0.298  54.496  1.00  0.00     0.044 A 
HETATM   27  C17 UNL     1      26.686   1.135  54.398  1.00  0.00     0.032 A 
ENDBRANCH  19  21
ENDBRANCH   6  19
TORSDOF 7
ENDMDL
