MODEL 1
REMARK VINA RESULT:      -9.5      0.000      0.000
REMARK  4 active torsions:
REMARK  status: ('A' for Active; 'I' for Inactive)
REMARK    1  A    between atoms: C5_5  and  C6_6 
REMARK    2  A    between atoms: N2_8  and  C7_9 
REMARK    3  A    between atoms: C8_11  and  O1_12 
REMARK    4  A    between atoms: C10_14  and  C11_15 
ROOT
HETATM    1  C6  UNL     1      25.611   2.523  51.364  1.00  0.00     0.067 C 
HETATM    2  N1  UNL     1      26.394   1.536  51.538  1.00  0.00    -0.174 NA
HETATM    3  N2  UNL     1      25.886   0.593  52.437  1.00  0.00    -0.242 N 
HETATM    4  C10 UNL     1      24.821   1.260  53.159  1.00  0.00     0.151 C 
HETATM    5  C17 UNL     1      24.385   2.345  52.191  1.00  0.00     0.094 C 
ENDROOT
BRANCH   1   6
HETATM    6  C5  UNL     1      25.864   3.676  50.480  1.00  0.00    -0.010 A 
HETATM    7  C4  UNL     1      25.034   4.777  50.510  1.00  0.00     0.014 A 
HETATM    8  C3  UNL     1      25.300   5.851  49.661  1.00  0.00     0.007 A 
HETATM    9  C2  UNL     1      26.368   5.812  48.815  1.00  0.00    -0.062 A 
HETATM   10  C1  UNL     1      26.610   6.988  47.927  1.00  0.00     0.048 C 
HETATM   11  C19 UNL     1      27.194   4.724  48.780  1.00  0.00     0.007 A 
HETATM   12  C18 UNL     1      26.931   3.664  49.617  1.00  0.00     0.014 A 
ENDBRANCH   1   6
BRANCH   3  13
HETATM   13  C7  UNL     1      26.479  -0.700  52.437  1.00  0.00     0.153 A 
HETATM   14  N3  UNL     1      26.496  -1.940  52.079  1.00  0.00    -0.205 NA
HETATM   15  C8  UNL     1      27.712  -2.221  52.786  1.00  0.00     0.167 A 
HETATM   16  C9  UNL     1      27.732  -0.947  53.180  1.00  0.00     0.110 A 
BRANCH  15  17
HETATM   17  O1  UNL     1      28.458  -3.408  52.919  1.00  0.00    -0.345 OA
HETATM   18  H6  UNL     1      28.107  -4.252  52.486  1.00  0.00     0.219 HD
ENDBRANCH  15  17
ENDBRANCH   3  13
BRANCH   4  19
HETATM   19  C11 UNL     1      23.649   0.396  53.419  1.00  0.00    -0.033 A 
HETATM   20  C12 UNL     1      22.500   0.459  52.653  1.00  0.00     0.012 A 
HETATM   21  C13 UNL     1      21.379  -0.326  52.853  1.00  0.00     0.043 A 
HETATM   22  C14 UNL     1      21.388  -1.245  53.888  1.00  0.00     0.116 A 
HETATM   23  F1  UNL     1      20.304  -2.022  54.102  1.00  0.00    -0.206 F 
HETATM   24  C15 UNL     1      22.510  -1.349  54.684  1.00  0.00     0.043 A 
HETATM   25  C16 UNL     1      23.599  -0.538  54.434  1.00  0.00     0.012 A 
ENDBRANCH   4  19
TORSDOF 4
ENDMDL
MODEL 2
REMARK VINA RESULT:      -9.3      3.170      6.676
REMARK  4 active torsions:
REMARK  status: ('A' for Active; 'I' for Inactive)
REMARK    1  A    between atoms: C5_5  and  C6_6 
REMARK    2  A    between atoms: N2_8  and  C7_9 
REMARK    3  A    between atoms: C8_11  and  O1_12 
REMARK    4  A    between atoms: C10_14  and  C11_15 
ROOT
HETATM    1  C6  UNL     1      23.078   0.643  52.558  1.00  0.00     0.067 C 
HETATM    2  N1  UNL     1      23.668   1.581  51.935  1.00  0.00    -0.174 NA
HETATM    3  N2  UNL     1      25.034   1.650  52.229  1.00  0.00    -0.242 N 
HETATM    4  C10 UNL     1      25.223   0.878  53.442  1.00  0.00     0.151 C 
HETATM    5  C17 UNL     1      24.054  -0.090  53.411  1.00  0.00     0.094 C 
ENDROOT
BRANCH   1   6
HETATM    6  C5  UNL     1      21.642   0.316  52.459  1.00  0.00    -0.010 A 
HETATM    7  C4  UNL     1      20.989  -0.294  53.509  1.00  0.00     0.014 A 
HETATM    8  C3  UNL     1      19.632  -0.590  53.385  1.00  0.00     0.007 A 
HETATM    9  C2  UNL     1      18.961  -0.279  52.240  1.00  0.00    -0.062 A 
HETATM   10  C1  UNL     1      17.509  -0.616  52.156  1.00  0.00     0.048 C 
HETATM   11  C19 UNL     1      19.603   0.326  51.195  1.00  0.00     0.007 A 
HETATM   12  C18 UNL     1      20.943   0.617  51.318  1.00  0.00     0.014 A 
ENDBRANCH   1   6
BRANCH   3  13
HETATM   13  C7  UNL     1      25.859   2.398  51.344  1.00  0.00     0.153 A 
HETATM   14  N3  UNL     1      27.015   2.822  50.957  1.00  0.00    -0.205 NA
HETATM   15  C8  UNL     1      26.475   3.564  49.856  1.00  0.00     0.167 A 
HETATM   16  C9  UNL     1      25.261   3.150  50.222  1.00  0.00     0.110 A 
BRANCH  15  17
HETATM   17  O1  UNL     1      27.098   4.359  48.874  1.00  0.00    -0.345 OA
HETATM   18  H6  UNL     1      28.067   4.619  49.005  1.00  0.00     0.219 HD
ENDBRANCH  15  17
ENDBRANCH   3  13
BRANCH   4  19
HETATM   19  C11 UNL     1      26.466   0.077  53.446  1.00  0.00    -0.033 A 
HETATM   20  C12 UNL     1      27.597   0.471  54.137  1.00  0.00     0.012 A 
HETATM   21  C13 UNL     1      28.783  -0.240  54.175  1.00  0.00     0.043 A 
HETATM   22  C14 UNL     1      28.863  -1.433  53.476  1.00  0.00     0.116 A 
HETATM   23  F1  UNL     1      30.011  -2.144  53.498  1.00  0.00    -0.206 F 
HETATM   24  C15 UNL     1      27.763  -1.873  52.769  1.00  0.00     0.043 A 
HETATM   25  C16 UNL     1      26.608  -1.118  52.770  1.00  0.00     0.012 A 
ENDBRANCH   4  19
TORSDOF 4
ENDMDL
MODEL 3
REMARK VINA RESULT:      -8.8      3.275      7.024
REMARK  4 active torsions:
REMARK  status: ('A' for Active; 'I' for Inactive)
REMARK    1  A    between atoms: C5_5  and  C6_6 
REMARK    2  A    between atoms: N2_8  and  C7_9 
REMARK    3  A    between atoms: C8_11  and  O1_12 
REMARK    4  A    between atoms: C10_14  and  C11_15 
ROOT
HETATM    1  C6  UNL     1      23.163   1.059  52.116  1.00  0.00     0.067 C 
HETATM    2  N1  UNL     1      24.210   0.993  52.834  1.00  0.00    -0.174 NA
HETATM    3  N2  UNL     1      25.298   1.663  52.266  1.00  0.00    -0.242 N 
HETATM    4  C10 UNL     1      24.963   1.865  50.870  1.00  0.00     0.151 C 
HETATM    5  C17 UNL     1      23.444   1.845  50.883  1.00  0.00     0.094 C 
ENDROOT
BRANCH   1   6
HETATM    6  C5  UNL     1      21.857   0.454  52.442  1.00  0.00    -0.010 A 
HETATM    7  C4  UNL     1      21.715  -0.347  53.556  1.00  0.00     0.014 A 
HETATM    8  C3  UNL     1      20.468  -0.904  53.837  1.00  0.00     0.007 A 
HETATM    9  C2  UNL     1      19.404  -0.658  53.022  1.00  0.00    -0.062 A 
HETATM   10  C1  UNL     1      18.090  -1.277  53.367  1.00  0.00     0.048 C 
HETATM   11  C19 UNL     1      19.538   0.135  51.917  1.00  0.00     0.007 A 
HETATM   12  C18 UNL     1      20.769   0.684  51.639  1.00  0.00     0.014 A 
ENDBRANCH   1   6
BRANCH   3  13
HETATM   13  C7  UNL     1      26.396   1.972  53.117  1.00  0.00     0.153 A 
HETATM   14  N3  UNL     1      26.880   2.394  54.237  1.00  0.00    -0.205 NA
HETATM   15  C8  UNL     1      28.240   2.213  53.821  1.00  0.00     0.167 A 
HETATM   16  C9  UNL     1      27.783   1.772  52.648  1.00  0.00     0.110 A 
BRANCH  15  17
HETATM   17  O1  UNL     1      29.457   2.451  54.490  1.00  0.00    -0.345 OA
HETATM   18  H6  UNL     1      29.654   1.931  55.336  1.00  0.00     0.219 HD
ENDBRANCH  15  17
ENDBRANCH   3  13
BRANCH   4  19
HETATM   19  C11 UNL     1      25.388   3.179  50.342  1.00  0.00    -0.033 A 
HETATM   20  C12 UNL     1      26.513   3.329  49.554  1.00  0.00     0.012 A 
HETATM   21  C13 UNL     1      26.954   4.533  49.035  1.00  0.00     0.043 A 
HETATM   22  C14 UNL     1      26.230   5.681  49.313  1.00  0.00     0.116 A 
HETATM   23  F1  UNL     1      26.641   6.867  48.817  1.00  0.00    -0.206 F 
HETATM   24  C15 UNL     1      25.097   5.586  50.096  1.00  0.00     0.043 A 
HETATM   25  C16 UNL     1      24.709   4.355  50.584  1.00  0.00     0.012 A 
ENDBRANCH   4  19
TORSDOF 4
ENDMDL
MODEL 4
REMARK VINA RESULT:      -8.8      1.605      1.911
REMARK  4 active torsions:
REMARK  status: ('A' for Active; 'I' for Inactive)
REMARK    1  A    between atoms: C5_5  and  C6_6 
REMARK    2  A    between atoms: N2_8  and  C7_9 
REMARK    3  A    between atoms: C8_11  and  O1_12 
REMARK    4  A    between atoms: C10_14  and  C11_15 
ROOT
HETATM    1  C6  UNL     1      25.339   3.483  50.737  1.00  0.00     0.067 C 
HETATM    2  N1  UNL     1      25.904   2.518  51.344  1.00  0.00    -0.174 NA
HETATM    3  N2  UNL     1      24.999   1.724  52.057  1.00  0.00    -0.242 N 
HETATM    4  C10 UNL     1      23.785   2.507  52.178  1.00  0.00     0.151 C 
HETATM    5  C17 UNL     1      23.872   3.448  50.990  1.00  0.00     0.094 C 
ENDROOT
BRANCH   1   6
HETATM    6  C5  UNL     1      26.021   4.491  49.905  1.00  0.00    -0.010 A 
HETATM    7  C4  UNL     1      25.515   5.769  49.796  1.00  0.00     0.014 A 
HETATM    8  C3  UNL     1      26.184   6.700  49.001  1.00  0.00     0.007 A 
HETATM    9  C2  UNL     1      27.323   6.349  48.341  1.00  0.00    -0.062 A 
HETATM   10  C1  UNL     1      28.002   7.381  47.503  1.00  0.00     0.048 C 
HETATM   11  C19 UNL     1      27.831   5.084  48.445  1.00  0.00     0.007 A 
HETATM   12  C18 UNL     1      27.170   4.166  49.229  1.00  0.00     0.014 A 
ENDBRANCH   1   6
BRANCH   3  13
HETATM   13  C7  UNL     1      25.438   0.434  52.466  1.00  0.00     0.153 A 
HETATM   14  N3  UNL     1      25.272  -0.666  53.120  1.00  0.00    -0.205 NA
HETATM   15  C8  UNL     1      26.526  -1.215  52.693  1.00  0.00     0.167 A 
HETATM   16  C9  UNL     1      26.739  -0.093  52.003  1.00  0.00     0.110 A 
BRANCH  15  17
HETATM   17  O1  UNL     1      27.146  -2.448  52.972  1.00  0.00    -0.345 OA
HETATM   18  H6  UNL     1      28.138  -2.544  52.792  1.00  0.00     0.219 HD
ENDBRANCH  15  17
ENDBRANCH   3  13
BRANCH   4  19
HETATM   19  C11 UNL     1      22.549   1.711  52.028  1.00  0.00    -0.033 A 
HETATM   20  C12 UNL     1      22.023   1.389  50.792  1.00  0.00     0.012 A 
HETATM   21  C13 UNL     1      20.871   0.647  50.596  1.00  0.00     0.043 A 
HETATM   22  C14 UNL     1      20.182   0.187  51.706  1.00  0.00     0.116 A 
HETATM   23  F1  UNL     1      19.056  -0.539  51.539  1.00  0.00    -0.206 F 
HETATM   24  C15 UNL     1      20.665   0.480  52.965  1.00  0.00     0.043 A 
HETATM   25  C16 UNL     1      21.820   1.225  53.094  1.00  0.00     0.012 A 
ENDBRANCH   4  19
TORSDOF 4
ENDMDL
MODEL 5
REMARK VINA RESULT:      -8.6      3.701      5.015
REMARK  4 active torsions:
REMARK  status: ('A' for Active; 'I' for Inactive)
REMARK    1  A    between atoms: C5_5  and  C6_6 
REMARK    2  A    between atoms: N2_8  and  C7_9 
REMARK    3  A    between atoms: C8_11  and  O1_12 
REMARK    4  A    between atoms: C10_14  and  C11_15 
ROOT
HETATM    1  C6  UNL     1      24.159   3.474  50.188  1.00  0.00     0.067 C 
HETATM    2  N1  UNL     1      22.939   3.802  50.329  1.00  0.00    -0.174 NA
HETATM    3  N2  UNL     1      22.174   2.793  50.923  1.00  0.00    -0.242 N 
HETATM    4  C10 UNL     1      22.954   1.577  50.810  1.00  0.00     0.151 C 
HETATM    5  C17 UNL     1      24.377   2.098  50.714  1.00  0.00     0.094 C 
ENDROOT
BRANCH   1   6
HETATM    6  C5  UNL     1      25.214   4.321  49.597  1.00  0.00    -0.010 A 
HETATM    7  C4  UNL     1      26.486   3.825  49.409  1.00  0.00     0.014 A 
HETATM    8  C3  UNL     1      27.461   4.650  48.847  1.00  0.00     0.007 A 
HETATM    9  C2  UNL     1      27.156   5.929  48.488  1.00  0.00    -0.062 A 
HETATM   10  C1  UNL     1      28.234   6.772  47.891  1.00  0.00     0.048 C 
HETATM   11  C19 UNL     1      25.896   6.427  48.672  1.00  0.00     0.007 A 
HETATM   12  C18 UNL     1      24.935   5.612  49.227  1.00  0.00     0.014 A 
ENDBRANCH   1   6
BRANCH   3  13
HETATM   13  C7  UNL     1      20.908   3.159  51.460  1.00  0.00     0.153 A 
HETATM   14  N3  UNL     1      20.162   3.564  52.434  1.00  0.00    -0.205 NA
HETATM   15  C8  UNL     1      18.964   3.537  51.647  1.00  0.00     0.167 A 
HETATM   16  C9  UNL     1      19.697   3.116  50.614  1.00  0.00     0.110 A 
BRANCH  15  17
HETATM   17  O1  UNL     1      17.630   3.853  51.971  1.00  0.00    -0.345 OA
HETATM   18  H6  UNL     1      16.922   3.138  51.858  1.00  0.00     0.219 HD
ENDBRANCH  15  17
ENDBRANCH   3  13
BRANCH   4  19
HETATM   19  C11 UNL     1      22.876   0.710  52.005  1.00  0.00    -0.033 A 
HETATM   20  C12 UNL     1      23.943   0.543  52.868  1.00  0.00     0.012 A 
HETATM   21  C13 UNL     1      23.923  -0.254  53.998  1.00  0.00     0.043 A 
HETATM   22  C14 UNL     1      22.761  -0.943  54.304  1.00  0.00     0.116 A 
HETATM   23  F1  UNL     1      22.718  -1.728  55.402  1.00  0.00    -0.206 F 
HETATM   24  C15 UNL     1      21.665  -0.812  53.475  1.00  0.00     0.043 A 
HETATM   25  C16 UNL     1      21.748  -0.000  52.362  1.00  0.00     0.012 A 
ENDBRANCH   4  19
TORSDOF 4
ENDMDL
MODEL 6
REMARK VINA RESULT:      -8.4      3.970      6.235
REMARK  4 active torsions:
REMARK  status: ('A' for Active; 'I' for Inactive)
REMARK    1  A    between atoms: C5_5  and  C6_6 
REMARK    2  A    between atoms: N2_8  and  C7_9 
REMARK    3  A    between atoms: C8_11  and  O1_12 
REMARK    4  A    between atoms: C10_14  and  C11_15 
ROOT
HETATM    1  C6  UNL     1      24.631   0.657  52.617  1.00  0.00     0.067 C 
HETATM    2  N1  UNL     1      23.596   0.234  53.222  1.00  0.00    -0.174 NA
HETATM    3  N2  UNL     1      22.416   0.811  52.742  1.00  0.00    -0.242 N 
HETATM    4  C10 UNL     1      22.818   1.984  51.990  1.00  0.00     0.151 C 
HETATM    5  C17 UNL     1      24.239   1.646  51.575  1.00  0.00     0.094 C 
ENDROOT
BRANCH   1   6
HETATM    6  C5  UNL     1      26.019   0.240  52.894  1.00  0.00    -0.010 A 
HETATM    7  C4  UNL     1      26.418  -1.060  52.666  1.00  0.00     0.014 A 
HETATM    8  C3  UNL     1      27.737  -1.424  52.938  1.00  0.00     0.007 A 
HETATM    9  C2  UNL     1      28.619  -0.504  53.421  1.00  0.00    -0.062 A 
HETATM   10  C1  UNL     1      30.019  -0.942  53.695  1.00  0.00     0.048 C 
HETATM   11  C19 UNL     1      28.230   0.787  53.649  1.00  0.00     0.007 A 
HETATM   12  C18 UNL     1      26.928   1.144  53.381  1.00  0.00     0.014 A 
ENDBRANCH   1   6
BRANCH   3  13
HETATM   13  C7  UNL     1      21.190   0.169  53.071  1.00  0.00     0.153 A 
HETATM   14  N3  UNL     1      19.899   0.130  53.093  1.00  0.00    -0.205 NA
HETATM   15  C8  UNL     1      19.859  -1.147  53.745  1.00  0.00     0.167 A 
HETATM   16  C9  UNL     1      21.193  -1.147  53.744  1.00  0.00     0.110 A 
BRANCH  15  17
HETATM   17  O1  UNL     1      18.776  -1.949  54.156  1.00  0.00    -0.345 OA
HETATM   18  H6  UNL     1      18.213  -1.638  54.937  1.00  0.00     0.219 HD
ENDBRANCH  15  17
ENDBRANCH   3  13
BRANCH   4  19
HETATM   19  C11 UNL     1      22.031   2.196  50.757  1.00  0.00    -0.033 A 
HETATM   20  C12 UNL     1      22.103   1.336  49.677  1.00  0.00     0.012 A 
HETATM   21  C13 UNL     1      21.389   1.488  48.502  1.00  0.00     0.043 A 
HETATM   22  C14 UNL     1      20.536   2.572  48.379  1.00  0.00     0.116 A 
HETATM   23  F1  UNL     1      19.828   2.741  47.242  1.00  0.00    -0.206 F 
HETATM   24  C15 UNL     1      20.426   3.461  49.429  1.00  0.00     0.043 A 
HETATM   25  C16 UNL     1      21.165   3.255  50.576  1.00  0.00     0.012 A 
ENDBRANCH   4  19
TORSDOF 4
ENDMDL
MODEL 7
REMARK VINA RESULT:      -8.4      4.647      8.359
REMARK  4 active torsions:
REMARK  status: ('A' for Active; 'I' for Inactive)
REMARK    1  A    between atoms: C5_5  and  C6_6 
REMARK    2  A    between atoms: N2_8  and  C7_9 
REMARK    3  A    between atoms: C8_11  and  O1_12 
REMARK    4  A    between atoms: C10_14  and  C11_15 
ROOT
HETATM    1  C6  UNL     1      23.060   2.391  50.950  1.00  0.00     0.067 C 
HETATM    2  N1  UNL     1      22.411   2.686  49.897  1.00  0.00    -0.174 NA
HETATM    3  N2  UNL     1      22.967   3.766  49.204  1.00  0.00    -0.242 N 
HETATM    4  C10 UNL     1      23.859   4.426  50.137  1.00  0.00     0.151 C 
HETATM    5  C17 UNL     1      24.222   3.311  51.102  1.00  0.00     0.094 C 
ENDROOT
BRANCH   1   6
HETATM    6  C5  UNL     1      22.726   1.303  51.889  1.00  0.00    -0.010 A 
HETATM    7  C4  UNL     1      23.695   0.762  52.708  1.00  0.00     0.014 A 
HETATM    8  C3  UNL     1      23.347  -0.265  53.585  1.00  0.00     0.007 A 
HETATM    9  C2  UNL     1      22.065  -0.725  53.632  1.00  0.00    -0.062 A 
HETATM   10  C1  UNL     1      21.743  -1.825  54.589  1.00  0.00     0.048 C 
HETATM   11  C19 UNL     1      21.099  -0.193  52.824  1.00  0.00     0.007 A 
HETATM   12  C18 UNL     1      21.444   0.820  51.958  1.00  0.00     0.014 A 
ENDBRANCH   1   6
BRANCH   3  13
HETATM   13  C7  UNL     1      22.565   3.957  47.853  1.00  0.00     0.153 A 
HETATM   14  N3  UNL     1      22.277   4.719  46.851  1.00  0.00    -0.205 NA
HETATM   15  C8  UNL     1      21.995   3.617  45.978  1.00  0.00     0.167 A 
HETATM   16  C9  UNL     1      22.283   2.793  46.986  1.00  0.00     0.110 A 
BRANCH  15  17
HETATM   17  O1  UNL     1      21.589   3.578  44.630  1.00  0.00    -0.345 OA
HETATM   18  H6  UNL     1      21.242   2.705  44.253  1.00  0.00     0.219 HD
ENDBRANCH  15  17
ENDBRANCH   3  13
BRANCH   4  19
HETATM   19  C11 UNL     1      25.114   4.906  49.518  1.00  0.00    -0.033 A 
HETATM   20  C12 UNL     1      26.233   4.104  49.400  1.00  0.00     0.012 A 
HETATM   21  C13 UNL     1      27.429   4.503  48.830  1.00  0.00     0.043 A 
HETATM   22  C14 UNL     1      27.532   5.794  48.338  1.00  0.00     0.116 A 
HETATM   23  F1  UNL     1      28.689   6.205  47.777  1.00  0.00    -0.206 F 
HETATM   24  C15 UNL     1      26.442   6.636  48.430  1.00  0.00     0.043 A 
HETATM   25  C16 UNL     1      25.276   6.178  49.010  1.00  0.00     0.012 A 
ENDBRANCH   4  19
TORSDOF 4
ENDMDL
MODEL 8
REMARK VINA RESULT:      -8.3      3.331      4.908
REMARK  4 active torsions:
REMARK  status: ('A' for Active; 'I' for Inactive)
REMARK    1  A    between atoms: C5_5  and  C6_6 
REMARK    2  A    between atoms: N2_8  and  C7_9 
REMARK    3  A    between atoms: C8_11  and  O1_12 
REMARK    4  A    between atoms: C10_14  and  C11_15 
ROOT
HETATM    1  C6  UNL     1      23.717   3.316  51.587  1.00  0.00     0.067 C 
HETATM    2  N1  UNL     1      23.035   2.362  52.079  1.00  0.00    -0.174 NA
HETATM    3  N2  UNL     1      23.808   1.230  52.352  1.00  0.00    -0.242 N 
HETATM    4  C10 UNL     1      25.043   1.397  51.612  1.00  0.00     0.151 C 
HETATM    5  C17 UNL     1      25.143   2.905  51.462  1.00  0.00     0.094 C 
ENDROOT
BRANCH   1   6
HETATM    6  C5  UNL     1      23.190   4.637  51.194  1.00  0.00    -0.010 A 
HETATM    7  C4  UNL     1      21.835   4.829  51.029  1.00  0.00     0.014 A 
HETATM    8  C3  UNL     1      21.367   6.090  50.658  1.00  0.00     0.007 A 
HETATM    9  C2  UNL     1      22.241   7.118  50.463  1.00  0.00    -0.062 A 
HETATM   10  C1  UNL     1      21.691   8.448  50.068  1.00  0.00     0.048 C 
HETATM   11  C19 UNL     1      23.586   6.935  50.627  1.00  0.00     0.007 A 
HETATM   12  C18 UNL     1      24.046   5.690  50.992  1.00  0.00     0.014 A 
ENDBRANCH   1   6
BRANCH   3  13
HETATM   13  C7  UNL     1      23.253   0.251  53.223  1.00  0.00     0.153 A 
HETATM   14  N3  UNL     1      23.371  -0.773  54.000  1.00  0.00    -0.205 NA
HETATM   15  C8  UNL     1      21.970  -0.818  54.303  1.00  0.00     0.167 A 
HETATM   16  C9  UNL     1      21.803   0.240  53.508  1.00  0.00     0.110 A 
BRANCH  15  17
HETATM   17  O1  UNL     1      21.222  -1.685  55.123  1.00  0.00    -0.345 OA
HETATM   18  H6  UNL     1      20.923  -1.354  56.032  1.00  0.00     0.219 HD
ENDBRANCH  15  17
ENDBRANCH   3  13
BRANCH   4  19
HETATM   19  C11 UNL     1      26.242   0.942  52.349  1.00  0.00    -0.033 A 
HETATM   20  C12 UNL     1      26.686  -0.366  52.300  1.00  0.00     0.012 A 
HETATM   21  C13 UNL     1      27.800  -0.843  52.968  1.00  0.00     0.043 A 
HETATM   22  C14 UNL     1      28.534   0.036  53.747  1.00  0.00     0.116 A 
HETATM   23  F1  UNL     1      29.624  -0.407  54.409  1.00  0.00    -0.206 F 
HETATM   24  C15 UNL     1      28.133   1.354  53.830  1.00  0.00     0.043 A 
HETATM   25  C16 UNL     1      27.013   1.769  53.140  1.00  0.00     0.012 A 
ENDBRANCH   4  19
TORSDOF 4
ENDMDL
MODEL 9
REMARK VINA RESULT:      -8.1      3.639      4.873
REMARK  4 active torsions:
REMARK  status: ('A' for Active; 'I' for Inactive)
REMARK    1  A    between atoms: C5_5  and  C6_6 
REMARK    2  A    between atoms: N2_8  and  C7_9 
REMARK    3  A    between atoms: C8_11  and  O1_12 
REMARK    4  A    between atoms: C10_14  and  C11_15 
ROOT
HETATM    1  C6  UNL     1      25.872   4.328  49.751  1.00  0.00     0.067 C 
HETATM    2  N1  UNL     1      24.652   4.149  50.058  1.00  0.00    -0.174 NA
HETATM    3  N2  UNL     1      24.450   2.993  50.819  1.00  0.00    -0.242 N 
HETATM    4  C10 UNL     1      25.647   2.191  50.658  1.00  0.00     0.151 C 
HETATM    5  C17 UNL     1      26.702   3.227  50.314  1.00  0.00     0.094 C 
ENDROOT
BRANCH   1   6
HETATM    6  C5  UNL     1      26.402   5.453  48.957  1.00  0.00    -0.010 A 
HETATM    7  C4  UNL     1      25.581   6.495  48.584  1.00  0.00     0.014 A 
HETATM    8  C3  UNL     1      26.112   7.544  47.833  1.00  0.00     0.007 A 
HETATM    9  C2  UNL     1      27.427   7.538  47.476  1.00  0.00    -0.062 A 
HETATM   10  C1  UNL     1      27.948   8.684  46.673  1.00  0.00     0.048 C 
HETATM   11  C19 UNL     1      28.247   6.508  47.843  1.00  0.00     0.007 A 
HETATM   12  C18 UNL     1      27.722   5.473  48.582  1.00  0.00     0.014 A 
ENDBRANCH   1   6
BRANCH   3  13
HETATM   13  C7  UNL     1      23.219   2.876  51.523  1.00  0.00     0.153 A 
HETATM   14  N3  UNL     1      22.468   2.315  52.410  1.00  0.00    -0.205 NA
HETATM   15  C8  UNL     1      21.353   3.176  52.142  1.00  0.00     0.167 A 
HETATM   16  C9  UNL     1      22.094   3.784  51.214  1.00  0.00     0.110 A 
BRANCH  15  17
HETATM   17  O1  UNL     1      20.064   3.234  52.708  1.00  0.00    -0.345 OA
HETATM   18  H6  UNL     1      19.677   4.140  52.939  1.00  0.00     0.219 HD
ENDBRANCH  15  17
ENDBRANCH   3  13
BRANCH   4  19
HETATM   19  C11 UNL     1      26.076   1.511  51.899  1.00  0.00    -0.033 A 
HETATM   20  C12 UNL     1      26.134   2.163  53.117  1.00  0.00     0.012 A 
HETATM   21  C13 UNL     1      26.528   1.574  54.305  1.00  0.00     0.043 A 
HETATM   22  C14 UNL     1      26.894   0.238  54.295  1.00  0.00     0.116 A 
HETATM   23  F1  UNL     1      27.281  -0.358  55.443  1.00  0.00    -0.206 F 
HETATM   24  C15 UNL     1      26.853  -0.459  53.105  1.00  0.00     0.043 A 
HETATM   25  C16 UNL     1      26.452   0.184  51.952  1.00  0.00     0.012 A 
ENDBRANCH   4  19
TORSDOF 4
ENDMDL
