MODEL 1
REMARK VINA RESULT:      -8.9      0.000      0.000
REMARK  4 active torsions:
REMARK  status: ('A' for Active; 'I' for Inactive)
REMARK    1  A    between atoms: C2_2  and  N1_3 
REMARK    2  A    between atoms: C2_2  and  C14_19 
REMARK    3  A    between atoms: N1_3  and  C3_4 
REMARK    4  A    between atoms: C6_10  and  C7_11 
ROOT
HETATM    1  C3  UNL     1      24.759   2.761  52.548  1.00  0.00     0.135 A 
HETATM    2  N2  UNL     1      24.142   3.649  53.261  1.00  0.00    -0.224 NA
HETATM    3  C4  UNL     1      23.387   4.687  52.667  1.00  0.00     0.232 A 
HETATM    4  N3  UNL     1      23.186   4.932  51.453  1.00  0.00    -0.252 NA
HETATM    5  C5  UNL     1      23.632   4.271  50.277  1.00  0.00     0.246 A 
HETATM    6  N4  UNL     1      24.629   5.065  49.590  1.00  0.00    -0.362 N 
HETATM    7  C6  UNL     1      25.956   4.660  49.445  1.00  0.00     0.041 A 
HETATM    8  C13 UNL     1      26.217   3.477  49.981  1.00  0.00     0.048 A 
HETATM    9  P1  UNL     1      24.689   2.799  50.734  1.00  0.00     0.027 P 
HETATM   10  H8  UNL     1      24.136   5.949  49.262  1.00  0.00     0.162 HD
ENDROOT
BRANCH   1  11
HETATM   11  N1  UNL     1      25.458   1.807  53.325  1.00  0.00    -0.366 N 
HETATM   12  H5  UNL     1      25.771   2.131  54.291  1.00  0.00     0.162 HD
BRANCH  11  13
HETATM   13  C2  UNL     1      25.747   0.462  52.862  1.00  0.00     0.112 C 
HETATM   14  C1  UNL     1      24.803  -0.492  53.559  1.00  0.00     0.037 C 
BRANCH  13  15
HETATM   15  C14 UNL     1      27.123   0.021  53.105  1.00  0.00    -0.036 A 
HETATM   16  C15 UNL     1      27.564  -1.280  52.927  1.00  0.00     0.009 A 
HETATM   17  C16 UNL     1      28.891  -1.634  53.178  1.00  0.00     0.001 A 
HETATM   18  C17 UNL     1      29.806  -0.688  53.614  1.00  0.00     0.000 A 
HETATM   19  C18 UNL     1      29.435   0.612  53.809  1.00  0.00     0.001 A 
HETATM   20  C19 UNL     1      28.113   0.906  53.547  1.00  0.00     0.009 A 
ENDBRANCH  13  15
ENDBRANCH  11  13
ENDBRANCH   1  11
BRANCH   7  21
HETATM   21  C7  UNL     1      26.879   5.550  48.744  1.00  0.00    -0.010 A 
HETATM   22  C8  UNL     1      26.604   6.787  48.234  1.00  0.00     0.013 A 
HETATM   23  C9  UNL     1      27.540   7.554  47.588  1.00  0.00     0.001 A 
HETATM   24  C10 UNL     1      28.834   7.108  47.418  1.00  0.00     0.000 A 
HETATM   25  C11 UNL     1      29.095   5.864  47.937  1.00  0.00     0.001 A 
HETATM   26  C12 UNL     1      28.164   5.082  48.587  1.00  0.00     0.013 A 
ENDBRANCH   7  21
TORSDOF 4
ENDMDL
MODEL 2
REMARK VINA RESULT:      -8.8      1.591      6.964
REMARK  4 active torsions:
REMARK  status: ('A' for Active; 'I' for Inactive)
REMARK    1  A    between atoms: C2_2  and  N1_3 
REMARK    2  A    between atoms: C2_2  and  C14_19 
REMARK    3  A    between atoms: N1_3  and  C3_4 
REMARK    4  A    between atoms: C6_10  and  C7_11 
ROOT
HETATM    1  C3  UNL     1      23.784   2.811  50.334  1.00  0.00     0.135 A 
HETATM    2  N2  UNL     1      22.783   2.023  50.097  1.00  0.00    -0.224 NA
HETATM    3  C4  UNL     1      22.299   1.119  51.071  1.00  0.00     0.232 A 
HETATM    4  N3  UNL     1      22.701   0.918  52.242  1.00  0.00    -0.252 NA
HETATM    5  C5  UNL     1      23.758   1.512  52.985  1.00  0.00     0.246 A 
HETATM    6  N4  UNL     1      24.851   0.578  53.155  1.00  0.00    -0.362 N 
HETATM    7  C6  UNL     1      26.113   0.774  52.592  1.00  0.00     0.041 A 
HETATM    8  C13 UNL     1      26.223   1.898  51.899  1.00  0.00     0.048 A 
HETATM    9  P1  UNL     1      24.626   2.799  51.943  1.00  0.00     0.027 P 
HETATM   10  H8  UNL     1      24.478  -0.215  53.756  1.00  0.00     0.162 HD
ENDROOT
BRANCH   1  11
HETATM   11  N1  UNL     1      24.118   3.638  49.236  1.00  0.00    -0.366 N 
HETATM   12  H5  UNL     1      24.127   3.165  48.282  1.00  0.00     0.162 HD
BRANCH  11  13
HETATM   13  C2  UNL     1      24.434   5.048  49.371  1.00  0.00     0.112 C 
HETATM   14  C1  UNL     1      23.443   5.837  48.543  1.00  0.00     0.037 C 
BRANCH  13  15
HETATM   15  C14 UNL     1      25.790   5.408  48.946  1.00  0.00    -0.036 A 
HETATM   16  C15 UNL     1      26.877   4.554  49.016  1.00  0.00     0.009 A 
HETATM   17  C16 UNL     1      28.144   4.961  48.593  1.00  0.00     0.001 A 
HETATM   18  C17 UNL     1      28.347   6.237  48.092  1.00  0.00     0.000 A 
HETATM   19  C18 UNL     1      27.316   7.128  47.996  1.00  0.00     0.001 A 
HETATM   20  C19 UNL     1      26.088   6.673  48.428  1.00  0.00     0.009 A 
ENDBRANCH  13  15
ENDBRANCH  11  13
ENDBRANCH   1  11
BRANCH   7  21
HETATM   21  C7  UNL     1      27.138  -0.243  52.819  1.00  0.00    -0.010 A 
HETATM   22  C8  UNL     1      28.405  -0.045  53.289  1.00  0.00     0.013 A 
HETATM   23  C9  UNL     1      29.302  -1.067  53.471  1.00  0.00     0.001 A 
HETATM   24  C10 UNL     1      28.964  -2.372  53.185  1.00  0.00     0.000 A 
HETATM   25  C11 UNL     1      27.688  -2.555  52.715  1.00  0.00     0.001 A 
HETATM   26  C12 UNL     1      26.776  -1.538  52.526  1.00  0.00     0.013 A 
ENDBRANCH   7  21
TORSDOF 4
ENDMDL
MODEL 3
REMARK VINA RESULT:      -8.7      1.631      6.994
REMARK  4 active torsions:
REMARK  status: ('A' for Active; 'I' for Inactive)
REMARK    1  A    between atoms: C2_2  and  N1_3 
REMARK    2  A    between atoms: C2_2  and  C14_19 
REMARK    3  A    between atoms: N1_3  and  C3_4 
REMARK    4  A    between atoms: C6_10  and  C7_11 
ROOT
HETATM    1  C3  UNL     1      23.636   2.733  50.334  1.00  0.00     0.135 A 
HETATM    2  N2  UNL     1      22.630   1.951  50.102  1.00  0.00    -0.224 NA
HETATM    3  C4  UNL     1      22.150   1.045  51.077  1.00  0.00     0.232 A 
HETATM    4  N3  UNL     1      22.563   0.837  52.243  1.00  0.00    -0.252 NA
HETATM    5  C5  UNL     1      23.628   1.422  52.979  1.00  0.00     0.246 A 
HETATM    6  N4  UNL     1      24.719   0.483  53.134  1.00  0.00    -0.362 N 
HETATM    7  C6  UNL     1      25.977   0.675  52.561  1.00  0.00     0.041 A 
HETATM    8  C13 UNL     1      26.085   1.802  51.872  1.00  0.00     0.048 A 
HETATM    9  P1  UNL     1      24.493   2.710  51.935  1.00  0.00     0.027 P 
HETATM   10  H8  UNL     1      24.348  -0.312  53.735  1.00  0.00     0.162 HD
ENDROOT
BRANCH   1  11
HETATM   11  N1  UNL     1      23.964   3.565  49.237  1.00  0.00    -0.366 N 
HETATM   12  H5  UNL     1      24.025   3.082  48.289  1.00  0.00     0.162 HD
BRANCH  11  13
HETATM   13  C2  UNL     1      24.207   4.989  49.364  1.00  0.00     0.112 C 
HETATM   14  C1  UNL     1      23.189   5.721  48.517  1.00  0.00     0.037 C 
BRANCH  13  15
HETATM   15  C14 UNL     1      25.548   5.414  48.954  1.00  0.00    -0.036 A 
HETATM   16  C15 UNL     1      25.845   6.668  48.449  1.00  0.00     0.009 A 
HETATM   17  C16 UNL     1      27.147   7.007  48.076  1.00  0.00     0.001 A 
HETATM   18  C17 UNL     1      28.181   6.093  48.203  1.00  0.00     0.000 A 
HETATM   19  C18 UNL     1      27.955   4.839  48.696  1.00  0.00     0.001 A 
HETATM   20  C19 UNL     1      26.652   4.557  49.047  1.00  0.00     0.009 A 
ENDBRANCH  13  15
ENDBRANCH  11  13
ENDBRANCH   1  11
BRANCH   7  21
HETATM   21  C7  UNL     1      26.999  -0.346  52.774  1.00  0.00    -0.010 A 
HETATM   22  C8  UNL     1      26.875  -1.691  52.569  1.00  0.00     0.013 A 
HETATM   23  C9  UNL     1      27.896  -2.579  52.797  1.00  0.00     0.001 A 
HETATM   24  C10 UNL     1      29.125  -2.151  53.253  1.00  0.00     0.000 A 
HETATM   25  C11 UNL     1      29.234  -0.797  53.453  1.00  0.00     0.001 A 
HETATM   26  C12 UNL     1      28.216   0.106  53.228  1.00  0.00     0.013 A 
ENDBRANCH   7  21
TORSDOF 4
ENDMDL
MODEL 4
REMARK VINA RESULT:      -8.5      2.896      6.231
REMARK  4 active torsions:
REMARK  status: ('A' for Active; 'I' for Inactive)
REMARK    1  A    between atoms: C2_2  and  N1_3 
REMARK    2  A    between atoms: C2_2  and  C14_19 
REMARK    3  A    between atoms: N1_3  and  C3_4 
REMARK    4  A    between atoms: C6_10  and  C7_11 
ROOT
HETATM    1  C3  UNL     1      25.663   2.682  51.407  1.00  0.00     0.135 A 
HETATM    2  N2  UNL     1      25.523   3.020  50.165  1.00  0.00    -0.224 NA
HETATM    3  C4  UNL     1      24.371   3.699  49.703  1.00  0.00     0.232 A 
HETATM    4  N3  UNL     1      23.356   4.070  50.339  1.00  0.00    -0.252 NA
HETATM    5  C5  UNL     1      23.012   3.944  51.712  1.00  0.00     0.246 A 
HETATM    6  N4  UNL     1      21.953   2.973  51.887  1.00  0.00    -0.362 N 
HETATM    7  C6  UNL     1      22.129   1.769  52.571  1.00  0.00     0.041 A 
HETATM    8  C13 UNL     1      23.351   1.603  53.057  1.00  0.00     0.048 A 
HETATM    9  P1  UNL     1      24.378   3.062  52.634  1.00  0.00     0.027 P 
HETATM   10  H8  UNL     1      21.094   3.373  51.404  1.00  0.00     0.162 HD
ENDROOT
BRANCH   1  11
HETATM   11  N1  UNL     1      26.881   2.012  51.672  1.00  0.00    -0.366 N 
HETATM   12  H5  UNL     1      27.544   1.908  50.845  1.00  0.00     0.162 HD
BRANCH  11  13
HETATM   13  C2  UNL     1      27.233   1.489  52.979  1.00  0.00     0.112 C 
HETATM   14  C1  UNL     1      28.356   2.333  53.540  1.00  0.00     0.037 C 
BRANCH  13  15
HETATM   15  C14 UNL     1      27.659   0.087  52.975  1.00  0.00    -0.036 A 
HETATM   16  C15 UNL     1      26.868  -0.962  52.537  1.00  0.00     0.009 A 
HETATM   17  C16 UNL     1      27.337  -2.278  52.561  1.00  0.00     0.001 A 
HETATM   18  C17 UNL     1      28.610  -2.569  53.025  1.00  0.00     0.000 A 
HETATM   19  C18 UNL     1      29.439  -1.578  53.470  1.00  0.00     0.001 A 
HETATM   20  C19 UNL     1      28.926  -0.300  53.425  1.00  0.00     0.009 A 
ENDBRANCH  13  15
ENDBRANCH  11  13
ENDBRANCH   1  11
BRANCH   7  21
HETATM   21  C7  UNL     1      20.992   0.858  52.675  1.00  0.00    -0.010 A 
HETATM   22  C8  UNL     1      19.876   0.840  51.887  1.00  0.00     0.013 A 
HETATM   23  C9  UNL     1      18.854  -0.058  52.060  1.00  0.00     0.001 A 
HETATM   24  C10 UNL     1      18.902  -1.010  53.056  1.00  0.00     0.000 A 
HETATM   25  C11 UNL     1      20.030  -0.980  53.838  1.00  0.00     0.001 A 
HETATM   26  C12 UNL     1      21.064  -0.083  53.677  1.00  0.00     0.013 A 
ENDBRANCH   7  21
TORSDOF 4
ENDMDL
MODEL 5
REMARK VINA RESULT:      -8.4      2.605      5.779
REMARK  4 active torsions:
REMARK  status: ('A' for Active; 'I' for Inactive)
REMARK    1  A    between atoms: C2_2  and  N1_3 
REMARK    2  A    between atoms: C2_2  and  C14_19 
REMARK    3  A    between atoms: N1_3  and  C3_4 
REMARK    4  A    between atoms: C6_10  and  C7_11 
ROOT
HETATM    1  C3  UNL     1      22.478   3.707  51.597  1.00  0.00     0.135 A 
HETATM    2  N2  UNL     1      22.649   4.964  51.859  1.00  0.00    -0.224 NA
HETATM    3  C4  UNL     1      23.814   5.657  51.454  1.00  0.00     0.232 A 
HETATM    4  N3  UNL     1      24.815   5.236  50.826  1.00  0.00    -0.252 NA
HETATM    5  C5  UNL     1      25.124   3.948  50.311  1.00  0.00     0.246 A 
HETATM    6  N4  UNL     1      26.176   3.326  51.088  1.00  0.00    -0.362 N 
HETATM    7  C6  UNL     1      25.979   2.173  51.850  1.00  0.00     0.041 A 
HETATM    8  C13 UNL     1      24.746   1.694  51.787  1.00  0.00     0.048 A 
HETATM    9  P1  UNL     1      23.733   2.758  50.689  1.00  0.00     0.027 P 
HETATM   10  H8  UNL     1      27.047   3.918  50.943  1.00  0.00     0.162 HD
ENDROOT
BRANCH   1  11
HETATM   11  N1  UNL     1      21.252   3.195  52.083  1.00  0.00    -0.366 N 
HETATM   12  H5  UNL     1      20.695   3.845  52.717  1.00  0.00     0.162 HD
BRANCH  11  13
HETATM   13  C2  UNL     1      20.758   1.870  51.756  1.00  0.00     0.112 C 
HETATM   14  C1  UNL     1      19.248   1.932  51.685  1.00  0.00     0.037 C 
BRANCH  13  15
HETATM   15  C14 UNL     1      21.139   0.829  52.713  1.00  0.00    -0.036 A 
HETATM   16  C15 UNL     1      20.751   0.816  54.042  1.00  0.00     0.009 A 
HETATM   17  C16 UNL     1      21.150  -0.209  54.902  1.00  0.00     0.001 A 
HETATM   18  C17 UNL     1      21.951  -1.245  54.446  1.00  0.00     0.000 A 
HETATM   19  C18 UNL     1      22.368  -1.291  53.145  1.00  0.00     0.001 A 
HETATM   20  C19 UNL     1      21.944  -0.254  52.341  1.00  0.00     0.009 A 
ENDBRANCH  13  15
ENDBRANCH  11  13
ENDBRANCH   1  11
BRANCH   7  21
HETATM   21  C7  UNL     1      27.111   1.641  52.604  1.00  0.00    -0.010 A 
HETATM   22  C8  UNL     1      28.045   2.353  53.302  1.00  0.00     0.013 A 
HETATM   23  C9  UNL     1      29.077   1.762  53.985  1.00  0.00     0.001 A 
HETATM   24  C10 UNL     1      29.229   0.392  54.004  1.00  0.00     0.000 A 
HETATM   25  C11 UNL     1      28.282  -0.310  53.299  1.00  0.00     0.001 A 
HETATM   26  C12 UNL     1      27.240   0.270  52.608  1.00  0.00     0.013 A 
ENDBRANCH   7  21
TORSDOF 4
ENDMDL
MODEL 6
REMARK VINA RESULT:      -7.9      1.816      3.070
REMARK  4 active torsions:
REMARK  status: ('A' for Active; 'I' for Inactive)
REMARK    1  A    between atoms: C2_2  and  N1_3 
REMARK    2  A    between atoms: C2_2  and  C14_19 
REMARK    3  A    between atoms: N1_3  and  C3_4 
REMARK    4  A    between atoms: C6_10  and  C7_11 
ROOT
HETATM    1  C3  UNL     1      24.311   5.024  51.083  1.00  0.00     0.135 A 
HETATM    2  N2  UNL     1      23.972   6.162  51.599  1.00  0.00    -0.224 NA
HETATM    3  C4  UNL     1      23.940   7.349  50.829  1.00  0.00     0.232 A 
HETATM    4  N3  UNL     1      24.209   7.519  49.615  1.00  0.00    -0.252 NA
HETATM    5  C5  UNL     1      24.628   6.605  48.611  1.00  0.00     0.246 A 
HETATM    6  N4  UNL     1      26.017   6.825  48.268  1.00  0.00    -0.362 N 
HETATM    7  C6  UNL     1      27.019   5.885  48.514  1.00  0.00     0.041 A 
HETATM    8  C13 UNL     1      26.580   4.769  49.079  1.00  0.00     0.048 A 
HETATM    9  P1  UNL     1      24.768   4.886  49.330  1.00  0.00     0.027 P 
HETATM   10  H8  UNL     1      26.070   7.791  47.827  1.00  0.00     0.162 HD
ENDROOT
BRANCH   1  11
HETATM   11  N1  UNL     1      24.281   3.957  52.012  1.00  0.00    -0.366 N 
HETATM   12  H5  UNL     1      24.670   4.172  52.980  1.00  0.00     0.162 HD
BRANCH  11  13
HETATM   13  C2  UNL     1      23.759   2.641  51.694  1.00  0.00     0.112 C 
HETATM   14  C1  UNL     1      22.416   2.487  52.373  1.00  0.00     0.037 C 
BRANCH  13  15
HETATM   15  C14 UNL     1      24.622   1.531  52.109  1.00  0.00    -0.036 A 
HETATM   16  C15 UNL     1      25.936   1.377  51.702  1.00  0.00     0.009 A 
HETATM   17  C16 UNL     1      26.704   0.294  52.136  1.00  0.00     0.001 A 
HETATM   18  C17 UNL     1      26.168  -0.660  52.988  1.00  0.00     0.000 A 
HETATM   19  C18 UNL     1      24.877  -0.564  53.426  1.00  0.00     0.001 A 
HETATM   20  C19 UNL     1      24.165   0.523  52.966  1.00  0.00     0.009 A 
ENDBRANCH  13  15
ENDBRANCH  11  13
ENDBRANCH   1  11
BRANCH   7  21
HETATM   21  C7  UNL     1      28.390   6.219  48.138  1.00  0.00    -0.010 A 
HETATM   22  C8  UNL     1      29.472   5.385  48.138  1.00  0.00     0.013 A 
HETATM   23  C9  UNL     1      30.728   5.791  47.765  1.00  0.00     0.001 A 
HETATM   24  C10 UNL     1      30.969   7.087  47.361  1.00  0.00     0.000 A 
HETATM   25  C11 UNL     1      29.873   7.912  47.366  1.00  0.00     0.001 A 
HETATM   26  C12 UNL     1      28.604   7.519  47.738  1.00  0.00     0.013 A 
ENDBRANCH   7  21
TORSDOF 4
ENDMDL
MODEL 7
REMARK VINA RESULT:      -7.8      1.911      7.231
REMARK  4 active torsions:
REMARK  status: ('A' for Active; 'I' for Inactive)
REMARK    1  A    between atoms: C2_2  and  N1_3 
REMARK    2  A    between atoms: C2_2  and  C14_19 
REMARK    3  A    between atoms: N1_3  and  C3_4 
REMARK    4  A    between atoms: C6_10  and  C7_11 
ROOT
HETATM    1  C3  UNL     1      23.508   2.589  50.384  1.00  0.00     0.135 A 
HETATM    2  N2  UNL     1      22.525   1.764  50.212  1.00  0.00    -0.224 NA
HETATM    3  C4  UNL     1      22.110   0.877  51.233  1.00  0.00     0.232 A 
HETATM    4  N3  UNL     1      22.566   0.725  52.392  1.00  0.00    -0.252 NA
HETATM    5  C5  UNL     1      23.631   1.375  53.072  1.00  0.00     0.246 A 
HETATM    6  N4  UNL     1      24.760   0.481  53.225  1.00  0.00    -0.362 N 
HETATM    7  C6  UNL     1      25.992   0.698  52.604  1.00  0.00     0.041 A 
HETATM    8  C13 UNL     1      26.037   1.803  51.874  1.00  0.00     0.048 A 
HETATM    9  P1  UNL     1      24.415   2.654  51.957  1.00  0.00     0.027 P 
HETATM   10  H8  UNL     1      24.438  -0.304  53.865  1.00  0.00     0.162 HD
ENDROOT
BRANCH   1  11
HETATM   11  N1  UNL     1      23.771   3.392  49.249  1.00  0.00    -0.366 N 
HETATM   12  H5  UNL     1      24.325   2.925  48.468  1.00  0.00     0.162 HD
BRANCH  11  13
HETATM   13  C2  UNL     1      23.327   4.768  49.128  1.00  0.00     0.112 C 
HETATM   14  C1  UNL     1      22.706   4.947  47.760  1.00  0.00     0.037 C 
BRANCH  13  15
HETATM   15  C14 UNL     1      24.389   5.764  49.294  1.00  0.00    -0.036 A 
HETATM   16  C15 UNL     1      24.234   6.956  49.980  1.00  0.00     0.009 A 
HETATM   17  C16 UNL     1      25.290   7.863  50.101  1.00  0.00     0.001 A 
HETATM   18  C17 UNL     1      26.525   7.591  49.534  1.00  0.00     0.000 A 
HETATM   19  C18 UNL     1      26.743   6.431  48.845  1.00  0.00     0.001 A 
HETATM   20  C19 UNL     1      25.667   5.574  48.756  1.00  0.00     0.009 A 
ENDBRANCH  13  15
ENDBRANCH  11  13
ENDBRANCH   1  11
BRANCH   7  21
HETATM   21  C7  UNL     1      27.057  -0.278  52.820  1.00  0.00    -0.010 A 
HETATM   22  C8  UNL     1      28.323  -0.031  53.268  1.00  0.00     0.013 A 
HETATM   23  C9  UNL     1      29.261  -1.017  53.441  1.00  0.00     0.001 A 
HETATM   24  C10 UNL     1      28.967  -2.336  53.167  1.00  0.00     0.000 A 
HETATM   25  C11 UNL     1      27.691  -2.569  52.718  1.00  0.00     0.001 A 
HETATM   26  C12 UNL     1      26.739  -1.587  52.539  1.00  0.00     0.013 A 
ENDBRANCH   7  21
TORSDOF 4
ENDMDL
MODEL 8
REMARK VINA RESULT:      -7.7      5.074      8.325
REMARK  4 active torsions:
REMARK  status: ('A' for Active; 'I' for Inactive)
REMARK    1  A    between atoms: C2_2  and  N1_3 
REMARK    2  A    between atoms: C2_2  and  C14_19 
REMARK    3  A    between atoms: N1_3  and  C3_4 
REMARK    4  A    between atoms: C6_10  and  C7_11 
ROOT
HETATM    1  C3  UNL     1      31.672   7.214  46.276  1.00  0.00     0.135 A 
HETATM    2  N2  UNL     1      31.411   8.429  45.912  1.00  0.00    -0.224 NA
HETATM    3  C4  UNL     1      30.758   9.342  46.774  1.00  0.00     0.232 A 
HETATM    4  N3  UNL     1      30.342   9.173  47.946  1.00  0.00    -0.252 NA
HETATM    5  C5  UNL     1      30.379   8.037  48.799  1.00  0.00     0.246 A 
HETATM    6  N4  UNL     1      29.056   7.470  48.953  1.00  0.00    -0.362 N 
HETATM    7  C6  UNL     1      28.712   6.200  48.486  1.00  0.00     0.041 A 
HETATM    8  C13 UNL     1      29.712   5.556  47.900  1.00  0.00     0.048 A 
HETATM    9  P1  UNL     1      31.213   6.610  47.926  1.00  0.00     0.027 P 
HETATM   10  H8  UNL     1      28.473   8.200  49.461  1.00  0.00     0.162 HD
ENDROOT
BRANCH   1  11
HETATM   11  N1  UNL     1      32.328   6.458  45.276  1.00  0.00    -0.366 N 
HETATM   12  H5  UNL     1      31.811   6.366  44.348  1.00  0.00     0.162 HD
BRANCH  11  13
HETATM   13  C2  UNL     1      33.624   5.836  45.471  1.00  0.00     0.112 C 
HETATM   14  C1  UNL     1      34.209   5.522  44.112  1.00  0.00     0.037 C 
BRANCH  13  15
HETATM   15  C14 UNL     1      33.590   4.602  46.262  1.00  0.00    -0.036 A 
HETATM   16  C15 UNL     1      34.507   4.289  47.250  1.00  0.00     0.009 A 
HETATM   17  C16 UNL     1      34.416   3.094  47.967  1.00  0.00     0.001 A 
HETATM   18  C17 UNL     1      33.401   2.186  47.707  1.00  0.00     0.000 A 
HETATM   19  C18 UNL     1      32.464   2.437  46.745  1.00  0.00     0.001 A 
HETATM   20  C19 UNL     1      32.602   3.630  46.068  1.00  0.00     0.009 A 
ENDBRANCH  13  15
ENDBRANCH  11  13
ENDBRANCH   1  11
BRANCH   7  21
HETATM   21  C7  UNL     1      27.342   5.736  48.686  1.00  0.00    -0.010 A 
HETATM   22  C8  UNL     1      26.194   6.456  48.513  1.00  0.00     0.013 A 
HETATM   23  C9  UNL     1      24.944   5.932  48.725  1.00  0.00     0.001 A 
HETATM   24  C10 UNL     1      24.778   4.625  49.132  1.00  0.00     0.000 A 
HETATM   25  C11 UNL     1      25.940   3.915  49.301  1.00  0.00     0.001 A 
HETATM   26  C12 UNL     1      27.203   4.428  49.092  1.00  0.00     0.013 A 
ENDBRANCH   7  21
TORSDOF 4
ENDMDL
MODEL 9
REMARK VINA RESULT:      -7.6      3.314      7.695
REMARK  4 active torsions:
REMARK  status: ('A' for Active; 'I' for Inactive)
REMARK    1  A    between atoms: C2_2  and  N1_3 
REMARK    2  A    between atoms: C2_2  and  C14_19 
REMARK    3  A    between atoms: N1_3  and  C3_4 
REMARK    4  A    between atoms: C6_10  and  C7_11 
ROOT
HETATM    1  C3  UNL     1      22.794   4.181  49.517  1.00  0.00     0.135 A 
HETATM    2  N2  UNL     1      22.541   3.596  48.389  1.00  0.00    -0.224 NA
HETATM    3  C4  UNL     1      21.371   2.823  48.198  1.00  0.00     0.232 A 
HETATM    4  N3  UNL     1      20.442   2.572  49.001  1.00  0.00    -0.252 NA
HETATM    5  C5  UNL     1      20.237   2.966  50.352  1.00  0.00     0.246 A 
HETATM    6  N4  UNL     1      20.424   1.842  51.245  1.00  0.00    -0.362 N 
HETATM    7  C6  UNL     1      21.456   1.779  52.183  1.00  0.00     0.041 A 
HETATM    8  C13 UNL     1      22.240   2.846  52.190  1.00  0.00     0.048 A 
HETATM    9  P1  UNL     1      21.656   4.039  50.925  1.00  0.00     0.027 P 
HETATM   10  H8  UNL     1      19.651   1.147  51.021  1.00  0.00     0.162 HD
ENDROOT
BRANCH   1  11
HETATM   11  N1  UNL     1      24.009   4.906  49.511  1.00  0.00    -0.366 N 
HETATM   12  H5  UNL     1      23.922   5.961  49.635  1.00  0.00     0.162 HD
BRANCH  11  13
HETATM   13  C2  UNL     1      25.308   4.281  49.347  1.00  0.00     0.112 C 
HETATM   14  C1  UNL     1      25.693   3.639  50.661  1.00  0.00     0.037 C 
BRANCH  13  15
HETATM   15  C14 UNL     1      26.376   5.200  48.945  1.00  0.00    -0.036 A 
HETATM   16  C15 UNL     1      26.213   6.568  48.810  1.00  0.00     0.009 A 
HETATM   17  C16 UNL     1      27.275   7.388  48.422  1.00  0.00     0.001 A 
HETATM   18  C17 UNL     1      28.526   6.851  48.160  1.00  0.00     0.000 A 
HETATM   19  C18 UNL     1      28.753   5.508  48.276  1.00  0.00     0.001 A 
HETATM   20  C19 UNL     1      27.670   4.747  48.661  1.00  0.00     0.009 A 
ENDBRANCH  13  15
ENDBRANCH  11  13
ENDBRANCH   1  11
BRANCH   7  21
HETATM   21  C7  UNL     1      21.555   0.589  53.025  1.00  0.00    -0.010 A 
HETATM   22  C8  UNL     1      20.535  -0.233  53.414  1.00  0.00     0.013 A 
HETATM   23  C9  UNL     1      20.726  -1.334  54.209  1.00  0.00     0.001 A 
HETATM   24  C10 UNL     1      21.981  -1.677  54.665  1.00  0.00     0.000 A 
HETATM   25  C11 UNL     1      22.995  -0.842  54.265  1.00  0.00     0.001 A 
HETATM   26  C12 UNL     1      22.818   0.268  53.467  1.00  0.00     0.013 A 
ENDBRANCH   7  21
TORSDOF 4
ENDMDL
