MODEL 1
REMARK VINA RESULT:      -8.4      0.000      0.000
REMARK  0 active torsions:
REMARK  status: ('A' for Active; 'I' for Inactive)
ROOT
HETATM    1  C1  UNL     1      19.441   3.620  48.244  1.00  0.00     0.000 C 
HETATM    2  O1  UNL     1      19.817   3.417  49.599  1.00  0.00     0.000 OA
HETATM    3  C2  UNL     1      19.688   2.163  50.142  1.00  0.00    -0.068 A 
HETATM    4  C3  UNL     1      20.295   2.868  51.070  1.00  0.00     0.058 A 
HETATM    5  C4  UNL     1      20.914   4.048  51.706  1.00  0.00     0.225 C 
HETATM    6  C5  UNL     1      20.780   5.287  50.814  1.00  0.00     0.043 C 
HETATM    7  N1  UNL     1      22.294   3.737  51.922  1.00  0.00     0.090 N 
HETATM    8  C6  UNL     1      23.107   4.774  52.469  1.00  0.00     0.296 C 
HETATM    9  C7  UNL     1      24.539   4.179  52.584  1.00  0.00     0.205 C 
HETATM   10  O2  UNL     1      24.910   3.800  51.279  1.00  0.00    -0.354 OA
HETATM   11  C8  UNL     1      25.927   2.947  50.926  1.00  0.00     0.044 C 
HETATM   12  C9  UNL     1      26.533   3.590  49.737  1.00  0.00     0.076 C 
HETATM   13  C10 UNL     1      26.417   1.813  51.373  1.00  0.00     0.063 C 
HETATM   14  C11 UNL     1      26.103   0.929  52.459  1.00  0.00     0.084 A 
HETATM   15  N2  UNL     1      26.648   1.495  53.488  1.00  0.00    -0.243 NA
HETATM   16  C12 UNL     1      26.437   0.740  54.671  1.00  0.00     0.230 A 
HETATM   17  N3  UNL     1      25.763  -0.293  54.372  1.00  0.00    -0.249 NA
HETATM   18  C13 UNL     1      25.482  -0.277  52.936  1.00  0.00     0.282 A 
HETATM   19  N4  UNL     1      24.024  -0.246  52.745  1.00  0.00    -0.268 NA
HETATM   20  C14 UNL     1      23.321  -0.800  53.718  1.00  0.00     0.116 C 
HETATM   21  C15 UNL     1      21.920  -1.036  54.029  1.00  0.00     0.062 C 
HETATM   22  C16 UNL     1      20.635  -0.985  53.796  1.00  0.00     0.135 C 
HETATM   23  F1  UNL     1      19.678  -1.465  54.630  1.00  0.00    -0.205 F 
HETATM   24  C17 UNL     1      19.902  -0.457  52.662  1.00  0.00     0.053 A 
HETATM   25 CL1  UNL     1      18.161  -0.463  52.495  1.00  0.00    -0.172 Cl
HETATM   26  C18 UNL     1      19.715   0.116  51.491  1.00  0.00     0.122 A 
HETATM   27  C19 UNL     1      19.298   0.742  50.190  1.00  0.00     0.060 C 
HETATM   28  H9  UNL     1      22.748   3.289  51.106  1.00  0.00     0.316 HD
ENDROOT
TORSDOF 0
ENDMDL
MODEL 2
REMARK VINA RESULT:      -7.8      3.701      5.783
REMARK  0 active torsions:
REMARK  status: ('A' for Active; 'I' for Inactive)
ROOT
HETATM    1  C1  UNL     1      19.507   6.304  49.639  1.00  0.00     0.000 C 
HETATM    2  O1  UNL     1      20.498   5.359  49.257  1.00  0.00     0.000 OA
HETATM    3  C2  UNL     1      21.821   5.709  49.362  1.00  0.00    -0.068 A 
HETATM    4  C3  UNL     1      21.837   4.439  49.025  1.00  0.00     0.058 A 
HETATM    5  C4  UNL     1      21.298   3.111  48.668  1.00  0.00     0.225 C 
HETATM    6  C5  UNL     1      19.770   3.148  48.566  1.00  0.00     0.043 C 
HETATM    7  N1  UNL     1      21.708   2.200  49.694  1.00  0.00     0.090 N 
HETATM    8  C6  UNL     1      21.233   0.859  49.586  1.00  0.00     0.296 C 
HETATM    9  C7  UNL     1      21.808   0.101  50.816  1.00  0.00     0.205 C 
HETATM   10  O2  UNL     1      21.326   0.781  51.952  1.00  0.00    -0.354 OA
HETATM   11  C8  UNL     1      21.813   0.693  53.233  1.00  0.00     0.044 C 
HETATM   12  C9  UNL     1      20.595   0.676  54.076  1.00  0.00     0.076 C 
HETATM   13  C10 UNL     1      22.997   0.626  53.800  1.00  0.00     0.063 C 
HETATM   14  C11 UNL     1      24.351   0.616  53.325  1.00  0.00     0.084 A 
HETATM   15  N2  UNL     1      24.537  -0.607  52.942  1.00  0.00    -0.243 NA
HETATM   16  C12 UNL     1      25.850  -0.802  52.439  1.00  0.00     0.230 A 
HETATM   17  N3  UNL     1      26.474   0.301  52.512  1.00  0.00    -0.249 NA
HETATM   18  C13 UNL     1      25.585   1.313  53.082  1.00  0.00     0.282 A 
HETATM   19  N4  UNL     1      25.411   2.392  52.097  1.00  0.00    -0.268 NA
HETATM   20  C14 UNL     1      26.426   2.557  51.265  1.00  0.00     0.116 C 
HETATM   21  C15 UNL     1      26.771   3.429  50.154  1.00  0.00     0.062 C 
HETATM   22  C16 UNL     1      26.560   4.406  49.312  1.00  0.00     0.135 C 
HETATM   23  F1  UNL     1      27.426   4.789  48.340  1.00  0.00    -0.205 F 
HETATM   24  C17 UNL     1      25.437   5.313  49.180  1.00  0.00     0.053 A 
HETATM   25 CL1  UNL     1      25.301   6.585  47.987  1.00  0.00    -0.172 Cl
HETATM   26  C18 UNL     1      24.268   5.852  49.455  1.00  0.00     0.122 A 
HETATM   27  C19 UNL     1      22.971   6.598  49.609  1.00  0.00     0.060 C 
HETATM   28  H9  UNL     1      21.580   2.573  50.651  1.00  0.00     0.316 HD
ENDROOT
TORSDOF 0
ENDMDL
MODEL 3
REMARK VINA RESULT:      -7.4      1.380      1.650
REMARK  0 active torsions:
REMARK  status: ('A' for Active; 'I' for Inactive)
ROOT
HETATM    1  C1  UNL     1      19.661   4.980  46.942  1.00  0.00     0.000 C 
HETATM    2  O1  UNL     1      19.904   4.743  48.322  1.00  0.00     0.000 OA
HETATM    3  C2  UNL     1      19.689   3.485  48.826  1.00  0.00    -0.068 A 
HETATM    4  C3  UNL     1      20.227   4.155  49.820  1.00  0.00     0.058 A 
HETATM    5  C4  UNL     1      20.817   5.305  50.534  1.00  0.00     0.225 C 
HETATM    6  C5  UNL     1      20.802   6.562  49.658  1.00  0.00     0.043 C 
HETATM    7  N1  UNL     1      22.163   4.948  50.870  1.00  0.00     0.090 N 
HETATM    8  C6  UNL     1      22.951   5.951  51.510  1.00  0.00     0.296 C 
HETATM    9  C7  UNL     1      24.348   5.311  51.746  1.00  0.00     0.205 C 
HETATM   10  O2  UNL     1      24.828   4.943  50.473  1.00  0.00    -0.354 OA
HETATM   11  C8  UNL     1      25.848   4.066  50.199  1.00  0.00     0.044 C 
HETATM   12  C9  UNL     1      26.580   4.710  49.084  1.00  0.00     0.076 C 
HETATM   13  C10 UNL     1      26.262   2.909  50.667  1.00  0.00     0.063 C 
HETATM   14  C11 UNL     1      25.823   2.018  51.701  1.00  0.00     0.084 A 
HETATM   15  N2  UNL     1      26.286   2.548  52.788  1.00  0.00    -0.243 NA
HETATM   16  C12 UNL     1      25.944   1.781  53.931  1.00  0.00     0.230 A 
HETATM   17  N3  UNL     1      25.272   0.774  53.550  1.00  0.00    -0.249 NA
HETATM   18  C13 UNL     1      25.126   0.823  52.095  1.00  0.00     0.282 A 
HETATM   19  N4  UNL     1      23.693   0.902  51.770  1.00  0.00    -0.268 NA
HETATM   20  C14 UNL     1      22.887   0.353  52.663  1.00  0.00     0.116 C 
HETATM   21  C15 UNL     1      21.458   0.154  52.839  1.00  0.00     0.062 C 
HETATM   22  C16 UNL     1      20.202   0.248  52.489  1.00  0.00     0.135 C 
HETATM   23  F1  UNL     1      19.158  -0.217  53.221  1.00  0.00    -0.205 F 
HETATM   24  C17 UNL     1      19.593   0.816  51.303  1.00  0.00     0.053 A 
HETATM   25 CL1  UNL     1      17.875   0.866  50.976  1.00  0.00    -0.172 Cl
HETATM   26  C18 UNL     1      19.533   1.414  50.131  1.00  0.00     0.122 A 
HETATM   27  C19 UNL     1      19.256   2.076  48.810  1.00  0.00     0.060 C 
HETATM   28  H9  UNL     1      22.677   4.500  50.091  1.00  0.00     0.316 HD
ENDROOT
TORSDOF 0
ENDMDL
MODEL 4
REMARK VINA RESULT:      -7.4      1.996      2.952
REMARK  0 active torsions:
REMARK  status: ('A' for Active; 'I' for Inactive)
ROOT
HETATM    1  C1  UNL     1      22.461   5.119  47.347  1.00  0.00     0.000 C 
HETATM    2  O1  UNL     1      21.977   4.808  48.647  1.00  0.00     0.000 OA
HETATM    3  C2  UNL     1      20.988   3.865  48.777  1.00  0.00    -0.068 A 
HETATM    4  C3  UNL     1      21.333   4.159  50.010  1.00  0.00     0.058 A 
HETATM    5  C4  UNL     1      22.068   4.827  51.103  1.00  0.00     0.225 C 
HETATM    6  C5  UNL     1      23.029   5.886  50.552  1.00  0.00     0.043 C 
HETATM    7  N1  UNL     1      22.795   3.812  51.805  1.00  0.00     0.090 N 
HETATM    8  C6  UNL     1      23.639   4.249  52.869  1.00  0.00     0.296 C 
HETATM    9  C7  UNL     1      24.307   2.966  53.439  1.00  0.00     0.205 C 
HETATM   10  O2  UNL     1      25.008   2.381  52.366  1.00  0.00    -0.354 OA
HETATM   11  C8  UNL     1      25.472   1.091  52.291  1.00  0.00     0.044 C 
HETATM   12  C9  UNL     1      26.803   1.230  51.656  1.00  0.00     0.076 C 
HETATM   13  C10 UNL     1      25.033  -0.101  52.627  1.00  0.00     0.063 C 
HETATM   14  C11 UNL     1      23.838  -0.607  53.240  1.00  0.00     0.084 A 
HETATM   15  N2  UNL     1      24.020  -0.389  54.503  1.00  0.00    -0.243 NA
HETATM   16  C12 UNL     1      22.918  -0.840  55.275  1.00  0.00     0.230 A 
HETATM   17  N3  UNL     1      22.056  -1.338  54.487  1.00  0.00    -0.249 NA
HETATM   18  C13 UNL     1      22.553  -1.240  53.115  1.00  0.00     0.282 A 
HETATM   19  N4  UNL     1      21.617  -0.414  52.336  1.00  0.00    -0.268 NA
HETATM   20  C14 UNL     1      20.366  -0.435  52.762  1.00  0.00     0.116 C 
HETATM   21  C15 UNL     1      19.095   0.162  52.385  1.00  0.00     0.062 C 
HETATM   22  C16 UNL     1      18.313   0.906  51.648  1.00  0.00     0.135 C 
HETATM   23  F1  UNL     1      16.984   1.080  51.861  1.00  0.00    -0.205 F 
HETATM   24  C17 UNL     1      18.601   1.695  50.467  1.00  0.00     0.053 A 
HETATM   25 CL1  UNL     1      17.432   2.649  49.581  1.00  0.00    -0.172 Cl
HETATM   26  C18 UNL     1      19.321   2.216  49.495  1.00  0.00     0.122 A 
HETATM   27  C19 UNL     1      19.965   2.905  48.325  1.00  0.00     0.060 C 
HETATM   28  H9  UNL     1      23.284   3.149  51.179  1.00  0.00     0.316 HD
ENDROOT
TORSDOF 0
ENDMDL
MODEL 5
REMARK VINA RESULT:      -7.3      5.591      8.866
REMARK  0 active torsions:
REMARK  status: ('A' for Active; 'I' for Inactive)
ROOT
HETATM    1  C1  UNL     1      27.230  10.934  46.570  1.00  0.00     0.000 C 
HETATM    2  O1  UNL     1      26.589   9.668  46.484  1.00  0.00     0.000 OA
HETATM    3  C2  UNL     1      26.992   8.664  47.328  1.00  0.00    -0.068 A 
HETATM    4  C3  UNL     1      25.947   8.173  46.700  1.00  0.00     0.058 A 
HETATM    5  C4  UNL     1      24.806   8.138  45.764  1.00  0.00     0.225 C 
HETATM    6  C5  UNL     1      24.740   9.421  44.929  1.00  0.00     0.043 C 
HETATM    7  N1  UNL     1      23.618   7.994  46.550  1.00  0.00     0.090 N 
HETATM    8  C6  UNL     1      22.378   8.008  45.846  1.00  0.00     0.296 C 
HETATM    9  C7  UNL     1      21.270   7.850  46.926  1.00  0.00     0.205 C 
HETATM   10  O2  UNL     1      21.430   8.936  47.809  1.00  0.00    -0.354 OA
HETATM   11  C8  UNL     1      20.914   9.049  49.077  1.00  0.00     0.044 C 
HETATM   12  C9  UNL     1      20.474  10.462  49.156  1.00  0.00     0.076 C 
HETATM   13  C10 UNL     1      20.747   8.257  50.112  1.00  0.00     0.063 C 
HETATM   14  C11 UNL     1      21.037   6.881  50.394  1.00  0.00     0.084 A 
HETATM   15  N2  UNL     1      20.068   6.236  49.828  1.00  0.00    -0.243 NA
HETATM   16  C12 UNL     1      20.194   4.835  50.014  1.00  0.00     0.230 A 
HETATM   17  N3  UNL     1      21.241   4.615  50.698  1.00  0.00    -0.249 NA
HETATM   18  C13 UNL     1      21.882   5.893  51.008  1.00  0.00     0.282 A 
HETATM   19  N4  UNL     1      23.231   5.894  50.419  1.00  0.00    -0.268 NA
HETATM   20  C14 UNL     1      23.785   4.701  50.290  1.00  0.00     0.116 C 
HETATM   21  C15 UNL     1      25.036   4.147  49.798  1.00  0.00     0.062 C 
HETATM   22  C16 UNL     1      26.234   4.217  49.279  1.00  0.00     0.135 C 
HETATM   23  F1  UNL     1      27.029   3.147  49.022  1.00  0.00    -0.205 F 
HETATM   24  C17 UNL     1      27.019   5.363  48.869  1.00  0.00     0.053 A 
HETATM   25 CL1  UNL     1      28.628   5.293  48.183  1.00  0.00    -0.172 Cl
HETATM   26  C18 UNL     1      27.310   6.632  48.664  1.00  0.00     0.122 A 
HETATM   27  C19 UNL     1      27.824   8.010  48.355  1.00  0.00     0.060 C 
HETATM   28  H9  UNL     1      23.593   8.617  47.376  1.00  0.00     0.316 HD
ENDROOT
TORSDOF 0
ENDMDL
MODEL 6
REMARK VINA RESULT:      -7.1      4.213      6.752
REMARK  0 active torsions:
REMARK  status: ('A' for Active; 'I' for Inactive)
ROOT
HETATM    1  C1  UNL     1      21.202   8.762  47.018  1.00  0.00     0.000 C 
HETATM    2  O1  UNL     1      21.800   7.473  47.056  1.00  0.00     0.000 OA
HETATM    3  C2  UNL     1      23.002   7.320  47.700  1.00  0.00    -0.068 A 
HETATM    4  C3  UNL     1      22.641   6.100  47.372  1.00  0.00     0.058 A 
HETATM    5  C4  UNL     1      21.803   5.029  46.797  1.00  0.00     0.225 C 
HETATM    6  C5  UNL     1      20.582   5.613  46.079  1.00  0.00     0.043 C 
HETATM    7  N1  UNL     1      21.389   4.189  47.881  1.00  0.00     0.090 N 
HETATM    8  C6  UNL     1      20.503   3.118  47.559  1.00  0.00     0.296 C 
HETATM    9  C7  UNL     1      20.209   2.388  48.900  1.00  0.00     0.205 C 
HETATM   10  O2  UNL     1      19.640   3.354  49.753  1.00  0.00    -0.354 OA
HETATM   11  C8  UNL     1      19.520   3.278  51.119  1.00  0.00     0.044 C 
HETATM   12  C9  UNL     1      18.174   3.835  51.388  1.00  0.00     0.076 C 
HETATM   13  C10 UNL     1      20.263   2.861  52.120  1.00  0.00     0.063 C 
HETATM   14  C11 UNL     1      21.570   2.282  52.241  1.00  0.00     0.084 A 
HETATM   15  N2  UNL     1      21.388   1.036  51.942  1.00  0.00    -0.243 NA
HETATM   16  C12 UNL     1      22.598   0.299  52.017  1.00  0.00     0.230 A 
HETATM   17  N3  UNL     1      23.528   1.091  52.364  1.00  0.00    -0.249 NA
HETATM   18  C13 UNL     1      22.968   2.431  52.540  1.00  0.00     0.282 A 
HETATM   19  N4  UNL     1      23.630   3.343  51.594  1.00  0.00    -0.268 NA
HETATM   20  C14 UNL     1      24.861   2.999  51.255  1.00  0.00     0.116 C 
HETATM   21  C15 UNL     1      25.921   3.512  50.402  1.00  0.00     0.062 C 
HETATM   22  C16 UNL     1      26.456   4.364  49.569  1.00  0.00     0.135 C 
HETATM   23  F1  UNL     1      27.703   4.256  49.045  1.00  0.00    -0.205 F 
HETATM   24  C17 UNL     1      25.930   5.593  49.008  1.00  0.00     0.053 A 
HETATM   25 CL1  UNL     1      26.779   6.639  47.892  1.00  0.00    -0.172 Cl
HETATM   26  C18 UNL     1      25.063   6.560  48.791  1.00  0.00     0.122 A 
HETATM   27  C19 UNL     1      24.218   7.746  48.416  1.00  0.00     0.060 C 
HETATM   28  H9  UNL     1      21.062   4.717  48.709  1.00  0.00     0.316 HD
ENDROOT
TORSDOF 0
ENDMDL
MODEL 7
REMARK VINA RESULT:      -7.1      8.136     10.283
REMARK  0 active torsions:
REMARK  status: ('A' for Active; 'I' for Inactive)
ROOT
HETATM    1  C1  UNL     1      26.103  12.510  45.467  1.00  0.00     0.000 C 
HETATM    2  O1  UNL     1      26.462  11.705  46.581  1.00  0.00     0.000 OA
HETATM    3  C2  UNL     1      26.035  10.401  46.621  1.00  0.00    -0.068 A 
HETATM    4  C3  UNL     1      26.834  10.523  47.657  1.00  0.00     0.058 A 
HETATM    5  C4  UNL     1      27.756  11.182  48.604  1.00  0.00     0.225 C 
HETATM    6  C5  UNL     1      27.913  12.669  48.274  1.00  0.00     0.043 C 
HETATM    7  N1  UNL     1      29.018  10.513  48.500  1.00  0.00     0.090 N 
HETATM    8  C6  UNL     1      30.088  11.037  49.285  1.00  0.00     0.296 C 
HETATM    9  C7  UNL     1      31.323  10.145  48.975  1.00  0.00     0.205 C 
HETATM   10  O2  UNL     1      31.539  10.247  47.586  1.00  0.00    -0.354 OA
HETATM   11  C8  UNL     1      32.290   9.404  46.804  1.00  0.00     0.044 C 
HETATM   12  C9  UNL     1      32.999  10.317  45.878  1.00  0.00     0.076 C 
HETATM   13  C10 UNL     1      32.489   8.108  46.719  1.00  0.00     0.063 C 
HETATM   14  C11 UNL     1      31.997   6.958  47.421  1.00  0.00     0.084 A 
HETATM   15  N2  UNL     1      32.704   6.929  48.505  1.00  0.00    -0.243 NA
HETATM   16  C12 UNL     1      32.348   5.831  49.331  1.00  0.00     0.230 A 
HETATM   17  N3  UNL     1      31.422   5.181  48.756  1.00  0.00    -0.249 NA
HETATM   18  C13 UNL     1      31.105   5.832  47.484  1.00  0.00     0.282 A 
HETATM   19  N4  UNL     1      29.697   6.259  47.516  1.00  0.00    -0.268 NA
HETATM   20  C14 UNL     1      28.910   5.532  48.291  1.00  0.00     0.116 C 
HETATM   21  C15 UNL     1      27.508   5.508  48.673  1.00  0.00     0.062 C 
HETATM   22  C16 UNL     1      26.271   5.931  48.650  1.00  0.00     0.135 C 
HETATM   23  F1  UNL     1      25.253   5.383  49.360  1.00  0.00    -0.205 F 
HETATM   24  C17 UNL     1      25.659   7.015  47.910  1.00  0.00     0.053 A 
HETATM   25 CL1  UNL     1      23.969   7.463  47.986  1.00  0.00    -0.172 Cl
HETATM   26  C18 UNL     1      25.584   8.035  47.078  1.00  0.00     0.122 A 
HETATM   27  C19 UNL     1      25.296   9.204  46.180  1.00  0.00     0.060 C 
HETATM   28  H9  UNL     1      29.312  10.340  47.523  1.00  0.00     0.316 HD
ENDROOT
TORSDOF 0
ENDMDL
MODEL 8
REMARK VINA RESULT:      -7.0      6.101      9.028
REMARK  0 active torsions:
REMARK  status: ('A' for Active; 'I' for Inactive)
ROOT
HETATM    1  C1  UNL     1      25.942  11.988  46.710  1.00  0.00     0.000 C 
HETATM    2  O1  UNL     1      25.870  10.587  46.489  1.00  0.00     0.000 OA
HETATM    3  C2  UNL     1      26.785   9.771  47.105  1.00  0.00    -0.068 A 
HETATM    4  C3  UNL     1      25.940   8.947  46.526  1.00  0.00     0.058 A 
HETATM    5  C4  UNL     1      24.771   8.523  45.731  1.00  0.00     0.225 C 
HETATM    6  C5  UNL     1      24.045   9.732  45.132  1.00  0.00     0.043 C 
HETATM    7  N1  UNL     1      23.899   7.805  46.611  1.00  0.00     0.090 N 
HETATM    8  C6  UNL     1      22.660   7.359  46.062  1.00  0.00     0.296 C 
HETATM    9  C7  UNL     1      21.917   6.633  47.219  1.00  0.00     0.205 C 
HETATM   10  O2  UNL     1      21.768   7.586  48.246  1.00  0.00    -0.354 OA
HETATM   11  C8  UNL     1      21.477   7.338  49.565  1.00  0.00     0.044 C 
HETATM   12  C9  UNL     1      20.520   8.410  49.924  1.00  0.00     0.076 C 
HETATM   13  C10 UNL     1      21.827   6.449  50.468  1.00  0.00     0.063 C 
HETATM   14  C11 UNL     1      22.697   5.309  50.484  1.00  0.00     0.084 A 
HETATM   15  N2  UNL     1      21.994   4.373  49.932  1.00  0.00    -0.243 NA
HETATM   16  C12 UNL     1      22.710   3.149  49.869  1.00  0.00     0.230 A 
HETATM   17  N3  UNL     1      23.856   3.330  50.385  1.00  0.00    -0.249 NA
HETATM   18  C13 UNL     1      23.963   4.720  50.828  1.00  0.00     0.282 A 
HETATM   19  N4  UNL     1      25.071   5.358  50.099  1.00  0.00    -0.268 NA
HETATM   20  C14 UNL     1      26.033   4.537  49.714  1.00  0.00     0.116 C 
HETATM   21  C15 UNL     1      27.296   4.626  49.000  1.00  0.00     0.062 C 
HETATM   22  C16 UNL     1      28.253   5.253  48.369  1.00  0.00     0.135 C 
HETATM   23  F1  UNL     1      29.358   4.659  47.851  1.00  0.00    -0.205 F 
HETATM   24  C17 UNL     1      28.420   6.661  48.067  1.00  0.00     0.053 A 
HETATM   25 CL1  UNL     1      29.773   7.356  47.203  1.00  0.00    -0.172 Cl
HETATM   26  C18 UNL     1      28.128   7.945  48.043  1.00  0.00     0.122 A 
HETATM   27  C19 UNL     1      27.974   9.435  47.910  1.00  0.00     0.060 C 
HETATM   28  H9  UNL     1      23.764   8.269  47.526  1.00  0.00     0.316 HD
ENDROOT
TORSDOF 0
ENDMDL
MODEL 9
REMARK VINA RESULT:      -6.8      2.832      4.130
REMARK  0 active torsions:
REMARK  status: ('A' for Active; 'I' for Inactive)
ROOT
HETATM    1  C1  UNL     1      15.513   1.439  48.152  1.00  0.00     0.000 C 
HETATM    2  O1  UNL     1      16.332   1.966  49.187  1.00  0.00     0.000 OA
HETATM    3  C2  UNL     1      17.088   1.102  49.938  1.00  0.00    -0.068 A 
HETATM    4  C3  UNL     1      17.455   2.300  50.336  1.00  0.00     0.058 A 
HETATM    5  C4  UNL     1      17.481   3.776  50.390  1.00  0.00     0.225 C 
HETATM    6  C5  UNL     1      16.422   4.378  49.461  1.00  0.00     0.043 C 
HETATM    7  N1  UNL     1      18.791   4.190  49.988  1.00  0.00     0.090 N 
HETATM    8  C6  UNL     1      19.019   5.596  49.900  1.00  0.00     0.296 C 
HETATM    9  C7  UNL     1      20.494   5.762  49.436  1.00  0.00     0.205 C 
HETATM   10  O2  UNL     1      20.591   5.096  48.199  1.00  0.00    -0.354 OA
HETATM   11  C8  UNL     1      21.742   4.691  47.569  1.00  0.00     0.044 C 
HETATM   12  C9  UNL     1      21.495   5.004  46.142  1.00  0.00     0.076 C 
HETATM   13  C10 UNL     1      22.884   4.149  47.928  1.00  0.00     0.063 C 
HETATM   14  C11 UNL     1      23.459   3.723  49.171  1.00  0.00     0.084 A 
HETATM   15  N2  UNL     1      23.886   4.820  49.709  1.00  0.00    -0.243 NA
HETATM   16  C12 UNL     1      24.500   4.581  50.966  1.00  0.00     0.230 A 
HETATM   17  N3  UNL     1      24.453   3.335  51.203  1.00  0.00    -0.249 NA
HETATM   18  C13 UNL     1      23.787   2.664  50.087  1.00  0.00     0.282 A 
HETATM   19  N4  UNL     1      22.578   1.997  50.596  1.00  0.00    -0.268 NA
HETATM   20  C14 UNL     1      22.635   1.631  51.865  1.00  0.00     0.116 C 
HETATM   21  C15 UNL     1      21.773   0.968  52.830  1.00  0.00     0.062 C 
HETATM   22  C16 UNL     1      20.675   0.374  53.219  1.00  0.00     0.135 C 
HETATM   23  F1  UNL     1      20.452  -0.094  54.472  1.00  0.00    -0.205 F 
HETATM   24  C17 UNL     1      19.469   0.048  52.485  1.00  0.00     0.053 A 
HETATM   25 CL1  UNL     1      18.068  -0.760  53.154  1.00  0.00    -0.172 Cl
HETATM   26  C18 UNL     1      18.650  -0.025  51.456  1.00  0.00     0.122 A 
HETATM   27  C19 UNL     1      17.582  -0.203  50.413  1.00  0.00     0.060 C 
HETATM   28  H9  UNL     1      19.140   3.696  49.148  1.00  0.00     0.316 HD
ENDROOT
TORSDOF 0
ENDMDL
