MODEL 1
REMARK VINA RESULT:      -8.2      0.000      0.000
REMARK  2 active torsions:
REMARK  status: ('A' for Active; 'I' for Inactive)
REMARK    1  A    between atoms: C2_2  and  C3_3 
REMARK       I    between atoms: C3_3  and  N1_5 
REMARK    2  A    between atoms: N1_5  and  C4_6 
ROOT
HETATM    1  C4  UNL     1      23.427   3.801  51.088  1.00  0.00     0.035 A 
HETATM    2  C5  UNL     1      22.520   2.851  50.661  1.00  0.00     0.032 A 
HETATM    3  C6  UNL     1      22.489   1.576  51.185  1.00  0.00     0.040 A 
HETATM    4  C7  UNL     1      23.422   1.396  52.127  1.00  0.00     0.084 A 
HETATM    5  C8  UNL     1      24.402   2.284  52.650  1.00  0.00    -0.021 A 
HETATM    6  C9  UNL     1      24.365   3.547  52.067  1.00  0.00     0.039 A 
HETATM    7  C10 UNL     1      25.375   2.002  53.735  1.00  0.00     0.055 C 
HETATM    8  C11 UNL     1      26.224   0.845  53.746  1.00  0.00     0.071 C 
HETATM    9  C12 UNL     1      25.817  -0.442  53.071  1.00  0.00     0.003 C 
HETATM   10  C13 UNL     1      26.602  -1.303  52.366  1.00  0.00     0.013 C 
HETATM   11  C14 UNL     1      28.069  -1.340  52.634  1.00  0.00     0.017 C 
HETATM   12  C15 UNL     1      28.683  -0.864  53.740  1.00  0.00     0.085 C 
HETATM   13  N2  UNL     1      28.003  -0.282  54.882  1.00  0.00    -0.376 N 
HETATM   14  C16 UNL     1      26.672   0.323  55.083  1.00  0.00     0.215 C 
HETATM   15  N3  UNL     1      25.826  -0.459  55.876  1.00  0.00    -0.256 NA
HETATM   16  C17 UNL     1      24.615  -1.005  55.827  1.00  0.00     0.232 C 
HETATM   17  N4  UNL     1      23.937  -1.225  54.504  1.00  0.00    -0.217 NA
HETATM   18  C18 UNL     1      24.404  -0.558  53.402  1.00  0.00     0.177 C 
HETATM   19  O2  UNL     1      23.314   0.028  52.612  1.00  0.00    -0.291 OA
HETATM   20  H14 UNL     1      28.698  -0.357  55.682  1.00  0.00     0.161 HD
ENDROOT
BRANCH   1  21
HETATM   21  N1  UNL     1      23.440   5.129  50.523  1.00  0.00    -0.324 N 
HETATM   22  C3  UNL     1      22.661   6.294  50.585  1.00  0.00     0.241 C 
HETATM   23  O1  UNL     1      21.644   6.219  51.331  1.00  0.00    -0.269 OA
HETATM   24  H4  UNL     1      24.323   5.018  49.947  1.00  0.00     0.169 HD
BRANCH  22  25
HETATM   25  C2  UNL     1      23.148   7.404  49.777  1.00  0.00     0.048 C 
HETATM   26  C1  UNL     1      24.111   8.294  49.946  1.00  0.00     0.037 C 
ENDBRANCH  22  25
ENDBRANCH   1  21
TORSDOF 2
ENDMDL
MODEL 2
REMARK VINA RESULT:      -8.2      2.175      7.465
REMARK  2 active torsions:
REMARK  status: ('A' for Active; 'I' for Inactive)
REMARK    1  A    between atoms: C2_2  and  C3_3 
REMARK       I    between atoms: C3_3  and  N1_5 
REMARK    2  A    between atoms: N1_5  and  C4_6 
ROOT
HETATM    1  C4  UNL     1      26.383   0.858  52.574  1.00  0.00     0.035 A 
HETATM    2  C5  UNL     1      25.199   0.648  53.253  1.00  0.00     0.032 A 
HETATM    3  C6  UNL     1      24.032   1.299  52.916  1.00  0.00     0.040 A 
HETATM    4  C7  UNL     1      24.200   2.130  51.881  1.00  0.00     0.084 A 
HETATM    5  C8  UNL     1      25.354   2.431  51.105  1.00  0.00    -0.021 A 
HETATM    6  C9  UNL     1      26.486   1.731  51.512  1.00  0.00     0.039 A 
HETATM    7  C10 UNL     1      25.432   3.344  49.937  1.00  0.00     0.055 C 
HETATM    8  C11 UNL     1      24.931   4.689  49.958  1.00  0.00     0.071 C 
HETATM    9  C12 UNL     1      23.785   5.092  50.854  1.00  0.00     0.003 C 
HETATM   10  C13 UNL     1      23.632   6.256  51.546  1.00  0.00     0.013 C 
HETATM   11  C14 UNL     1      24.334   7.485  51.074  1.00  0.00     0.017 C 
HETATM   12  C15 UNL     1      24.840   7.680  49.835  1.00  0.00     0.085 C 
HETATM   13  N2  UNL     1      24.735   6.737  48.737  1.00  0.00    -0.376 N 
HETATM   14  C16 UNL     1      24.483   5.285  48.653  1.00  0.00     0.215 C 
HETATM   15  N3  UNL     1      23.234   4.974  48.105  1.00  0.00    -0.256 NA
HETATM   16  C17 UNL     1      22.147   4.269  48.404  1.00  0.00     0.232 C 
HETATM   17  N4  UNL     1      21.860   3.890  49.830  1.00  0.00    -0.217 NA
HETATM   18  C18 UNL     1      22.871   3.964  50.751  1.00  0.00     0.177 C 
HETATM   19  O2  UNL     1      22.924   2.772  51.606  1.00  0.00    -0.291 OA
HETATM   20  H14 UNL     1      24.890   7.318  47.862  1.00  0.00     0.161 HD
ENDROOT
BRANCH   1  21
HETATM   21  N1  UNL     1      27.592   0.162  52.946  1.00  0.00    -0.324 N 
HETATM   22  C3  UNL     1      28.631   0.306  53.876  1.00  0.00     0.241 C 
HETATM   23  O1  UNL     1      28.538   1.314  54.632  1.00  0.00    -0.269 OA
HETATM   24  H4  UNL     1      27.514  -0.624  52.237  1.00  0.00     0.169 HD
BRANCH  22  25
HETATM   25  C2  UNL     1      29.654  -0.730  53.822  1.00  0.00     0.048 C 
HETATM   26  C1  UNL     1      29.664  -1.972  53.367  1.00  0.00     0.037 C 
ENDBRANCH  22  25
ENDBRANCH   1  21
TORSDOF 2
ENDMDL
MODEL 3
REMARK VINA RESULT:      -8.1      4.877      7.560
REMARK  2 active torsions:
REMARK  status: ('A' for Active; 'I' for Inactive)
REMARK    1  A    between atoms: C2_2  and  C3_3 
REMARK       I    between atoms: C3_3  and  N1_5 
REMARK    2  A    between atoms: N1_5  and  C4_6 
ROOT
HETATM    1  C4  UNL     1      28.580   5.775  48.190  1.00  0.00     0.035 A 
HETATM    2  C5  UNL     1      28.068   7.057  48.166  1.00  0.00     0.032 A 
HETATM    3  C6  UNL     1      26.794   7.348  48.602  1.00  0.00     0.040 A 
HETATM    4  C7  UNL     1      26.149   6.259  49.036  1.00  0.00     0.084 A 
HETATM    5  C8  UNL     1      26.562   4.900  49.112  1.00  0.00    -0.021 A 
HETATM    6  C9  UNL     1      27.859   4.694  48.651  1.00  0.00     0.039 A 
HETATM    7  C10 UNL     1      25.783   3.758  49.654  1.00  0.00     0.055 C 
HETATM    8  C11 UNL     1      24.437   3.466  49.250  1.00  0.00     0.071 C 
HETATM    9  C12 UNL     1      23.501   4.549  48.772  1.00  0.00     0.003 C 
HETATM   10  C13 UNL     1      22.588   4.482  47.763  1.00  0.00     0.013 C 
HETATM   11  C14 UNL     1      22.037   3.155  47.363  1.00  0.00     0.017 C 
HETATM   12  C15 UNL     1      22.071   2.027  48.108  1.00  0.00     0.085 C 
HETATM   13  N2  UNL     1      22.607   1.937  49.453  1.00  0.00    -0.376 N 
HETATM   14  C16 UNL     1      23.553   2.756  50.238  1.00  0.00     0.215 C 
HETATM   15  N3  UNL     1      22.942   3.445  51.290  1.00  0.00    -0.256 NA
HETATM   16  C17 UNL     1      22.829   4.686  51.753  1.00  0.00     0.232 C 
HETATM   17  N4  UNL     1      23.095   5.858  50.851  1.00  0.00    -0.217 NA
HETATM   18  C18 UNL     1      23.778   5.652  49.682  1.00  0.00     0.177 C 
HETATM   19  O2  UNL     1      24.820   6.664  49.468  1.00  0.00    -0.291 OA
HETATM   20  H14 UNL     1      22.164   1.065  49.867  1.00  0.00     0.161 HD
ENDROOT
BRANCH   1  21
HETATM   21  N1  UNL     1      29.919   5.496  47.726  1.00  0.00    -0.324 N 
HETATM   22  C3  UNL     1      31.201   5.351  48.275  1.00  0.00     0.241 C 
HETATM   23  O1  UNL     1      31.267   5.494  49.529  1.00  0.00    -0.269 OA
HETATM   24  H4  UNL     1      29.685   5.409  46.695  1.00  0.00     0.169 HD
BRANCH  22  25
HETATM   25  C2  UNL     1      32.254   5.058  47.311  1.00  0.00     0.048 C 
HETATM   26  C1  UNL     1      32.434   4.087  46.432  1.00  0.00     0.037 C 
ENDBRANCH  22  25
ENDBRANCH   1  21
TORSDOF 2
ENDMDL
MODEL 4
REMARK VINA RESULT:      -8.0      2.898      6.857
REMARK  2 active torsions:
REMARK  status: ('A' for Active; 'I' for Inactive)
REMARK    1  A    between atoms: C2_2  and  C3_3 
REMARK       I    between atoms: C3_3  and  N1_5 
REMARK    2  A    between atoms: N1_5  and  C4_6 
ROOT
HETATM    1  C4  UNL     1      26.574   1.833  51.937  1.00  0.00     0.035 A 
HETATM    2  C5  UNL     1      26.756   2.461  50.721  1.00  0.00     0.032 A 
HETATM    3  C6  UNL     1      25.721   3.068  50.044  1.00  0.00     0.040 A 
HETATM    4  C7  UNL     1      24.561   2.969  50.704  1.00  0.00     0.084 A 
HETATM    5  C8  UNL     1      24.247   2.356  51.949  1.00  0.00    -0.021 A 
HETATM    6  C9  UNL     1      25.348   1.767  52.564  1.00  0.00     0.039 A 
HETATM    7  C10 UNL     1      22.926   2.335  52.627  1.00  0.00     0.055 C 
HETATM    8  C11 UNL     1      21.714   1.933  51.970  1.00  0.00     0.071 C 
HETATM    9  C12 UNL     1      21.529   2.096  50.481  1.00  0.00     0.003 C 
HETATM   10  C13 UNL     1      20.916   1.243  49.614  1.00  0.00     0.013 C 
HETATM   11  C14 UNL     1      19.886   0.294  50.128  1.00  0.00     0.017 C 
HETATM   12  C15 UNL     1      19.227   0.403  51.304  1.00  0.00     0.085 C 
HETATM   13  N2  UNL     1      19.377   1.501  52.242  1.00  0.00    -0.376 N 
HETATM   14  C16 UNL     1      20.424   2.516  52.473  1.00  0.00     0.215 C 
HETATM   15  N3  UNL     1      20.025   3.809  52.118  1.00  0.00    -0.256 NA
HETATM   16  C17 UNL     1      20.432   4.816  51.352  1.00  0.00     0.232 C 
HETATM   17  N4  UNL     1      21.400   4.571  50.229  1.00  0.00    -0.217 NA
HETATM   18  C18 UNL     1      22.115   3.403  50.215  1.00  0.00     0.177 C 
HETATM   19  O2  UNL     1      23.534   3.630  49.914  1.00  0.00    -0.291 OA
HETATM   20  H14 UNL     1      18.497   1.475  52.836  1.00  0.00     0.161 HD
ENDROOT
BRANCH   1  21
HETATM   21  N1  UNL     1      27.676   1.204  52.626  1.00  0.00    -0.324 N 
HETATM   22  C3  UNL     1      28.604   1.534  53.623  1.00  0.00     0.241 C 
HETATM   23  O1  UNL     1      28.496   2.703  54.091  1.00  0.00    -0.269 OA
HETATM   24  H4  UNL     1      27.625   0.269  52.127  1.00  0.00     0.169 HD
BRANCH  22  25
HETATM   25  C2  UNL     1      29.547   0.476  53.961  1.00  0.00     0.048 C 
HETATM   26  C1  UNL     1      29.530  -0.837  53.807  1.00  0.00     0.037 C 
ENDBRANCH  22  25
ENDBRANCH   1  21
TORSDOF 2
ENDMDL
MODEL 5
REMARK VINA RESULT:      -7.8      5.044      9.232
REMARK  2 active torsions:
REMARK  status: ('A' for Active; 'I' for Inactive)
REMARK    1  A    between atoms: C2_2  and  C3_3 
REMARK       I    between atoms: C3_3  and  N1_5 
REMARK    2  A    between atoms: N1_5  and  C4_6 
ROOT
HETATM    1  C4  UNL     1      26.083   3.790  50.091  1.00  0.00     0.035 A 
HETATM    2  C5  UNL     1      25.001   4.638  50.221  1.00  0.00     0.032 A 
HETATM    3  C6  UNL     1      24.970   5.887  49.639  1.00  0.00     0.040 A 
HETATM    4  C7  UNL     1      26.091   6.152  48.957  1.00  0.00     0.084 A 
HETATM    5  C8  UNL     1      27.262   5.371  48.750  1.00  0.00    -0.021 A 
HETATM    6  C9  UNL     1      27.210   4.128  49.371  1.00  0.00     0.039 A 
HETATM    7  C10 UNL     1      28.447   5.738  47.934  1.00  0.00     0.055 C 
HETATM    8  C11 UNL     1      29.141   6.987  48.077  1.00  0.00     0.071 C 
HETATM    9  C12 UNL     1      28.438   8.233  48.556  1.00  0.00     0.003 C 
HETATM   10  C13 UNL     1      28.918   9.197  49.391  1.00  0.00     0.013 C 
HETATM   11  C14 UNL     1      30.392   9.399  49.504  1.00  0.00     0.017 C 
HETATM   12  C15 UNL     1      31.319   8.971  48.617  1.00  0.00     0.085 C 
HETATM   13  N2  UNL     1      31.024   8.285  47.373  1.00  0.00    -0.376 N 
HETATM   14  C16 UNL     1      29.862   7.524  46.872  1.00  0.00     0.215 C 
HETATM   15  N3  UNL     1      29.172   8.182  45.849  1.00  0.00    -0.256 NA
HETATM   16  C17 UNL     1      27.938   8.584  45.559  1.00  0.00     0.232 C 
HETATM   17  N4  UNL     1      26.921   8.755  46.652  1.00  0.00    -0.217 NA
HETATM   18  C18 UNL     1      27.155   8.175  47.870  1.00  0.00     0.177 C 
HETATM   19  O2  UNL     1      25.967   7.485  48.388  1.00  0.00    -0.291 OA
HETATM   20  H14 UNL     1      31.890   8.421  46.773  1.00  0.00     0.161 HD
ENDROOT
BRANCH   1  21
HETATM   21  N1  UNL     1      26.090   2.487  50.711  1.00  0.00    -0.324 N 
HETATM   22  C3  UNL     1      26.796   1.818  51.721  1.00  0.00     0.241 C 
HETATM   23  O1  UNL     1      27.696   2.501  52.288  1.00  0.00    -0.269 OA
HETATM   24  H4  UNL     1      25.306   2.064  50.135  1.00  0.00     0.169 HD
BRANCH  22  25
HETATM   25  C2  UNL     1      26.380   0.442  51.956  1.00  0.00     0.048 C 
HETATM   26  C1  UNL     1      26.934  -0.577  52.590  1.00  0.00     0.037 C 
ENDBRANCH  22  25
ENDBRANCH   1  21
TORSDOF 2
ENDMDL
MODEL 6
REMARK VINA RESULT:      -7.2      8.040     10.970
REMARK  2 active torsions:
REMARK  status: ('A' for Active; 'I' for Inactive)
REMARK    1  A    between atoms: C2_2  and  C3_3 
REMARK       I    between atoms: C3_3  and  N1_5 
REMARK    2  A    between atoms: N1_5  and  C4_6 
ROOT
HETATM    1  C4  UNL     1      32.195   6.085  47.784  1.00  0.00     0.035 A 
HETATM    2  C5  UNL     1      32.651   7.220  48.426  1.00  0.00     0.032 A 
HETATM    3  C6  UNL     1      31.794   8.155  48.964  1.00  0.00     0.040 A 
HETATM    4  C7  UNL     1      30.510   7.824  48.785  1.00  0.00     0.084 A 
HETATM    5  C8  UNL     1      29.918   6.697  48.149  1.00  0.00    -0.021 A 
HETATM    6  C9  UNL     1      30.853   5.804  47.634  1.00  0.00     0.039 A 
HETATM    7  C10 UNL     1      28.469   6.394  48.038  1.00  0.00     0.055 C 
HETATM    8  C11 UNL     1      27.504   7.341  47.556  1.00  0.00     0.071 C 
HETATM    9  C12 UNL     1      27.710   8.828  47.710  1.00  0.00     0.003 C 
HETATM   10  C13 UNL     1      27.405   9.813  46.820  1.00  0.00     0.013 C 
HETATM   11  C14 UNL     1      26.341   9.575  45.802  1.00  0.00     0.017 C 
HETATM   12  C15 UNL     1      25.388   8.617  45.864  1.00  0.00     0.085 C 
HETATM   13  N2  UNL     1      25.212   7.691  46.966  1.00  0.00    -0.376 N 
HETATM   14  C16 UNL     1      26.091   7.206  48.049  1.00  0.00     0.215 C 
HETATM   15  N3  UNL     1      25.716   7.675  49.313  1.00  0.00    -0.256 NA
HETATM   16  C17 UNL     1      26.245   8.320  50.348  1.00  0.00     0.232 C 
HETATM   17  N4  UNL     1      27.490   9.144  50.171  1.00  0.00    -0.217 NA
HETATM   18  C18 UNL     1      28.259   8.949  49.054  1.00  0.00     0.177 C 
HETATM   19  O2  UNL     1      29.688   8.868  49.378  1.00  0.00    -0.291 OA
HETATM   20  H14 UNL     1      24.210   7.350  46.880  1.00  0.00     0.161 HD
ENDROOT
BRANCH   1  21
HETATM   21  N1  UNL     1      33.113   5.120  47.229  1.00  0.00    -0.324 N 
HETATM   22  C3  UNL     1      33.359   3.743  47.324  1.00  0.00     0.241 C 
HETATM   23  O1  UNL     1      32.588   3.113  48.104  1.00  0.00    -0.269 OA
HETATM   24  H4  UNL     1      33.663   5.796  46.624  1.00  0.00     0.169 HD
BRANCH  22  25
HETATM   25  C2  UNL     1      34.464   3.256  46.509  1.00  0.00     0.048 C 
HETATM   26  C1  UNL     1      35.125   3.764  45.483  1.00  0.00     0.037 C 
ENDBRANCH  22  25
ENDBRANCH   1  21
TORSDOF 2
ENDMDL
MODEL 7
REMARK VINA RESULT:      -6.9      6.100      9.734
REMARK  2 active torsions:
REMARK  status: ('A' for Active; 'I' for Inactive)
REMARK    1  A    between atoms: C2_2  and  C3_3 
REMARK       I    between atoms: C3_3  and  N1_5 
REMARK    2  A    between atoms: N1_5  and  C4_6 
ROOT
HETATM    1  C4  UNL     1      25.883   6.054  49.580  1.00  0.00     0.035 A 
HETATM    2  C5  UNL     1      25.683   7.197  50.329  1.00  0.00     0.032 A 
HETATM    3  C6  UNL     1      26.454   8.327  50.167  1.00  0.00     0.040 A 
HETATM    4  C7  UNL     1      27.387   8.169  49.221  1.00  0.00     0.084 A 
HETATM    5  C8  UNL     1      27.690   7.056  48.388  1.00  0.00    -0.021 A 
HETATM    6  C9  UNL     1      26.865   5.959  48.617  1.00  0.00     0.039 A 
HETATM    7  C10 UNL     1      28.725   6.990  47.326  1.00  0.00     0.055 C 
HETATM    8  C11 UNL     1      30.092   7.375  47.539  1.00  0.00     0.071 C 
HETATM    9  C12 UNL     1      30.471   8.412  48.568  1.00  0.00     0.003 C 
HETATM   10  C13 UNL     1      31.553   8.415  49.395  1.00  0.00     0.013 C 
HETATM   11  C14 UNL     1      32.774   7.651  49.005  1.00  0.00     0.017 C 
HETATM   12  C15 UNL     1      33.075   7.225  47.758  1.00  0.00     0.085 C 
HETATM   13  N2  UNL     1      32.279   7.491  46.574  1.00  0.00    -0.376 N 
HETATM   14  C16 UNL     1      30.869   7.869  46.351  1.00  0.00     0.215 C 
HETATM   15  N3  UNL     1      30.718   9.177  45.879  1.00  0.00    -0.256 NA
HETATM   16  C17 UNL     1      30.066  10.293  46.189  1.00  0.00     0.232 C 
HETATM   17  N4  UNL     1      29.544  10.503  47.583  1.00  0.00    -0.217 NA
HETATM   18  C18 UNL     1      29.434   9.423  48.418  1.00  0.00     0.177 C 
HETATM   19  O2  UNL     1      28.149   9.405  49.127  1.00  0.00    -0.291 OA
HETATM   20  H14 UNL     1      32.946   7.354  45.759  1.00  0.00     0.161 HD
ENDROOT
BRANCH   1  21
HETATM   21  N1  UNL     1      25.061   4.883  49.769  1.00  0.00    -0.324 N 
HETATM   22  C3  UNL     1      25.182   3.607  50.337  1.00  0.00     0.241 C 
HETATM   23  O1  UNL     1      26.311   3.350  50.843  1.00  0.00    -0.269 OA
HETATM   24  H4  UNL     1      24.186   5.261  49.302  1.00  0.00     0.169 HD
BRANCH  22  25
HETATM   25  C2  UNL     1      23.986   2.778  50.251  1.00  0.00     0.048 C 
HETATM   26  C1  UNL     1      23.282   2.108  51.147  1.00  0.00     0.037 C 
ENDBRANCH  22  25
ENDBRANCH   1  21
TORSDOF 2
ENDMDL
MODEL 8
REMARK VINA RESULT:      -6.8      9.257     12.219
REMARK  2 active torsions:
REMARK  status: ('A' for Active; 'I' for Inactive)
REMARK    1  A    between atoms: C2_2  and  C3_3 
REMARK       I    between atoms: C3_3  and  N1_5 
REMARK    2  A    between atoms: N1_5  and  C4_6 
ROOT
HETATM    1  C4  UNL     1      32.141   4.894  46.760  1.00  0.00     0.035 A 
HETATM    2  C5  UNL     1      32.585   5.455  45.579  1.00  0.00     0.032 A 
HETATM    3  C6  UNL     1      32.478   6.804  45.319  1.00  0.00     0.040 A 
HETATM    4  C7  UNL     1      31.907   7.468  46.331  1.00  0.00     0.084 A 
HETATM    5  C8  UNL     1      31.415   7.011  47.585  1.00  0.00    -0.021 A 
HETATM    6  C9  UNL     1      31.561   5.639  47.765  1.00  0.00     0.039 A 
HETATM    7  C10 UNL     1      30.832   7.839  48.672  1.00  0.00     0.055 C 
HETATM    8  C11 UNL     1      29.781   8.791  48.454  1.00  0.00     0.071 C 
HETATM    9  C12 UNL     1      29.604   9.484  47.125  1.00  0.00     0.003 C 
HETATM   10  C13 UNL     1      28.439   9.791  46.489  1.00  0.00     0.013 C 
HETATM   11  C14 UNL     1      27.189   9.951  47.288  1.00  0.00     0.017 C 
HETATM   12  C15 UNL     1      27.126  10.168  48.622  1.00  0.00     0.085 C 
HETATM   13  N2  UNL     1      28.275  10.335  49.491  1.00  0.00    -0.376 N 
HETATM   14  C16 UNL     1      29.701   9.966  49.389  1.00  0.00     0.215 C 
HETATM   15  N3  UNL     1      30.546  11.070  49.239  1.00  0.00    -0.256 NA
HETATM   16  C17 UNL     1      31.494  11.512  48.418  1.00  0.00     0.232 C 
HETATM   17  N4  UNL     1      31.605  10.963  47.024  1.00  0.00    -0.217 NA
HETATM   18  C18 UNL     1      30.970   9.787  46.724  1.00  0.00     0.177 C 
HETATM   19  O2  UNL     1      31.834   8.874  45.964  1.00  0.00    -0.291 OA
HETATM   20  H14 UNL     1      27.899  10.835  50.349  1.00  0.00     0.161 HD
ENDROOT
BRANCH   1  21
HETATM   21  N1  UNL     1      32.264   3.478  47.007  1.00  0.00    -0.324 N 
HETATM   22  C3  UNL     1      33.219   2.591  47.527  1.00  0.00     0.241 C 
HETATM   23  O1  UNL     1      34.300   3.127  47.901  1.00  0.00    -0.269 OA
HETATM   24  H4  UNL     1      31.306   3.198  46.647  1.00  0.00     0.169 HD
BRANCH  22  25
HETATM   25  C2  UNL     1      32.811   1.193  47.551  1.00  0.00     0.048 C 
HETATM   26  C1  UNL     1      32.049   0.456  46.760  1.00  0.00     0.037 C 
ENDBRANCH  22  25
ENDBRANCH   1  21
TORSDOF 2
ENDMDL
MODEL 9
REMARK VINA RESULT:      -6.7     22.938     24.773
REMARK  2 active torsions:
REMARK  status: ('A' for Active; 'I' for Inactive)
REMARK    1  A    between atoms: C2_2  and  C3_3 
REMARK       I    between atoms: C3_3  and  N1_5 
REMARK    2  A    between atoms: N1_5  and  C4_6 
ROOT
HETATM    1  C4  UNL     1      44.813   5.742  67.085  1.00  0.00     0.035 A 
HETATM    2  C5  UNL     1      44.521   6.355  68.287  1.00  0.00     0.032 A 
HETATM    3  C6  UNL     1      44.147   5.642  69.405  1.00  0.00     0.040 A 
HETATM    4  C7  UNL     1      44.108   4.325  69.172  1.00  0.00     0.084 A 
HETATM    5  C8  UNL     1      44.385   3.578  67.993  1.00  0.00    -0.021 A 
HETATM    6  C9  UNL     1      44.754   4.375  66.913  1.00  0.00     0.039 A 
HETATM    7  C10 UNL     1      44.356   2.102  67.844  1.00  0.00     0.055 C 
HETATM    8  C11 UNL     1      43.244   1.293  68.257  1.00  0.00     0.071 C 
HETATM    9  C12 UNL     1      42.333   1.716  69.383  1.00  0.00     0.003 C 
HETATM   10  C13 UNL     1      40.981   1.571  69.467  1.00  0.00     0.013 C 
HETATM   11  C14 UNL     1      40.312   0.493  68.683  1.00  0.00     0.017 C 
HETATM   12  C15 UNL     1      40.920  -0.592  68.152  1.00  0.00     0.085 C 
HETATM   13  N2  UNL     1      42.325  -0.916  68.307  1.00  0.00    -0.376 N 
HETATM   14  C16 UNL     1      43.527  -0.129  68.652  1.00  0.00     0.215 C 
HETATM   15  N3  UNL     1      44.045  -0.442  69.912  1.00  0.00    -0.256 NA
HETATM   16  C17 UNL     1      44.381   0.166  71.046  1.00  0.00     0.232 C 
HETATM   17  N4  UNL     1      43.819   1.521  71.372  1.00  0.00    -0.217 NA
HETATM   18  C18 UNL     1      43.255   2.264  70.368  1.00  0.00     0.177 C 
HETATM   19  O2  UNL     1      43.701   3.662  70.402  1.00  0.00    -0.291 OA
HETATM   20  H14 UNL     1      42.391  -1.956  68.105  1.00  0.00     0.161 HD
ENDROOT
BRANCH   1  21
HETATM   21  N1  UNL     1      45.203   6.512  65.927  1.00  0.00    -0.324 N 
HETATM   22  C3  UNL     1      44.582   7.258  64.917  1.00  0.00     0.241 C 
HETATM   23  O1  UNL     1      43.321   7.308  64.985  1.00  0.00    -0.269 OA
HETATM   24  H4  UNL     1      46.250   6.366  66.020  1.00  0.00     0.169 HD
BRANCH  22  25
HETATM   25  C2  UNL     1      45.489   7.858  63.947  1.00  0.00     0.048 C 
HETATM   26  C1  UNL     1      46.228   7.362  62.969  1.00  0.00     0.037 C 
ENDBRANCH  22  25
ENDBRANCH   1  21
TORSDOF 2
ENDMDL
