MODEL 1
REMARK VINA RESULT:      -7.9      0.000      0.000
REMARK  0 active torsions:
REMARK  status: ('A' for Active; 'I' for Inactive)
ROOT
HETATM    1  F1  UNL     1      27.075   0.643  54.123  1.00  0.00    -0.379 F 
HETATM    2  C1  UNL     1      27.540  -0.393  54.903  1.00  0.00     0.158 A 
HETATM    3  C2  UNL     1      28.502   0.436  54.555  1.00  0.00     0.195 A 
HETATM    4  C3  UNL     1      28.898   1.633  53.848  1.00  0.00     0.027 C 
HETATM    5  C4  UNL     1      28.198   2.485  53.135  1.00  0.00     0.094 C 
HETATM    6  N1  UNL     1      26.928   2.856  52.617  1.00  0.00    -0.341 N 
HETATM    7  S1  UNL     1      26.672   2.441  50.900  1.00  0.00    -0.051 SA
HETATM    8  C5  UNL     1      25.803   3.787  50.050  1.00  0.00     0.143 C 
HETATM    9  C6  UNL     1      24.419   3.895  50.588  1.00  0.00     0.095 C 
HETATM   10  N2  UNL     1      24.028   3.100  51.505  1.00  0.00    -0.300 NA
HETATM   11  C7  UNL     1      22.696   3.226  52.002  1.00  0.00     0.189 C 
HETATM   12  C8  UNL     1      21.805   2.214  51.327  1.00  0.00    -0.005 A 
HETATM   13  C9  UNL     1      21.823   2.284  49.947  1.00  0.00     0.012 A 
HETATM   14  C10 UNL     1      21.043   1.399  49.219  1.00  0.00     0.001 A 
HETATM   15  C11 UNL     1      20.280   0.481  49.910  1.00  0.00     0.003 A 
HETATM   16  C12 UNL     1      20.284   0.436  51.277  1.00  0.00     0.037 A 
HETATM   17  C13 UNL     1      21.046   1.299  52.023  1.00  0.00     0.079 A 
HETATM   18  O1  UNL     1      21.119   1.333  53.411  1.00  0.00    -0.330 OA
HETATM   19  C14 UNL     1      21.508   0.137  54.084  1.00  0.00     0.325 C 
HETATM   20  N3  UNL     1      22.842  -0.168  53.576  1.00  0.00    -0.260 NA
HETATM   21  C15 UNL     1      23.778  -0.612  54.302  1.00  0.00     0.189 C 
HETATM   22  N4  UNL     1      24.986  -1.105  54.862  1.00  0.00    -0.400 NA
HETATM   23  C16 UNL     1      26.111  -0.507  54.695  1.00  0.00     0.346 C 
HETATM   24  H4  UNL     1      26.317   3.332  53.343  1.00  0.00     0.173 HD
ENDROOT
TORSDOF 0
ENDMDL
MODEL 2
REMARK VINA RESULT:      -7.8      1.823      2.192
REMARK  0 active torsions:
REMARK  status: ('A' for Active; 'I' for Inactive)
ROOT
HETATM    1  F1  UNL     1      25.647   0.442  52.954  1.00  0.00    -0.379 F 
HETATM    2  C1  UNL     1      25.706  -0.865  53.385  1.00  0.00     0.158 A 
HETATM    3  C2  UNL     1      26.903  -0.336  53.244  1.00  0.00     0.195 A 
HETATM    4  C3  UNL     1      27.705   0.813  52.887  1.00  0.00     0.027 C 
HETATM    5  C4  UNL     1      27.361   2.012  52.479  1.00  0.00     0.094 C 
HETATM    6  N1  UNL     1      26.311   2.910  52.147  1.00  0.00    -0.341 N 
HETATM    7  S1  UNL     1      26.024   3.106  50.395  1.00  0.00    -0.051 SA
HETATM    8  C5  UNL     1      25.689   4.845  50.004  1.00  0.00     0.143 C 
HETATM    9  C6  UNL     1      24.391   5.245  50.613  1.00  0.00     0.095 C 
HETATM   10  N2  UNL     1      23.714   4.397  51.283  1.00  0.00    -0.300 NA
HETATM   11  C7  UNL     1      22.472   4.807  51.856  1.00  0.00     0.189 C 
HETATM   12  C8  UNL     1      21.336   4.380  50.963  1.00  0.00    -0.005 A 
HETATM   13  C9  UNL     1      21.447   4.828  49.661  1.00  0.00     0.012 A 
HETATM   14  C10 UNL     1      20.460   4.492  48.748  1.00  0.00     0.001 A 
HETATM   15  C11 UNL     1      19.403   3.720  49.184  1.00  0.00     0.003 A 
HETATM   16  C12 UNL     1      19.321   3.291  50.480  1.00  0.00     0.037 A 
HETATM   17  C13 UNL     1      20.284   3.607  51.405  1.00  0.00     0.079 A 
HETATM   18  O1  UNL     1      20.291   3.221  52.740  1.00  0.00    -0.330 OA
HETATM   19  C14 UNL     1      20.232   1.825  53.027  1.00  0.00     0.325 C 
HETATM   20  N3  UNL     1      21.416   1.256  52.392  1.00  0.00    -0.260 NA
HETATM   21  C15 UNL     1      22.116   0.343  52.919  1.00  0.00     0.189 C 
HETATM   22  N4  UNL     1      23.065  -0.656  53.261  1.00  0.00    -0.400 NA
HETATM   23  C16 UNL     1      24.331  -0.440  53.219  1.00  0.00     0.346 C 
HETATM   24  H4  UNL     1      25.853   3.334  53.005  1.00  0.00     0.173 HD
ENDROOT
TORSDOF 0
ENDMDL
MODEL 3
REMARK VINA RESULT:      -7.5      3.077      5.586
REMARK  0 active torsions:
REMARK  status: ('A' for Active; 'I' for Inactive)
ROOT
HETATM    1  F1  UNL     1      22.834  -0.067  53.379  1.00  0.00    -0.379 F 
HETATM    2  C1  UNL     1      23.602  -0.791  54.264  1.00  0.00     0.158 A 
HETATM    3  C2  UNL     1      22.330  -1.127  54.320  1.00  0.00     0.195 A 
HETATM    4  C3  UNL     1      20.984  -0.931  53.832  1.00  0.00     0.027 C 
HETATM    5  C4  UNL     1      20.507  -0.114  52.922  1.00  0.00     0.094 C 
HETATM    6  N1  UNL     1      20.771   0.912  51.974  1.00  0.00    -0.341 N 
HETATM    7  S1  UNL     1      20.353   2.559  52.522  1.00  0.00    -0.051 SA
HETATM    8  C5  UNL     1      19.592   3.497  51.168  1.00  0.00     0.143 C 
HETATM    9  C6  UNL     1      20.607   3.735  50.105  1.00  0.00     0.095 C 
HETATM   10  N2  UNL     1      21.795   3.293  50.247  1.00  0.00    -0.300 NA
HETATM   11  C7  UNL     1      22.747   3.535  49.211  1.00  0.00     0.189 C 
HETATM   12  C8  UNL     1      23.595   4.728  49.572  1.00  0.00    -0.005 A 
HETATM   13  C9  UNL     1      22.869   5.870  49.847  1.00  0.00     0.012 A 
HETATM   14  C10 UNL     1      23.545   7.030  50.193  1.00  0.00     0.001 A 
HETATM   15  C11 UNL     1      24.922   6.990  50.248  1.00  0.00     0.003 A 
HETATM   16  C12 UNL     1      25.614   5.843  49.971  1.00  0.00     0.037 A 
HETATM   17  C13 UNL     1      24.971   4.681  49.626  1.00  0.00     0.079 A 
HETATM   18  O1  UNL     1      25.581   3.468  49.327  1.00  0.00    -0.330 OA
HETATM   19  C14 UNL     1      26.445   2.900  50.310  1.00  0.00     0.325 C 
HETATM   20  N3  UNL     1      25.602   2.697  51.484  1.00  0.00    -0.260 NA
HETATM   21  C15 UNL     1      25.683   1.679  52.230  1.00  0.00     0.189 C 
HETATM   22  N4  UNL     1      25.555   0.669  53.221  1.00  0.00    -0.400 NA
HETATM   23  C16 UNL     1      24.422   0.135  53.510  1.00  0.00     0.346 C 
HETATM   24  H4  UNL     1      21.182   0.534  51.072  1.00  0.00     0.173 HD
ENDROOT
TORSDOF 0
ENDMDL
MODEL 4
REMARK VINA RESULT:      -7.5      3.219      6.705
REMARK  0 active torsions:
REMARK  status: ('A' for Active; 'I' for Inactive)
ROOT
HETATM    1  F1  UNL     1      19.348   0.494  52.017  1.00  0.00    -0.379 F 
HETATM    2  C1  UNL     1      18.153   0.463  51.332  1.00  0.00     0.158 A 
HETATM    3  C2  UNL     1      18.220  -0.475  52.254  1.00  0.00     0.195 A 
HETATM    4  C3  UNL     1      18.979  -1.111  53.307  1.00  0.00     0.027 C 
HETATM    5  C4  UNL     1      20.177  -0.859  53.781  1.00  0.00     0.094 C 
HETATM    6  N1  UNL     1      21.348  -0.057  53.715  1.00  0.00    -0.341 N 
HETATM    7  S1  UNL     1      22.721  -0.811  52.857  1.00  0.00    -0.051 SA
HETATM    8  C5  UNL     1      24.274  -0.459  53.727  1.00  0.00     0.143 C 
HETATM    9  C6  UNL     1      24.569   0.997  53.636  1.00  0.00     0.095 C 
HETATM   10  N2  UNL     1      23.770   1.771  53.013  1.00  0.00    -0.300 NA
HETATM   11  C7  UNL     1      24.077   3.163  52.941  1.00  0.00     0.189 C 
HETATM   12  C8  UNL     1      24.738   3.470  51.621  1.00  0.00    -0.005 A 
HETATM   13  C9  UNL     1      25.860   2.706  51.365  1.00  0.00     0.012 A 
HETATM   14  C10 UNL     1      26.548   2.899  50.177  1.00  0.00     0.001 A 
HETATM   15  C11 UNL     1      26.077   3.852  49.298  1.00  0.00     0.003 A 
HETATM   16  C12 UNL     1      24.962   4.593  49.580  1.00  0.00     0.037 A 
HETATM   17  C13 UNL     1      24.261   4.423  50.747  1.00  0.00     0.079 A 
HETATM   18  O1  UNL     1      23.121   5.123  51.125  1.00  0.00    -0.330 OA
HETATM   19  C14 UNL     1      21.999   5.086  50.245  1.00  0.00     0.325 C 
HETATM   20  N3  UNL     1      21.642   3.674  50.144  1.00  0.00    -0.260 NA
HETATM   21  C15 UNL     1      20.447   3.260  50.114  1.00  0.00     0.189 C 
HETATM   22  N4  UNL     1      19.233   2.525  50.060  1.00  0.00    -0.400 NA
HETATM   23  C16 UNL     1      18.998   1.534  50.845  1.00  0.00     0.346 C 
HETATM   24  H4  UNL     1      21.224   0.881  54.195  1.00  0.00     0.173 HD
ENDROOT
TORSDOF 0
ENDMDL
MODEL 5
REMARK VINA RESULT:      -7.3      3.330      5.326
REMARK  0 active torsions:
REMARK  status: ('A' for Active; 'I' for Inactive)
ROOT
HETATM    1  F1  UNL     1      26.196   5.692  48.970  1.00  0.00    -0.379 F 
HETATM    2  C1  UNL     1      27.479   5.385  48.573  1.00  0.00     0.158 A 
HETATM    3  C2  UNL     1      27.085   6.554  48.114  1.00  0.00     0.195 A 
HETATM    4  C3  UNL     1      26.045   7.554  48.030  1.00  0.00     0.027 C 
HETATM    5  C4  UNL     1      24.835   7.586  48.539  1.00  0.00     0.094 C 
HETATM    6  N1  UNL     1      23.844   6.931  49.319  1.00  0.00    -0.341 N 
HETATM    7  S1  UNL     1      22.558   6.131  48.372  1.00  0.00    -0.051 SA
HETATM    8  C5  UNL     1      20.945   6.390  49.161  1.00  0.00     0.143 C 
HETATM    9  C6  UNL     1      20.914   5.668  50.462  1.00  0.00     0.095 C 
HETATM   10  N2  UNL     1      21.932   5.005  50.849  1.00  0.00    -0.300 NA
HETATM   11  C7  UNL     1      21.875   4.323  52.101  1.00  0.00     0.189 C 
HETATM   12  C8  UNL     1      21.540   2.871  51.872  1.00  0.00    -0.005 A 
HETATM   13  C9  UNL     1      20.379   2.670  51.150  1.00  0.00     0.012 A 
HETATM   14  C10 UNL     1      19.973   1.373  50.877  1.00  0.00     0.001 A 
HETATM   15  C11 UNL     1      20.752   0.334  51.340  1.00  0.00     0.003 A 
HETATM   16  C12 UNL     1      21.897   0.565  52.052  1.00  0.00     0.037 A 
HETATM   17  C13 UNL     1      22.323   1.837  52.337  1.00  0.00     0.079 A 
HETATM   18  O1  UNL     1      23.468   2.175  53.050  1.00  0.00    -0.330 OA
HETATM   19  C14 UNL     1      24.718   1.680  52.572  1.00  0.00     0.325 C 
HETATM   20  N3  UNL     1      24.853   2.229  51.226  1.00  0.00    -0.260 NA
HETATM   21  C15 UNL     1      25.948   2.654  50.756  1.00  0.00     0.189 C 
HETATM   22  N4  UNL     1      27.014   3.188  49.984  1.00  0.00    -0.400 NA
HETATM   23  C16 UNL     1      26.930   4.329  49.399  1.00  0.00     0.346 C 
HETATM   24  H4  UNL     1      24.024   7.019  50.361  1.00  0.00     0.173 HD
ENDROOT
TORSDOF 0
ENDMDL
MODEL 6
REMARK VINA RESULT:      -7.3      3.925      5.870
REMARK  0 active torsions:
REMARK  status: ('A' for Active; 'I' for Inactive)
ROOT
HETATM    1  F1  UNL     1      24.138   2.577  52.137  1.00  0.00    -0.379 F 
HETATM    2  C1  UNL     1      23.190   1.784  52.745  1.00  0.00     0.158 A 
HETATM    3  C2  UNL     1      24.393   1.251  52.801  1.00  0.00     0.195 A 
HETATM    4  C3  UNL     1      25.798   1.351  52.478  1.00  0.00     0.027 C 
HETATM    5  C4  UNL     1      26.473   2.282  51.844  1.00  0.00     0.094 C 
HETATM    6  N1  UNL     1      26.448   3.531  51.168  1.00  0.00    -0.341 N 
HETATM    7  S1  UNL     1      26.487   3.416  49.387  1.00  0.00    -0.051 SA
HETATM    8  C5  UNL     1      27.567   4.700  48.697  1.00  0.00     0.143 C 
HETATM    9  C6  UNL     1      26.959   6.037  48.943  1.00  0.00     0.095 C 
HETATM   10  N2  UNL     1      25.844   6.128  49.556  1.00  0.00    -0.300 NA
HETATM   11  C7  UNL     1      25.285   7.421  49.778  1.00  0.00     0.189 C 
HETATM   12  C8  UNL     1      24.249   7.714  48.722  1.00  0.00    -0.005 A 
HETATM   13  C9  UNL     1      24.720   7.598  47.428  1.00  0.00     0.012 A 
HETATM   14  C10 UNL     1      23.854   7.841  46.373  1.00  0.00     0.001 A 
HETATM   15  C11 UNL     1      22.552   8.190  46.665  1.00  0.00     0.003 A 
HETATM   16  C12 UNL     1      22.115   8.296  47.957  1.00  0.00     0.037 A 
HETATM   17  C13 UNL     1      22.949   8.061  49.020  1.00  0.00     0.079 A 
HETATM   18  O1  UNL     1      22.603   8.141  50.364  1.00  0.00    -0.330 OA
HETATM   19  C14 UNL     1      21.517   7.336  50.819  1.00  0.00     0.325 C 
HETATM   20  N3  UNL     1      21.924   5.961  50.546  1.00  0.00    -0.260 NA
HETATM   21  C15 UNL     1      21.694   4.999  51.334  1.00  0.00     0.189 C 
HETATM   22  N4  UNL     1      21.576   3.756  52.011  1.00  0.00    -0.400 NA
HETATM   23  C16 UNL     1      22.589   2.993  52.222  1.00  0.00     0.346 C 
HETATM   24  H4  UNL     1      26.411   4.354  51.837  1.00  0.00     0.173 HD
ENDROOT
TORSDOF 0
ENDMDL
MODEL 7
REMARK VINA RESULT:      -6.9      9.299     12.627
REMARK  0 active torsions:
REMARK  status: ('A' for Active; 'I' for Inactive)
ROOT
HETATM    1  F1  UNL     1      31.258  10.752  47.428  1.00  0.00    -0.379 F 
HETATM    2  C1  UNL     1      31.880  11.893  46.971  1.00  0.00     0.158 A 
HETATM    3  C2  UNL     1      30.597  12.084  47.197  1.00  0.00     0.195 A 
HETATM    4  C3  UNL     1      29.330  11.538  47.628  1.00  0.00     0.027 C 
HETATM    5  C4  UNL     1      29.004  10.333  48.035  1.00  0.00     0.094 C 
HETATM    6  N1  UNL     1      29.426   9.004  48.309  1.00  0.00    -0.341 N 
HETATM    7  S1  UNL     1      29.020   7.816  47.039  1.00  0.00    -0.051 SA
HETATM    8  C5  UNL     1      28.471   6.258  47.790  1.00  0.00     0.143 C 
HETATM    9  C6  UNL     1      29.616   5.625  48.500  1.00  0.00     0.095 C 
HETATM   10  N2  UNL     1      30.757   6.194  48.504  1.00  0.00    -0.300 NA
HETATM   11  C7  UNL     1      31.838   5.566  49.193  1.00  0.00     0.189 C 
HETATM   12  C8  UNL     1      32.689   4.802  48.211  1.00  0.00    -0.005 A 
HETATM   13  C9  UNL     1      31.987   3.882  47.457  1.00  0.00     0.012 A 
HETATM   14  C10 UNL     1      32.667   3.123  46.517  1.00  0.00     0.001 A 
HETATM   15  C11 UNL     1      34.025   3.322  46.377  1.00  0.00     0.003 A 
HETATM   16  C12 UNL     1      34.692   4.241  47.138  1.00  0.00     0.037 A 
HETATM   17  C13 UNL     1      34.045   5.006  48.075  1.00  0.00     0.079 A 
HETATM   18  O1  UNL     1      34.632   5.963  48.895  1.00  0.00    -0.330 OA
HETATM   19  C14 UNL     1      35.343   7.029  48.268  1.00  0.00     0.325 C 
HETATM   20  N3  UNL     1      34.356   7.704  47.432  1.00  0.00    -0.260 NA
HETATM   21  C15 UNL     1      34.301   8.961  47.298  1.00  0.00     0.189 C 
HETATM   22  N4  UNL     1      34.008  10.311  46.969  1.00  0.00    -0.400 NA
HETATM   23  C16 UNL     1      32.826  10.802  47.083  1.00  0.00     0.346 C 
HETATM   24  H4  UNL     1      29.926   8.921  49.241  1.00  0.00     0.173 HD
ENDROOT
TORSDOF 0
ENDMDL
MODEL 8
REMARK VINA RESULT:      -6.9      8.518     12.009
REMARK  0 active torsions:
REMARK  status: ('A' for Active; 'I' for Inactive)
ROOT
HETATM    1  F1  UNL     1      27.861   7.879  47.904  1.00  0.00    -0.379 F 
HETATM    2  C1  UNL     1      26.789   7.175  48.408  1.00  0.00     0.158 A 
HETATM    3  C2  UNL     1      26.481   8.428  48.150  1.00  0.00     0.195 A 
HETATM    4  C3  UNL     1      26.903   9.724  47.668  1.00  0.00     0.027 C 
HETATM    5  C4  UNL     1      28.065  10.142  47.222  1.00  0.00     0.094 C 
HETATM    6  N1  UNL     1      29.419   9.829  46.927  1.00  0.00    -0.341 N 
HETATM    7  S1  UNL     1      30.595  10.377  48.153  1.00  0.00    -0.051 SA
HETATM    8  C5  UNL     1      32.082  11.036  47.348  1.00  0.00     0.143 C 
HETATM    9  C6  UNL     1      32.797   9.930  46.656  1.00  0.00     0.095 C 
HETATM   10  N2  UNL     1      32.330   8.743  46.699  1.00  0.00    -0.300 NA
HETATM   11  C7  UNL     1      33.036   7.701  46.027  1.00  0.00     0.189 C 
HETATM   12  C8  UNL     1      33.894   6.951  47.014  1.00  0.00    -0.005 A 
HETATM   13  C9  UNL     1      34.765   7.755  47.724  1.00  0.00     0.012 A 
HETATM   14  C10 UNL     1      35.602   7.173  48.663  1.00  0.00     0.001 A 
HETATM   15  C11 UNL     1      35.527   5.808  48.848  1.00  0.00     0.003 A 
HETATM   16  C12 UNL     1      34.654   5.039  48.130  1.00  0.00     0.037 A 
HETATM   17  C13 UNL     1      33.813   5.587  47.194  1.00  0.00     0.079 A 
HETATM   18  O1  UNL     1      32.894   4.894  46.416  1.00  0.00    -0.330 OA
HETATM   19  C14 UNL     1      31.910   4.112  47.091  1.00  0.00     0.325 C 
HETATM   20  N3  UNL     1      31.169   5.062  47.914  1.00  0.00    -0.260 NA
HETATM   21  C15 UNL     1      29.916   5.011  48.078  1.00  0.00     0.189 C 
HETATM   22  N4  UNL     1      28.553   5.194  48.433  1.00  0.00    -0.400 NA
HETATM   23  C16 UNL     1      27.957   6.324  48.296  1.00  0.00     0.346 C 
HETATM   24  H4  UNL     1      29.525   9.309  46.007  1.00  0.00     0.173 HD
ENDROOT
TORSDOF 0
ENDMDL
MODEL 9
REMARK VINA RESULT:      -6.9      2.597      3.406
REMARK  0 active torsions:
REMARK  status: ('A' for Active; 'I' for Inactive)
ROOT
HETATM    1  F1  UNL     1      23.938   0.712  53.212  1.00  0.00    -0.379 F 
HETATM    2  C1  UNL     1      23.787  -0.591  53.633  1.00  0.00     0.158 A 
HETATM    3  C2  UNL     1      25.016  -0.154  53.807  1.00  0.00     0.195 A 
HETATM    4  C3  UNL     1      25.966   0.929  53.678  1.00  0.00     0.027 C 
HETATM    5  C4  UNL     1      25.827   2.146  53.207  1.00  0.00     0.094 C 
HETATM    6  N1  UNL     1      24.968   3.117  52.625  1.00  0.00    -0.341 N 
HETATM    7  S1  UNL     1      25.153   3.315  50.861  1.00  0.00    -0.051 SA
HETATM    8  C5  UNL     1      25.060   5.071  50.413  1.00  0.00     0.143 C 
HETATM    9  C6  UNL     1      23.682   5.572  50.673  1.00  0.00     0.095 C 
HETATM   10  N2  UNL     1      22.795   4.784  51.140  1.00  0.00    -0.300 NA
HETATM   11  C7  UNL     1      21.482   5.290  51.381  1.00  0.00     0.189 C 
HETATM   12  C8  UNL     1      20.584   4.939  50.222  1.00  0.00    -0.005 A 
HETATM   13  C9  UNL     1      21.057   5.365  48.996  1.00  0.00     0.012 A 
HETATM   14  C10 UNL     1      20.314   5.094  47.858  1.00  0.00     0.001 A 
HETATM   15  C11 UNL     1      19.127   4.407  48.002  1.00  0.00     0.003 A 
HETATM   16  C12 UNL     1      18.684   3.998  49.229  1.00  0.00     0.037 A 
HETATM   17  C13 UNL     1      19.399   4.252  50.373  1.00  0.00     0.079 A 
HETATM   18  O1  UNL     1      19.036   3.879  51.662  1.00  0.00    -0.330 OA
HETATM   19  C14 UNL     1      18.802   2.495  51.911  1.00  0.00     0.325 C 
HETATM   20  N3  UNL     1      20.063   1.833  51.595  1.00  0.00    -0.260 NA
HETATM   21  C15 UNL     1      20.536   0.876  52.275  1.00  0.00     0.189 C 
HETATM   22  N4  UNL     1      21.289  -0.188  52.839  1.00  0.00    -0.400 NA
HETATM   23  C16 UNL     1      22.536  -0.067  53.124  1.00  0.00     0.346 C 
HETATM   24  H4  UNL     1      24.338   3.582  53.342  1.00  0.00     0.173 HD
ENDROOT
TORSDOF 0
ENDMDL
