MODEL 1
REMARK VINA RESULT:      -7.9      0.000      0.000
REMARK  5 active torsions:
REMARK  status: ('A' for Active; 'I' for Inactive)
REMARK    1  A    between atoms: O1_1  and  C1_2 
REMARK    2  A    between atoms: C1_2  and  N1_3 
REMARK    3  A    between atoms: N1_3  and  C2_4 
REMARK    4  A    between atoms: C8_13  and  N5_14 
REMARK    5  A    between atoms: N5_14  and  C9_15 
ROOT
HETATM    1  C2  UNL     1      26.475   1.777  53.315  1.00  0.00     0.152 A 
HETATM    2  N2  UNL     1      27.679   2.170  53.827  1.00  0.00    -0.239 NA
HETATM    3  C3  UNL     1      28.693   1.290  53.984  1.00  0.00     0.151 A 
HETATM    4  C4  UNL     1      28.583  -0.036  53.645  1.00  0.00     0.089 A 
HETATM    5  N3  UNL     1      29.601  -0.883  53.811  1.00  0.00    -0.240 NA
HETATM    6  C5  UNL     1      29.427  -2.188  53.455  1.00  0.00     0.233 A 
HETATM    7  N4  UNL     1      28.253  -2.637  52.941  1.00  0.00    -0.253 NA
HETATM    8  C6  UNL     1      27.213  -1.804  52.764  1.00  0.00     0.134 A 
HETATM    9  C7  UNL     1      27.385  -0.485  53.123  1.00  0.00     0.042 A 
HETATM   10  C8  UNL     1      26.376   0.443  52.979  1.00  0.00     0.093 A 
ENDROOT
BRANCH  10  11
HETATM   11  N5  UNL     1      25.136  -0.024  52.437  1.00  0.00    -0.352 N 
HETATM   12  H8  UNL     1      25.029  -0.139  51.419  1.00  0.00     0.166 HD
BRANCH  11  13
HETATM   13  C9  UNL     1      24.040  -0.335  53.287  1.00  0.00     0.033 A 
HETATM   14  C10 UNL     1      24.197  -0.878  54.546  1.00  0.00     0.029 A 
HETATM   15  C11 UNL     1      23.116  -1.169  55.345  1.00  0.00     0.004 A 
HETATM   16  C12 UNL     1      21.818  -0.918  54.891  1.00  0.00     0.019 A 
HETATM   17  C13 UNL     1      21.619  -0.377  53.644  1.00  0.00     0.013 A 
HETATM   18 BR1  UNL     1      19.890   0.008  52.920  1.00  0.00    -0.051 Br
HETATM   19  C14 UNL     1      22.731  -0.098  52.868  1.00  0.00     0.048 A 
ENDBRANCH  11  13
ENDBRANCH  10  11
BRANCH   1  20
HETATM   20  N1  UNL     1      25.403   2.698  53.148  1.00  0.00    -0.352 N 
HETATM   21  H4  UNL     1      24.854   2.937  53.983  1.00  0.00     0.163 HD
BRANCH  20  22
HETATM   22  C1  UNL     1      25.165   3.232  51.805  1.00  0.00     0.288 C 
BRANCH  22  23
HETATM   23  O1  UNL     1      26.355   3.542  51.167  1.00  0.00    -0.382 OA
HETATM   24  H1  UNL     1      27.013   3.730  51.881  1.00  0.00     0.211 HD
ENDBRANCH  22  23
ENDBRANCH  20  22
ENDBRANCH   1  20
TORSDOF 5
ENDMDL
MODEL 2
REMARK VINA RESULT:      -7.4      2.619      4.074
REMARK  5 active torsions:
REMARK  status: ('A' for Active; 'I' for Inactive)
REMARK    1  A    between atoms: O1_1  and  C1_2 
REMARK    2  A    between atoms: C1_2  and  N1_3 
REMARK    3  A    between atoms: N1_3  and  C2_4 
REMARK    4  A    between atoms: C8_13  and  N5_14 
REMARK    5  A    between atoms: N5_14  and  C9_15 
ROOT
HETATM    1  C2  UNL     1      24.606  -0.350  53.948  1.00  0.00     0.152 A 
HETATM    2  N2  UNL     1      25.346  -0.745  55.027  1.00  0.00    -0.239 NA
HETATM    3  C3  UNL     1      26.586  -0.254  55.242  1.00  0.00     0.151 A 
HETATM    4  C4  UNL     1      27.177   0.661  54.406  1.00  0.00     0.089 A 
HETATM    5  N3  UNL     1      28.404   1.129  54.643  1.00  0.00    -0.240 NA
HETATM    6  C5  UNL     1      28.934   2.036  53.773  1.00  0.00     0.233 A 
HETATM    7  N4  UNL     1      28.248   2.466  52.684  1.00  0.00    -0.253 NA
HETATM    8  C6  UNL     1      27.011   2.009  52.422  1.00  0.00     0.134 A 
HETATM    9  C7  UNL     1      26.472   1.093  53.299  1.00  0.00     0.042 A 
HETATM   10  C8  UNL     1      25.211   0.568  53.115  1.00  0.00     0.093 A 
ENDROOT
BRANCH  10  11
HETATM   11  N5  UNL     1      24.481   1.018  51.968  1.00  0.00    -0.352 N 
HETATM   12  H8  UNL     1      24.641   0.579  51.050  1.00  0.00     0.166 HD
BRANCH  11  13
HETATM   13  C9  UNL     1      23.531   2.069  52.075  1.00  0.00     0.033 A 
HETATM   14  C10 UNL     1      23.885   3.376  52.343  1.00  0.00     0.029 A 
HETATM   15  C11 UNL     1      22.942   4.373  52.440  1.00  0.00     0.004 A 
HETATM   16  C12 UNL     1      21.586   4.077  52.267  1.00  0.00     0.019 A 
HETATM   17  C13 UNL     1      21.193   2.789  51.999  1.00  0.00     0.013 A 
HETATM   18 BR1  UNL     1      19.368   2.270  51.745  1.00  0.00    -0.051 Br
HETATM   19  C14 UNL     1      22.170   1.813  51.908  1.00  0.00     0.048 A 
ENDBRANCH  11  13
ENDBRANCH  10  11
BRANCH   1  20
HETATM   20  N1  UNL     1      23.300  -0.864  53.715  1.00  0.00    -0.352 N 
HETATM   21  H4  UNL     1      23.058  -1.113  52.747  1.00  0.00     0.163 HD
BRANCH  20  22
HETATM   22  C1  UNL     1      22.403  -0.998  54.864  1.00  0.00     0.288 C 
BRANCH  22  23
HETATM   23  O1  UNL     1      22.885  -1.923  55.776  1.00  0.00    -0.382 OA
HETATM   24  H1  UNL     1      22.103  -2.231  56.298  1.00  0.00     0.211 HD
ENDBRANCH  22  23
ENDBRANCH  20  22
ENDBRANCH   1  20
TORSDOF 5
ENDMDL
MODEL 3
REMARK VINA RESULT:      -7.3      2.690      5.176
REMARK  5 active torsions:
REMARK  status: ('A' for Active; 'I' for Inactive)
REMARK    1  A    between atoms: O1_1  and  C1_2 
REMARK    2  A    between atoms: C1_2  and  N1_3 
REMARK    3  A    between atoms: N1_3  and  C2_4 
REMARK    4  A    between atoms: C8_13  and  N5_14 
REMARK    5  A    between atoms: N5_14  and  C9_15 
ROOT
HETATM    1  C2  UNL     1      25.870  -0.054  54.201  1.00  0.00     0.152 A 
HETATM    2  N2  UNL     1      25.687  -0.732  55.373  1.00  0.00    -0.239 NA
HETATM    3  C3  UNL     1      24.481  -1.245  55.703  1.00  0.00     0.151 A 
HETATM    4  C4  UNL     1      23.377  -1.123  54.897  1.00  0.00     0.089 A 
HETATM    5  N3  UNL     1      22.198  -1.640  55.248  1.00  0.00    -0.240 NA
HETATM    6  C5  UNL     1      21.140  -1.483  54.401  1.00  0.00     0.233 A 
HETATM    7  N4  UNL     1      21.261  -0.820  53.223  1.00  0.00    -0.253 NA
HETATM    8  C6  UNL     1      22.437  -0.289  52.846  1.00  0.00     0.134 A 
HETATM    9  C7  UNL     1      23.508  -0.446  53.699  1.00  0.00     0.042 A 
HETATM   10  C8  UNL     1      24.754   0.063  53.399  1.00  0.00     0.093 A 
ENDROOT
BRANCH  10  11
HETATM   11  N5  UNL     1      24.888   0.763  52.158  1.00  0.00    -0.352 N 
HETATM   12  H8  UNL     1      25.321   0.298  51.347  1.00  0.00     0.166 HD
BRANCH  11  13
HETATM   13  C9  UNL     1      24.429   2.101  52.022  1.00  0.00     0.033 A 
HETATM   14  C10 UNL     1      24.273   2.954  53.096  1.00  0.00     0.029 A 
HETATM   15  C11 UNL     1      23.826   4.245  52.933  1.00  0.00     0.004 A 
HETATM   16  C12 UNL     1      23.515   4.725  51.657  1.00  0.00     0.019 A 
HETATM   17  C13 UNL     1      23.657   3.908  50.562  1.00  0.00     0.013 A 
HETATM   18 BR1  UNL     1      23.263   4.458  48.772  1.00  0.00    -0.051 Br
HETATM   19  C14 UNL     1      24.109   2.616  50.765  1.00  0.00     0.048 A 
ENDBRANCH  11  13
ENDBRANCH  10  11
BRANCH   1  20
HETATM   20  N1  UNL     1      27.136   0.489  53.847  1.00  0.00    -0.352 N 
HETATM   21  H4  UNL     1      27.176   1.084  53.010  1.00  0.00     0.163 HD
BRANCH  20  22
HETATM   22  C1  UNL     1      28.282   0.162  54.699  1.00  0.00     0.288 C 
BRANCH  22  23
HETATM   23  O1  UNL     1      28.971   1.302  55.078  1.00  0.00    -0.382 OA
HETATM   24  H1  UNL     1      28.399   2.069  54.826  1.00  0.00     0.211 HD
ENDBRANCH  22  23
ENDBRANCH  20  22
ENDBRANCH   1  20
TORSDOF 5
ENDMDL
MODEL 4
REMARK VINA RESULT:      -7.3      3.061      4.671
REMARK  5 active torsions:
REMARK  status: ('A' for Active; 'I' for Inactive)
REMARK    1  A    between atoms: O1_1  and  C1_2 
REMARK    2  A    between atoms: C1_2  and  N1_3 
REMARK    3  A    between atoms: N1_3  and  C2_4 
REMARK    4  A    between atoms: C8_13  and  N5_14 
REMARK    5  A    between atoms: N5_14  and  C9_15 
ROOT
HETATM    1  C2  UNL     1      24.571  -0.256  53.759  1.00  0.00     0.152 A 
HETATM    2  N2  UNL     1      25.156  -0.745  54.892  1.00  0.00    -0.239 NA
HETATM    3  C3  UNL     1      26.407  -0.376  55.248  1.00  0.00     0.151 A 
HETATM    4  C4  UNL     1      27.162   0.499  54.507  1.00  0.00     0.089 A 
HETATM    5  N3  UNL     1      28.395   0.845  54.882  1.00  0.00    -0.240 NA
HETATM    6  C5  UNL     1      29.091   1.720  54.101  1.00  0.00     0.233 A 
HETATM    7  N4  UNL     1      28.563   2.239  52.964  1.00  0.00    -0.253 NA
HETATM    8  C6  UNL     1      27.323   1.906  52.563  1.00  0.00     0.134 A 
HETATM    9  C7  UNL     1      26.616   1.023  53.350  1.00  0.00     0.042 A 
HETATM   10  C8  UNL     1      25.338   0.622  53.022  1.00  0.00     0.093 A 
ENDROOT
BRANCH  10  11
HETATM   11  N5  UNL     1      24.775   1.167  51.824  1.00  0.00    -0.352 N 
HETATM   12  H8  UNL     1      24.674   0.576  50.986  1.00  0.00     0.166 HD
BRANCH  11  13
HETATM   13  C9  UNL     1      24.347   2.521  51.769  1.00  0.00     0.033 A 
HETATM   14  C10 UNL     1      23.678   3.139  52.805  1.00  0.00     0.029 A 
HETATM   15  C11 UNL     1      23.276   4.452  52.723  1.00  0.00     0.004 A 
HETATM   16  C12 UNL     1      23.541   5.197  51.569  1.00  0.00     0.019 A 
HETATM   17  C13 UNL     1      24.205   4.618  50.515  1.00  0.00     0.013 A 
HETATM   18 BR1  UNL     1      24.621   5.540  48.891  1.00  0.00    -0.051 Br
HETATM   19  C14 UNL     1      24.594   3.295  50.635  1.00  0.00     0.048 A 
ENDBRANCH  11  13
ENDBRANCH  10  11
BRANCH   1  20
HETATM   20  N1  UNL     1      23.255  -0.639  53.378  1.00  0.00    -0.352 N 
HETATM   21  H4  UNL     1      23.104  -0.887  52.392  1.00  0.00     0.163 HD
BRANCH  20  22
HETATM   22  C1  UNL     1      22.220  -0.652  54.414  1.00  0.00     0.288 C 
BRANCH  22  23
HETATM   23  O1  UNL     1      22.450  -1.653  55.344  1.00  0.00    -0.382 OA
HETATM   24  H1  UNL     1      21.567  -2.052  55.546  1.00  0.00     0.211 HD
ENDBRANCH  22  23
ENDBRANCH  20  22
ENDBRANCH   1  20
TORSDOF 5
ENDMDL
MODEL 5
REMARK VINA RESULT:      -6.8      2.941      5.748
REMARK  5 active torsions:
REMARK  status: ('A' for Active; 'I' for Inactive)
REMARK    1  A    between atoms: O1_1  and  C1_2 
REMARK    2  A    between atoms: C1_2  and  N1_3 
REMARK    3  A    between atoms: N1_3  and  C2_4 
REMARK    4  A    between atoms: C8_13  and  N5_14 
REMARK    5  A    between atoms: N5_14  and  C9_15 
ROOT
HETATM    1  C2  UNL     1      26.273   2.823  50.861  1.00  0.00     0.152 A 
HETATM    2  N2  UNL     1      27.077   3.236  49.836  1.00  0.00    -0.239 NA
HETATM    3  C3  UNL     1      26.794   4.354  49.132  1.00  0.00     0.151 A 
HETATM    4  C4  UNL     1      25.699   5.139  49.395  1.00  0.00     0.089 A 
HETATM    5  N3  UNL     1      25.444   6.239  48.683  1.00  0.00    -0.240 NA
HETATM    6  C5  UNL     1      24.339   6.974  48.995  1.00  0.00     0.233 A 
HETATM    7  N4  UNL     1      23.503   6.615  50.003  1.00  0.00    -0.253 NA
HETATM    8  C6  UNL     1      23.737   5.512  50.734  1.00  0.00     0.134 A 
HETATM    9  C7  UNL     1      24.853   4.766  50.422  1.00  0.00     0.042 A 
HETATM   10  C8  UNL     1      25.176   3.619  51.116  1.00  0.00     0.093 A 
ENDROOT
BRANCH  10  11
HETATM   11  N5  UNL     1      24.298   3.235  52.180  1.00  0.00    -0.352 N 
HETATM   12  H8  UNL     1      24.328   3.736  53.079  1.00  0.00     0.166 HD
BRANCH  11  13
HETATM   13  C9  UNL     1      23.378   2.165  52.016  1.00  0.00     0.033 A 
HETATM   14  C10 UNL     1      22.661   1.963  50.854  1.00  0.00     0.029 A 
HETATM   15  C11 UNL     1      21.777   0.917  50.725  1.00  0.00     0.004 A 
HETATM   16  C12 UNL     1      21.583   0.025  51.785  1.00  0.00     0.019 A 
HETATM   17  C13 UNL     1      22.277   0.192  52.958  1.00  0.00     0.013 A 
HETATM   18 BR1  UNL     1      22.092  -0.965  54.471  1.00  0.00    -0.051 Br
HETATM   19  C14 UNL     1      23.158   1.255  53.051  1.00  0.00     0.048 A 
ENDBRANCH  11  13
ENDBRANCH  10  11
BRANCH   1  20
HETATM   20  N1  UNL     1      26.564   1.647  51.607  1.00  0.00    -0.352 N 
HETATM   21  H4  UNL     1      26.126   0.771  51.293  1.00  0.00     0.163 HD
BRANCH  20  22
HETATM   22  C1  UNL     1      27.461   1.771  52.757  1.00  0.00     0.288 C 
BRANCH  22  23
HETATM   23  O1  UNL     1      28.298   2.868  52.629  1.00  0.00    -0.382 OA
HETATM   24  H1  UNL     1      27.803   3.639  53.003  1.00  0.00     0.211 HD
ENDBRANCH  22  23
ENDBRANCH  20  22
ENDBRANCH   1  20
TORSDOF 5
ENDMDL
MODEL 6
REMARK VINA RESULT:      -6.7      2.781      4.264
REMARK  5 active torsions:
REMARK  status: ('A' for Active; 'I' for Inactive)
REMARK    1  A    between atoms: O1_1  and  C1_2 
REMARK    2  A    between atoms: C1_2  and  N1_3 
REMARK    3  A    between atoms: N1_3  and  C2_4 
REMARK    4  A    between atoms: C8_13  and  N5_14 
REMARK    5  A    between atoms: N5_14  and  C9_15 
ROOT
HETATM    1  C2  UNL     1      25.999   3.216  51.238  1.00  0.00     0.152 A 
HETATM    2  N2  UNL     1      27.197   2.630  51.534  1.00  0.00    -0.239 NA
HETATM    3  C3  UNL     1      27.260   1.512  52.290  1.00  0.00     0.151 A 
HETATM    4  C4  UNL     1      26.144   0.898  52.803  1.00  0.00     0.089 A 
HETATM    5  N3  UNL     1      26.236  -0.206  53.546  1.00  0.00    -0.240 NA
HETATM    6  C5  UNL     1      25.088  -0.766  54.025  1.00  0.00     0.233 A 
HETATM    7  N4  UNL     1      23.869  -0.229  53.764  1.00  0.00    -0.253 NA
HETATM    8  C6  UNL     1      23.749   0.883  53.018  1.00  0.00     0.134 A 
HETATM    9  C7  UNL     1      24.906   1.451  52.532  1.00  0.00     0.042 A 
HETATM   10  C8  UNL     1      24.885   2.592  51.758  1.00  0.00     0.093 A 
ENDROOT
BRANCH  10  11
HETATM   11  N5  UNL     1      23.602   3.162  51.478  1.00  0.00    -0.352 N 
HETATM   12  H8  UNL     1      23.244   3.937  52.056  1.00  0.00     0.166 HD
BRANCH  11  13
HETATM   13  C9  UNL     1      22.805   2.675  50.407  1.00  0.00     0.033 A 
HETATM   14  C10 UNL     1      23.244   2.643  49.100  1.00  0.00     0.029 A 
HETATM   15  C11 UNL     1      22.448   2.165  48.084  1.00  0.00     0.004 A 
HETATM   16  C12 UNL     1      21.160   1.697  48.360  1.00  0.00     0.019 A 
HETATM   17  C13 UNL     1      20.686   1.712  49.649  1.00  0.00     0.013 A 
HETATM   18 BR1  UNL     1      18.942   1.097  50.143  1.00  0.00    -0.051 Br
HETATM   19  C14 UNL     1      21.515   2.200  50.645  1.00  0.00     0.048 A 
ENDBRANCH  11  13
ENDBRANCH  10  11
BRANCH   1  20
HETATM   20  N1  UNL     1      25.925   4.394  50.443  1.00  0.00    -0.352 N 
HETATM   21  H4  UNL     1      25.332   5.159  50.789  1.00  0.00     0.163 HD
BRANCH  20  22
HETATM   22  C1  UNL     1      26.695   4.428  49.198  1.00  0.00     0.288 C 
BRANCH  22  23
HETATM   23  O1  UNL     1      28.018   4.765  49.431  1.00  0.00    -0.382 OA
HETATM   24  H1  UNL     1      28.003   5.640  49.894  1.00  0.00     0.211 HD
ENDBRANCH  22  23
ENDBRANCH  20  22
ENDBRANCH   1  20
TORSDOF 5
ENDMDL
MODEL 7
REMARK VINA RESULT:      -6.7      3.570      5.406
REMARK  5 active torsions:
REMARK  status: ('A' for Active; 'I' for Inactive)
REMARK    1  A    between atoms: O1_1  and  C1_2 
REMARK    2  A    between atoms: C1_2  and  N1_3 
REMARK    3  A    between atoms: N1_3  and  C2_4 
REMARK    4  A    between atoms: C8_13  and  N5_14 
REMARK    5  A    between atoms: N5_14  and  C9_15 
ROOT
HETATM    1  C2  UNL     1      26.077   3.184  51.029  1.00  0.00     0.152 A 
HETATM    2  N2  UNL     1      27.117   2.391  51.424  1.00  0.00    -0.239 NA
HETATM    3  C3  UNL     1      26.906   1.267  52.144  1.00  0.00     0.151 A 
HETATM    4  C4  UNL     1      25.653   0.852  52.521  1.00  0.00     0.089 A 
HETATM    5  N3  UNL     1      25.473  -0.262  53.232  1.00  0.00    -0.240 NA
HETATM    6  C5  UNL     1      24.202  -0.618  53.575  1.00  0.00     0.233 A 
HETATM    7  N4  UNL     1      23.128   0.129  53.211  1.00  0.00    -0.253 NA
HETATM    8  C6  UNL     1      23.282   1.257  52.495  1.00  0.00     0.134 A 
HETATM    9  C7  UNL     1      24.565   1.619  52.147  1.00  0.00     0.042 A 
HETATM   10  C8  UNL     1      24.823   2.758  51.414  1.00  0.00     0.093 A 
ENDROOT
BRANCH  10  11
HETATM   11  N5  UNL     1      23.695   3.551  51.027  1.00  0.00    -0.352 N 
HETATM   12  H8  UNL     1      23.254   4.187  51.707  1.00  0.00     0.166 HD
BRANCH  11  13
HETATM   13  C9  UNL     1      23.169   3.476  49.710  1.00  0.00     0.033 A 
HETATM   14  C10 UNL     1      22.766   2.290  49.129  1.00  0.00     0.029 A 
HETATM   15  C11 UNL     1      22.260   2.250  47.850  1.00  0.00     0.004 A 
HETATM   16  C12 UNL     1      22.143   3.425  47.102  1.00  0.00     0.019 A 
HETATM   17  C13 UNL     1      22.532   4.626  47.645  1.00  0.00     0.013 A 
HETATM   18 BR1  UNL     1      22.416   6.295  46.715  1.00  0.00    -0.051 Br
HETATM   19  C14 UNL     1      23.036   4.628  48.934  1.00  0.00     0.048 A 
ENDBRANCH  11  13
ENDBRANCH  10  11
BRANCH   1  20
HETATM   20  N1  UNL     1      26.292   4.369  50.271  1.00  0.00    -0.352 N 
HETATM   21  H4  UNL     1      25.840   5.230  50.605  1.00  0.00     0.163 HD
BRANCH  20  22
HETATM   22  C1  UNL     1      27.137   4.274  49.079  1.00  0.00     0.288 C 
BRANCH  22  23
HETATM   23  O1  UNL     1      28.251   5.091  49.183  1.00  0.00    -0.382 OA
HETATM   24  H1  UNL     1      28.611   4.955  50.094  1.00  0.00     0.211 HD
ENDBRANCH  22  23
ENDBRANCH  20  22
ENDBRANCH   1  20
TORSDOF 5
ENDMDL
MODEL 8
REMARK VINA RESULT:      -6.6      3.066      5.628
REMARK  5 active torsions:
REMARK  status: ('A' for Active; 'I' for Inactive)
REMARK    1  A    between atoms: O1_1  and  C1_2 
REMARK    2  A    between atoms: C1_2  and  N1_3 
REMARK    3  A    between atoms: N1_3  and  C2_4 
REMARK    4  A    between atoms: C8_13  and  N5_14 
REMARK    5  A    between atoms: N5_14  and  C9_15 
ROOT
HETATM    1  C2  UNL     1      23.282   2.361  51.321  1.00  0.00     0.152 A 
HETATM    2  N2  UNL     1      22.057   2.838  51.693  1.00  0.00    -0.239 NA
HETATM    3  C3  UNL     1      21.312   2.201  52.623  1.00  0.00     0.151 A 
HETATM    4  C4  UNL     1      21.727   1.051  53.247  1.00  0.00     0.089 A 
HETATM    5  N3  UNL     1      20.970   0.443  54.162  1.00  0.00    -0.240 NA
HETATM    6  C5  UNL     1      21.442  -0.696  54.744  1.00  0.00     0.233 A 
HETATM    7  N4  UNL     1      22.651  -1.219  54.415  1.00  0.00    -0.253 NA
HETATM    8  C6  UNL     1      23.433  -0.626  53.496  1.00  0.00     0.134 A 
HETATM    9  C7  UNL     1      22.960   0.526  52.906  1.00  0.00     0.042 A 
HETATM   10  C8  UNL     1      23.689   1.205  51.953  1.00  0.00     0.093 A 
ENDROOT
BRANCH  10  11
HETATM   11  N5  UNL     1      24.965   0.659  51.602  1.00  0.00    -0.352 N 
HETATM   12  H8  UNL     1      25.061   0.068  50.764  1.00  0.00     0.166 HD
BRANCH  11  13
HETATM   13  C9  UNL     1      26.114   0.922  52.396  1.00  0.00     0.033 A 
HETATM   14  C10 UNL     1      26.331   2.131  53.025  1.00  0.00     0.029 A 
HETATM   15  C11 UNL     1      27.454   2.355  53.788  1.00  0.00     0.004 A 
HETATM   16  C12 UNL     1      28.412   1.349  53.942  1.00  0.00     0.019 A 
HETATM   17  C13 UNL     1      28.233   0.131  53.332  1.00  0.00     0.013 A 
HETATM   18 BR1  UNL     1      29.476  -1.317  53.474  1.00  0.00    -0.051 Br
HETATM   19  C14 UNL     1      27.091  -0.058  52.573  1.00  0.00     0.048 A 
ENDBRANCH  11  13
ENDBRANCH  10  11
BRANCH   1  20
HETATM   20  N1  UNL     1      24.072   3.026  50.342  1.00  0.00    -0.352 N 
HETATM   21  H4  UNL     1      24.307   2.500  49.490  1.00  0.00     0.163 HD
BRANCH  20  22
HETATM   22  C1  UNL     1      24.488   4.402  50.619  1.00  0.00     0.288 C 
BRANCH  22  23
HETATM   23  O1  UNL     1      24.310   4.724  51.954  1.00  0.00    -0.382 OA
HETATM   24  H1  UNL     1      23.442   4.331  52.221  1.00  0.00     0.211 HD
ENDBRANCH  22  23
ENDBRANCH  20  22
ENDBRANCH   1  20
TORSDOF 5
ENDMDL
MODEL 9
REMARK VINA RESULT:      -6.6      2.860      5.036
REMARK  5 active torsions:
REMARK  status: ('A' for Active; 'I' for Inactive)
REMARK    1  A    between atoms: O1_1  and  C1_2 
REMARK    2  A    between atoms: C1_2  and  N1_3 
REMARK    3  A    between atoms: N1_3  and  C2_4 
REMARK    4  A    between atoms: C8_13  and  N5_14 
REMARK    5  A    between atoms: N5_14  and  C9_15 
ROOT
HETATM    1  C2  UNL     1      23.654   1.125  53.135  1.00  0.00     0.152 A 
HETATM    2  N2  UNL     1      23.776  -0.207  53.415  1.00  0.00    -0.239 NA
HETATM    3  C3  UNL     1      24.952  -0.730  53.827  1.00  0.00     0.151 A 
HETATM    4  C4  UNL     1      26.085   0.029  53.990  1.00  0.00     0.089 A 
HETATM    5  N3  UNL     1      27.233  -0.515  54.398  1.00  0.00    -0.240 NA
HETATM    6  C5  UNL     1      28.322   0.294  54.539  1.00  0.00     0.233 A 
HETATM    7  N4  UNL     1      28.263   1.625  54.276  1.00  0.00    -0.253 NA
HETATM    8  C6  UNL     1      27.118   2.197  53.862  1.00  0.00     0.134 A 
HETATM    9  C7  UNL     1      26.016   1.382  53.719  1.00  0.00     0.042 A 
HETATM   10  C8  UNL     1      24.798   1.876  53.301  1.00  0.00     0.093 A 
ENDROOT
BRANCH  10  11
HETATM   11  N5  UNL     1      24.728   3.279  53.022  1.00  0.00    -0.352 N 
HETATM   12  H8  UNL     1      24.745   3.960  53.794  1.00  0.00     0.166 HD
BRANCH  11  13
HETATM   13  C9  UNL     1      24.635   3.753  51.685  1.00  0.00     0.033 A 
HETATM   14  C10 UNL     1      25.328   3.183  50.637  1.00  0.00     0.029 A 
HETATM   15  C11 UNL     1      25.218   3.664  49.353  1.00  0.00     0.004 A 
HETATM   16  C12 UNL     1      24.390   4.758  49.081  1.00  0.00     0.019 A 
HETATM   17  C13 UNL     1      23.684   5.354  50.097  1.00  0.00     0.013 A 
HETATM   18 BR1  UNL     1      22.524   6.855  49.842  1.00  0.00    -0.051 Br
HETATM   19  C14 UNL     1      23.820   4.842  51.376  1.00  0.00     0.048 A 
ENDBRANCH  11  13
ENDBRANCH  10  11
BRANCH   1  20
HETATM   20  N1  UNL     1      22.419   1.682  52.700  1.00  0.00    -0.352 N 
HETATM   21  H4  UNL     1      22.458   2.580  52.200  1.00  0.00     0.163 HD
BRANCH  20  22
HETATM   22  C1  UNL     1      21.192   0.940  52.997  1.00  0.00     0.288 C 
BRANCH  22  23
HETATM   23  O1  UNL     1      21.011  -0.110  52.111  1.00  0.00    -0.382 OA
HETATM   24  H1  UNL     1      21.383  -0.913  52.552  1.00  0.00     0.211 HD
ENDBRANCH  22  23
ENDBRANCH  20  22
ENDBRANCH   1  20
TORSDOF 5
ENDMDL
