MODEL 1
REMARK VINA RESULT:      -7.7      0.000      0.000
REMARK  3 active torsions:
REMARK  status: ('A' for Active; 'I' for Inactive)
REMARK    1  A    between atoms: C4_5  and  C5_6 
REMARK    2  A    between atoms: C6_8  and  C7_9 
REMARK    3  A    between atoms: C10_13  and  C11_14 
ROOT
HETATM    1  C7  UNL     1      25.665   0.111  52.892  1.00  0.00     0.090 A 
HETATM    2  N2  UNL     1      24.586   0.260  52.526  1.00  0.00    -0.244 NA
HETATM    3  C8  UNL     1      23.443  -0.091  53.077  1.00  0.00     0.075 A 
HETATM    4  C9  UNL     1      22.148   0.118  52.582  1.00  0.00     0.045 A 
HETATM    5  C10 UNL     1      21.080  -0.347  53.350  1.00  0.00     0.008 A 
HETATM    6  C12 UNL     1      21.177  -1.008  54.580  1.00  0.00     0.014 A 
HETATM    7  C13 UNL     1      22.468  -1.183  55.011  1.00  0.00     0.022 A 
HETATM    8  C14 UNL     1      23.545  -0.739  54.283  1.00  0.00     0.035 A 
HETATM    9  S1  UNL     1      25.283  -0.799  54.541  1.00  0.00    -0.071 SA
ENDROOT
BRANCH   1  10
HETATM   10  C6  UNL     1      27.033   0.429  52.419  1.00  0.00     0.124 C 
HETATM   11  C2  UNL     1      28.057  -0.008  53.430  1.00  0.00    -0.053 C 
HETATM   12  C1  UNL     1      28.756  -1.141  53.264  1.00  0.00     0.017 C 
HETATM   13  C3  UNL     1      27.979   1.093  54.446  1.00  0.00     0.183 C 
HETATM   14  N1  UNL     1      27.715   2.223  53.627  1.00  0.00    -0.291 NA
HETATM   15  C4  UNL     1      27.198   1.908  52.509  1.00  0.00     0.050 C 
BRANCH  15  16
HETATM   16  C5  UNL     1      26.775   2.801  51.375  1.00  0.00     0.277 C 
HETATM   17  F1  UNL     1      26.758   2.073  50.193  1.00  0.00    -0.249 F 
ENDBRANCH  15  16
ENDBRANCH   1  10
BRANCH   5  18
HETATM   18  C11 UNL     1      19.709  -0.107  52.790  1.00  0.00     0.386 C 
HETATM   19  F2  UNL     1      19.716  -0.082  51.419  1.00  0.00    -0.209 F 
HETATM   20  F3  UNL     1      18.804  -1.046  53.297  1.00  0.00    -0.209 F 
ENDBRANCH   5  18
TORSDOF 3
ENDMDL
MODEL 2
REMARK VINA RESULT:      -7.6      2.616      6.872
REMARK  3 active torsions:
REMARK  status: ('A' for Active; 'I' for Inactive)
REMARK    1  A    between atoms: C4_5  and  C5_6 
REMARK    2  A    between atoms: C6_8  and  C7_9 
REMARK    3  A    between atoms: C10_13  and  C11_14 
ROOT
HETATM    1  C7  UNL     1      23.317   0.171  52.626  1.00  0.00     0.090 A 
HETATM    2  N2  UNL     1      24.258  -0.025  53.255  1.00  0.00    -0.244 NA
HETATM    3  C8  UNL     1      25.434   0.568  53.239  1.00  0.00     0.075 A 
HETATM    4  C9  UNL     1      26.553   0.284  54.034  1.00  0.00     0.045 A 
HETATM    5  C10 UNL     1      27.699   1.054  53.835  1.00  0.00     0.008 A 
HETATM    6  C12 UNL     1      27.841   2.094  52.909  1.00  0.00     0.014 A 
HETATM    7  C13 UNL     1      26.714   2.323  52.161  1.00  0.00     0.022 A 
HETATM    8  C14 UNL     1      25.567   1.586  52.328  1.00  0.00     0.035 A 
HETATM    9  S1  UNL     1      23.988   1.620  51.556  1.00  0.00    -0.071 SA
ENDROOT
BRANCH   1  10
HETATM   10  C6  UNL     1      21.946  -0.380  52.510  1.00  0.00     0.124 C 
HETATM   11  C2  UNL     1      21.010   0.649  51.936  1.00  0.00    -0.053 C 
HETATM   12  C1  UNL     1      20.643   0.611  50.646  1.00  0.00     0.017 C 
HETATM   13  C3  UNL     1      20.734   1.515  53.129  1.00  0.00     0.183 C 
HETATM   14  N1  UNL     1      20.745   0.564  54.184  1.00  0.00    -0.291 NA
HETATM   15  C4  UNL     1      21.395  -0.487  53.890  1.00  0.00     0.050 C 
BRANCH  15  16
HETATM   16  C5  UNL     1      21.641  -1.715  54.724  1.00  0.00     0.277 C 
HETATM   17  F1  UNL     1      22.692  -1.479  55.599  1.00  0.00    -0.249 F 
ENDBRANCH  15  16
ENDBRANCH   1  10
BRANCH   5  18
HETATM   18  C11 UNL     1      28.877   0.723  54.703  1.00  0.00     0.386 C 
HETATM   19  F2  UNL     1      29.591  -0.339  54.210  1.00  0.00    -0.209 F 
HETATM   20  F3  UNL     1      29.677   1.856  54.891  1.00  0.00    -0.209 F 
ENDBRANCH   5  18
TORSDOF 3
ENDMDL
MODEL 3
REMARK VINA RESULT:      -7.5      4.471      5.886
REMARK  3 active torsions:
REMARK  status: ('A' for Active; 'I' for Inactive)
REMARK    1  A    between atoms: C4_5  and  C5_6 
REMARK    2  A    between atoms: C6_8  and  C7_9 
REMARK    3  A    between atoms: C10_13  and  C11_14 
ROOT
HETATM    1  C7  UNL     1      26.816   1.275  51.979  1.00  0.00     0.090 A 
HETATM    2  N2  UNL     1      27.059   2.182  51.318  1.00  0.00    -0.244 NA
HETATM    3  C8  UNL     1      26.260   3.013  50.682  1.00  0.00     0.075 A 
HETATM    4  C9  UNL     1      26.615   4.109  49.884  1.00  0.00     0.045 A 
HETATM    5  C10 UNL     1      25.582   4.851  49.309  1.00  0.00     0.008 A 
HETATM    6  C12 UNL     1      24.212   4.603  49.453  1.00  0.00     0.014 A 
HETATM    7  C13 UNL     1      23.928   3.519  50.245  1.00  0.00     0.022 A 
HETATM    8  C14 UNL     1      24.917   2.765  50.829  1.00  0.00     0.035 A 
HETATM    9  S1  UNL     1      24.899   1.350  51.871  1.00  0.00    -0.071 SA
ENDROOT
BRANCH   1  10
HETATM   10  C6  UNL     1      27.564   0.255  52.752  1.00  0.00     0.124 C 
HETATM   11  C2  UNL     1      26.644  -0.852  53.194  1.00  0.00    -0.053 C 
HETATM   12  C1  UNL     1      26.611  -2.026  52.547  1.00  0.00     0.017 C 
HETATM   13  C3  UNL     1      25.957  -0.230  54.373  1.00  0.00     0.183 C 
HETATM   14  N1  UNL     1      26.995   0.568  54.924  1.00  0.00    -0.291 NA
HETATM   15  C4  UNL     1      27.895   0.857  54.074  1.00  0.00     0.050 C 
BRANCH  15  16
HETATM   16  C5  UNL     1      29.145   1.674  54.257  1.00  0.00     0.277 C 
HETATM   17  F1  UNL     1      28.937   2.956  53.769  1.00  0.00    -0.249 F 
ENDBRANCH  15  16
ENDBRANCH   1  10
BRANCH   5  18
HETATM   18  C11 UNL     1      25.997   6.016  48.461  1.00  0.00     0.386 C 
HETATM   19  F2  UNL     1      25.717   7.214  49.068  1.00  0.00    -0.209 F 
HETATM   20  F3  UNL     1      27.347   5.906  48.108  1.00  0.00    -0.209 F 
ENDBRANCH   5  18
TORSDOF 3
ENDMDL
MODEL 4
REMARK VINA RESULT:      -7.3      3.286      4.683
REMARK  3 active torsions:
REMARK  status: ('A' for Active; 'I' for Inactive)
REMARK    1  A    between atoms: C4_5  and  C5_6 
REMARK    2  A    between atoms: C6_8  and  C7_9 
REMARK    3  A    between atoms: C10_13  and  C11_14 
ROOT
HETATM    1  C7  UNL     1      24.813   2.670  50.398  1.00  0.00     0.090 A 
HETATM    2  N2  UNL     1      24.035   2.089  51.012  1.00  0.00    -0.244 NA
HETATM    3  C8  UNL     1      24.193   1.263  52.026  1.00  0.00     0.075 A 
HETATM    4  C9  UNL     1      23.201   0.578  52.741  1.00  0.00     0.045 A 
HETATM    5  C10 UNL     1      23.613  -0.250  53.786  1.00  0.00     0.008 A 
HETATM    6  C12 UNL     1      24.935  -0.464  54.194  1.00  0.00     0.014 A 
HETATM    7  C13 UNL     1      25.858   0.233  53.457  1.00  0.00     0.022 A 
HETATM    8  C14 UNL     1      25.492   1.058  52.421  1.00  0.00     0.035 A 
HETATM    9  S1  UNL     1      26.398   2.068  51.304  1.00  0.00    -0.071 SA
ENDROOT
BRANCH   1  10
HETATM   10  C6  UNL     1      24.819   3.616  49.257  1.00  0.00     0.124 C 
HETATM   11  C2  UNL     1      25.747   4.769  49.531  1.00  0.00    -0.053 C 
HETATM   12  C1  UNL     1      26.972   4.817  48.986  1.00  0.00     0.017 C 
HETATM   13  C3  UNL     1      24.919   5.623  50.443  1.00  0.00     0.183 C 
HETATM   14  N1  UNL     1      23.612   5.416  49.926  1.00  0.00    -0.291 NA
HETATM   15  C4  UNL     1      23.511   4.331  49.271  1.00  0.00     0.050 C 
BRANCH  15  16
HETATM   16  C5  UNL     1      22.310   3.754  48.572  1.00  0.00     0.277 C 
HETATM   17  F1  UNL     1      22.708   2.699  47.763  1.00  0.00    -0.249 F 
ENDBRANCH  15  16
ENDBRANCH   1  10
BRANCH   5  18
HETATM   18  C11 UNL     1      22.526  -0.968  54.529  1.00  0.00     0.386 C 
HETATM   19  F2  UNL     1      23.017  -1.659  55.608  1.00  0.00    -0.209 F 
HETATM   20  F3  UNL     1      21.512  -0.075  54.892  1.00  0.00    -0.209 F 
ENDBRANCH   5  18
TORSDOF 3
ENDMDL
MODEL 5
REMARK VINA RESULT:      -7.2      2.471      3.360
REMARK  3 active torsions:
REMARK  status: ('A' for Active; 'I' for Inactive)
REMARK    1  A    between atoms: C4_5  and  C5_6 
REMARK    2  A    between atoms: C6_8  and  C7_9 
REMARK    3  A    between atoms: C10_13  and  C11_14 
ROOT
HETATM    1  C7  UNL     1      24.190   0.817  53.102  1.00  0.00     0.090 A 
HETATM    2  N2  UNL     1      23.224   0.301  53.450  1.00  0.00    -0.244 NA
HETATM    3  C8  UNL     1      22.033   0.254  52.889  1.00  0.00     0.075 A 
HETATM    4  C9  UNL     1      20.884  -0.395  53.362  1.00  0.00     0.045 A 
HETATM    5  C10 UNL     1      19.726  -0.304  52.587  1.00  0.00     0.008 A 
HETATM    6  C12 UNL     1      19.601   0.379  51.372  1.00  0.00     0.014 A 
HETATM    7  C13 UNL     1      20.758   0.993  50.963  1.00  0.00     0.022 A 
HETATM    8  C14 UNL     1      21.917   0.926  51.698  1.00  0.00     0.035 A 
HETATM    9  S1  UNL     1      23.532   1.581  51.466  1.00  0.00    -0.071 SA
ENDROOT
BRANCH   1  10
HETATM   10  C6  UNL     1      25.581   0.972  53.589  1.00  0.00     0.124 C 
HETATM   11  C2  UNL     1      26.546   0.987  52.434  1.00  0.00    -0.053 C 
HETATM   12  C1  UNL     1      27.062   2.137  51.976  1.00  0.00     0.017 C 
HETATM   13  C3  UNL     1      26.655  -0.472  52.104  1.00  0.00     0.183 C 
HETATM   14  N1  UNL     1      26.549  -1.068  53.389  1.00  0.00    -0.291 NA
HETATM   15  C4  UNL     1      25.970  -0.314  54.233  1.00  0.00     0.050 C 
BRANCH  15  16
HETATM   16  C5  UNL     1      25.666  -0.573  55.683  1.00  0.00     0.277 C 
HETATM   17  F1  UNL     1      24.555  -1.398  55.785  1.00  0.00    -0.249 F 
ENDBRANCH  15  16
ENDBRANCH   1  10
BRANCH   5  18
HETATM   18  C11 UNL     1      18.516  -1.010  53.122  1.00  0.00     0.386 C 
HETATM   19  F2  UNL     1      17.605  -1.279  52.133  1.00  0.00    -0.209 F 
HETATM   20  F3  UNL     1      18.893  -2.162  53.821  1.00  0.00    -0.209 F 
ENDBRANCH   5  18
TORSDOF 3
ENDMDL
MODEL 6
REMARK VINA RESULT:      -6.9      3.195      6.373
REMARK  3 active torsions:
REMARK  status: ('A' for Active; 'I' for Inactive)
REMARK    1  A    between atoms: C4_5  and  C5_6 
REMARK    2  A    between atoms: C6_8  and  C7_9 
REMARK    3  A    between atoms: C10_13  and  C11_14 
ROOT
HETATM    1  C7  UNL     1      23.121   1.667  52.704  1.00  0.00     0.090 A 
HETATM    2  N2  UNL     1      24.190   2.061  52.848  1.00  0.00    -0.244 NA
HETATM    3  C8  UNL     1      25.270   1.454  53.295  1.00  0.00     0.075 A 
HETATM    4  C9  UNL     1      26.557   1.987  53.450  1.00  0.00     0.045 A 
HETATM    5  C10 UNL     1      27.551   1.143  53.948  1.00  0.00     0.008 A 
HETATM    6  C12 UNL     1      27.385  -0.198  54.310  1.00  0.00     0.014 A 
HETATM    7  C13 UNL     1      26.106  -0.662  54.136  1.00  0.00     0.022 A 
HETATM    8  C14 UNL     1      25.101   0.138  53.649  1.00  0.00     0.035 A 
HETATM    9  S1  UNL     1      23.397  -0.134  53.313  1.00  0.00    -0.071 SA
ENDROOT
BRANCH   1  10
HETATM   10  C6  UNL     1      21.819   2.191  52.228  1.00  0.00     0.124 C 
HETATM   11  C2  UNL     1      21.275   1.328  51.121  1.00  0.00    -0.053 C 
HETATM   12  C1  UNL     1      20.310   0.427  51.355  1.00  0.00     0.017 C 
HETATM   13  C3  UNL     1      22.077   1.796  49.942  1.00  0.00     0.183 C 
HETATM   14  N1  UNL     1      22.231   3.178  50.229  1.00  0.00    -0.291 NA
HETATM   15  C4  UNL     1      22.098   3.441  51.465  1.00  0.00     0.050 C 
BRANCH  15  16
HETATM   16  C5  UNL     1      22.188   4.768  52.168  1.00  0.00     0.277 C 
HETATM   17  F1  UNL     1      22.819   5.688  51.342  1.00  0.00    -0.249 F 
ENDBRANCH  15  16
ENDBRANCH   1  10
BRANCH   5  18
HETATM   18  C11 UNL     1      28.915   1.747  54.101  1.00  0.00     0.386 C 
HETATM   19  F2  UNL     1      29.901   0.887  53.690  1.00  0.00    -0.209 F 
HETATM   20  F3  UNL     1      28.979   2.979  53.441  1.00  0.00    -0.209 F 
ENDBRANCH   5  18
TORSDOF 3
ENDMDL
MODEL 7
REMARK VINA RESULT:      -6.9      3.651      4.763
REMARK  3 active torsions:
REMARK  status: ('A' for Active; 'I' for Inactive)
REMARK    1  A    between atoms: C4_5  and  C5_6 
REMARK    2  A    between atoms: C6_8  and  C7_9 
REMARK    3  A    between atoms: C10_13  and  C11_14 
ROOT
HETATM    1  C7  UNL     1      23.378   2.525  50.351  1.00  0.00     0.090 A 
HETATM    2  N2  UNL     1      23.574   1.735  51.162  1.00  0.00    -0.244 NA
HETATM    3  C8  UNL     1      22.781   1.261  52.101  1.00  0.00     0.075 A 
HETATM    4  C9  UNL     1      23.076   0.292  53.069  1.00  0.00     0.045 A 
HETATM    5  C10 UNL     1      22.065  -0.053  53.967  1.00  0.00     0.008 A 
HETATM    6  C12 UNL     1      20.771   0.480  53.994  1.00  0.00     0.014 A 
HETATM    7  C13 UNL     1      20.544   1.422  53.023  1.00  0.00     0.022 A 
HETATM    8  C14 UNL     1      21.514   1.788  52.121  1.00  0.00     0.035 A 
HETATM    9  S1  UNL     1      21.551   2.932  50.787  1.00  0.00    -0.071 SA
ENDROOT
BRANCH   1  10
HETATM   10  C6  UNL     1      24.129   3.164  49.245  1.00  0.00     0.124 C 
HETATM   11  C2  UNL     1      25.319   3.914  49.779  1.00  0.00    -0.053 C 
HETATM   12  C1  UNL     1      26.555   3.395  49.709  1.00  0.00     0.017 C 
HETATM   13  C3  UNL     1      24.687   5.174  50.291  1.00  0.00     0.183 C 
HETATM   14  N1  UNL     1      23.643   5.376  49.350  1.00  0.00    -0.291 NA
HETATM   15  C4  UNL     1      23.306   4.305  48.754  1.00  0.00     0.050 C 
BRANCH  15  16
HETATM   16  C5  UNL     1      22.253   4.097  47.699  1.00  0.00     0.277 C 
HETATM   17  F1  UNL     1      22.415   2.845  47.123  1.00  0.00    -0.249 F 
ENDBRANCH  15  16
ENDBRANCH   1  10
BRANCH   5  18
HETATM   18  C11 UNL     1      22.415  -1.093  54.990  1.00  0.00     0.386 C 
HETATM   19  F2  UNL     1      21.854  -2.309  54.692  1.00  0.00    -0.209 F 
HETATM   20  F3  UNL     1      23.803  -1.175  55.146  1.00  0.00    -0.209 F 
ENDBRANCH   5  18
TORSDOF 3
ENDMDL
MODEL 8
REMARK VINA RESULT:      -6.9      2.826      6.531
REMARK  3 active torsions:
REMARK  status: ('A' for Active; 'I' for Inactive)
REMARK    1  A    between atoms: C4_5  and  C5_6 
REMARK    2  A    between atoms: C6_8  and  C7_9 
REMARK    3  A    between atoms: C10_13  and  C11_14 
ROOT
HETATM    1  C7  UNL     1      23.247   1.169  51.498  1.00  0.00     0.090 A 
HETATM    2  N2  UNL     1      24.358   1.460  51.536  1.00  0.00    -0.244 NA
HETATM    3  C8  UNL     1      25.294   1.141  52.405  1.00  0.00     0.075 A 
HETATM    4  C9  UNL     1      26.642   1.529  52.402  1.00  0.00     0.045 A 
HETATM    5  C10 UNL     1      27.451   1.060  53.438  1.00  0.00     0.008 A 
HETATM    6  C12 UNL     1      27.044   0.233  54.491  1.00  0.00     0.014 A 
HETATM    7  C13 UNL     1      25.717  -0.111  54.439  1.00  0.00     0.022 A 
HETATM    8  C14 UNL     1      24.888   0.330  53.435  1.00  0.00     0.035 A 
HETATM    9  S1  UNL     1      23.184   0.082  53.082  1.00  0.00    -0.071 SA
ENDROOT
BRANCH   1  10
HETATM   10  C6  UNL     1      22.080   1.427  50.623  1.00  0.00     0.124 C 
HETATM   11  C2  UNL     1      22.351   2.594  49.711  1.00  0.00    -0.053 C 
HETATM   12  C1  UNL     1      22.695   2.406  48.428  1.00  0.00     0.017 C 
HETATM   13  C3  UNL     1      22.126   3.761  50.626  1.00  0.00     0.183 C 
HETATM   14  N1  UNL     1      21.071   3.282  51.449  1.00  0.00    -0.291 NA
HETATM   15  C4  UNL     1      21.008   2.013  51.477  1.00  0.00     0.050 C 
BRANCH  15  16
HETATM   16  C5  UNL     1      20.046   1.127  52.220  1.00  0.00     0.277 C 
HETATM   17  F1  UNL     1      19.930  -0.088  51.560  1.00  0.00    -0.249 F 
ENDBRANCH  15  16
ENDBRANCH   1  10
BRANCH   5  18
HETATM   18  C11 UNL     1      28.886   1.494  53.402  1.00  0.00     0.386 C 
HETATM   19  F2  UNL     1      29.057   2.735  53.962  1.00  0.00    -0.209 F 
HETATM   20  F3  UNL     1      29.702   0.528  54.001  1.00  0.00    -0.209 F 
ENDBRANCH   5  18
TORSDOF 3
ENDMDL
MODEL 9
REMARK VINA RESULT:      -6.7      4.064      8.085
REMARK  3 active torsions:
REMARK  status: ('A' for Active; 'I' for Inactive)
REMARK    1  A    between atoms: C4_5  and  C5_6 
REMARK    2  A    between atoms: C6_8  and  C7_9 
REMARK    3  A    between atoms: C10_13  and  C11_14 
ROOT
HETATM    1  C7  UNL     1      25.345   3.092  50.440  1.00  0.00     0.090 A 
HETATM    2  N2  UNL     1      26.342   3.470  50.011  1.00  0.00    -0.244 NA
HETATM    3  C8  UNL     1      26.619   4.566  49.336  1.00  0.00     0.075 A 
HETATM    4  C9  UNL     1      27.861   4.978  48.835  1.00  0.00     0.045 A 
HETATM    5  C10 UNL     1      27.909   6.191  48.145  1.00  0.00     0.008 A 
HETATM    6  C12 UNL     1      26.826   7.044  47.904  1.00  0.00     0.014 A 
HETATM    7  C13 UNL     1      25.640   6.586  48.419  1.00  0.00     0.022 A 
HETATM    8  C14 UNL     1      25.552   5.398  49.103  1.00  0.00     0.035 A 
HETATM    9  S1  UNL     1      24.222   4.544  49.871  1.00  0.00    -0.071 SA
ENDROOT
BRANCH   1  10
HETATM   10  C6  UNL     1      24.860   1.917  51.202  1.00  0.00     0.124 C 
HETATM   11  C2  UNL     1      23.588   2.252  51.935  1.00  0.00    -0.053 C 
HETATM   12  C1  UNL     1      22.393   1.865  51.462  1.00  0.00     0.017 C 
HETATM   13  C3  UNL     1      24.104   3.011  53.121  1.00  0.00     0.183 C 
HETATM   14  N1  UNL     1      25.331   2.343  53.379  1.00  0.00    -0.291 NA
HETATM   15  C4  UNL     1      25.781   1.731  52.359  1.00  0.00     0.050 C 
BRANCH  15  16
HETATM   16  C5  UNL     1      27.036   0.915  52.221  1.00  0.00     0.277 C 
HETATM   17  F1  UNL     1      26.775  -0.211  51.452  1.00  0.00    -0.249 F 
ENDBRANCH  15  16
ENDBRANCH   1  10
BRANCH   5  18
HETATM   18  C11 UNL     1      29.254   6.601  47.623  1.00  0.00     0.386 C 
HETATM   19  F2  UNL     1      29.781   7.647  48.337  1.00  0.00    -0.209 F 
HETATM   20  F3  UNL     1      30.117   5.501  47.583  1.00  0.00    -0.209 F 
ENDBRANCH   5  18
TORSDOF 3
ENDMDL
