MODEL 1
REMARK VINA RESULT:      -9.4      0.000      0.000
REMARK  3 active torsions:
REMARK  status: ('A' for Active; 'I' for Inactive)
REMARK    1  A    between atoms: C7_7  and  N1_8 
REMARK    2  A    between atoms: N1_8  and  C8_9 
REMARK    3  A    between atoms: O1_16  and  C12_17 
ROOT
HETATM    1  C1  UNL     1      28.813  -2.912  53.082  1.00  0.00     0.018 C 
HETATM    2  C2  UNL     1      28.717  -1.738  53.213  1.00  0.00    -0.078 C 
HETATM    3  C3  UNL     1      28.614  -0.295  53.362  1.00  0.00     0.019 A 
HETATM    4  C4  UNL     1      29.527   0.484  54.061  1.00  0.00     0.021 A 
HETATM    5  C5  UNL     1      29.368   1.856  54.155  1.00  0.00     0.004 A 
HETATM    6  C6  UNL     1      28.301   2.471  53.555  1.00  0.00     0.029 A 
HETATM    7  C7  UNL     1      27.398   1.670  52.859  1.00  0.00     0.035 A 
HETATM    8  C22 UNL     1      27.533   0.310  52.752  1.00  0.00     0.050 A 
ENDROOT
BRANCH   7   9
HETATM    9  N1  UNL     1      26.323   2.445  52.275  1.00  0.00    -0.341 N 
HETATM   10  H5  UNL     1      26.603   3.456  52.044  1.00  0.00     0.167 HD
BRANCH   9  11
HETATM   11  C8  UNL     1      24.952   2.069  51.940  1.00  0.00     0.132 C 
HETATM   12  N2  UNL     1      24.860   2.903  50.984  1.00  0.00    -0.225 NA
HETATM   13  C9  UNL     1      23.869   3.220  50.104  1.00  0.00     0.229 C 
HETATM   14  N3  UNL     1      22.944   3.221  49.272  1.00  0.00    -0.272 NA
HETATM   15  C10 UNL     1      22.290   2.144  48.645  1.00  0.00     0.229 C 
HETATM   16  S1  UNL     1      20.928   1.432  49.512  1.00  0.00    -0.104 SA
HETATM   17  C11 UNL     1      21.228   0.593  51.008  1.00  0.00     0.058 A 
HETATM   18  O1  UNL     1      19.948   0.177  50.616  1.00  0.00     0.000 OA
HETATM   19  C17 UNL     1      21.854   0.171  52.144  1.00  0.00     0.120 C 
HETATM   20  O3  UNL     1      20.986  -0.720  52.754  1.00  0.00    -0.345 OA
HETATM   21  C20 UNL     1      23.094   0.350  52.866  1.00  0.00     0.107 C 
HETATM   22  C18 UNL     1      20.739  -0.744  54.166  1.00  0.00     0.202 C 
HETATM   23  C19 UNL     1      22.041  -0.646  54.912  1.00  0.00     0.202 C 
HETATM   24  O4  UNL     1      23.114  -0.445  53.993  1.00  0.00    -0.346 OA
HETATM   25  C21 UNL     1      24.218   1.062  52.745  1.00  0.00     0.090 C 
BRANCH  18  26
HETATM   26  C12 UNL     1      18.782   0.784  51.087  1.00  0.00    -0.006 C 
HETATM   27  C13 UNL     1      17.931  -0.267  51.788  1.00  0.00     0.031 C 
HETATM   28  C14 UNL     1      16.551   0.359  51.949  1.00  0.00     0.168 C 
HETATM   29  O2  UNL     1      15.874   0.365  50.724  1.00  0.00    -0.391 OA
HETATM   30  C15 UNL     1      16.757   0.392  49.655  1.00  0.00     0.168 C 
HETATM   31  C16 UNL     1      17.944   1.306  49.918  1.00  0.00     0.031 C 
ENDBRANCH  18  26
ENDBRANCH   9  11
ENDBRANCH   7   9
TORSDOF 3
ENDMDL
MODEL 2
REMARK VINA RESULT:      -9.0      3.959      6.256
REMARK  3 active torsions:
REMARK  status: ('A' for Active; 'I' for Inactive)
REMARK    1  A    between atoms: C7_7  and  N1_8 
REMARK    2  A    between atoms: N1_8  and  C8_9 
REMARK    3  A    between atoms: O1_16  and  C12_17 
ROOT
HETATM    1  C1  UNL     1      29.923  10.091  48.072  1.00  0.00     0.018 C 
HETATM    2  C2  UNL     1      29.442   9.011  48.157  1.00  0.00    -0.078 C 
HETATM    3  C3  UNL     1      28.862   7.683  48.275  1.00  0.00     0.019 A 
HETATM    4  C4  UNL     1      29.551   6.506  48.018  1.00  0.00     0.021 A 
HETATM    5  C5  UNL     1      28.935   5.274  48.159  1.00  0.00     0.004 A 
HETATM    6  C6  UNL     1      27.627   5.196  48.560  1.00  0.00     0.029 A 
HETATM    7  C7  UNL     1      26.956   6.391  48.812  1.00  0.00     0.035 A 
HETATM    8  C22 UNL     1      27.543   7.623  48.679  1.00  0.00     0.050 A 
ENDROOT
BRANCH   7   9
HETATM    9  N1  UNL     1      25.586   6.166  49.227  1.00  0.00    -0.341 N 
HETATM   10  H5  UNL     1      24.929   6.981  48.990  1.00  0.00     0.167 HD
BRANCH   9  11
HETATM   11  C8  UNL     1      24.969   5.018  49.888  1.00  0.00     0.132 C 
HETATM   12  N2  UNL     1      23.785   5.462  49.753  1.00  0.00    -0.225 NA
HETATM   13  C9  UNL     1      22.557   4.991  50.108  1.00  0.00     0.229 C 
HETATM   14  N3  UNL     1      21.535   4.312  50.316  1.00  0.00    -0.272 NA
HETATM   15  C10 UNL     1      21.266   2.965  50.012  1.00  0.00     0.229 C 
HETATM   16  S1  UNL     1      21.776   1.768  51.204  1.00  0.00    -0.104 SA
HETATM   17  C11 UNL     1      23.479   1.534  51.488  1.00  0.00     0.058 A 
HETATM   18  O1  UNL     1      22.867   0.398  52.034  1.00  0.00     0.000 OA
HETATM   19  C17 UNL     1      24.824   1.759  51.499  1.00  0.00     0.120 C 
HETATM   20  O3  UNL     1      25.392   0.656  52.117  1.00  0.00    -0.345 OA
HETATM   21  C20 UNL     1      25.794   2.741  51.072  1.00  0.00     0.107 C 
HETATM   22  C18 UNL     1      26.454   0.747  53.076  1.00  0.00     0.202 C 
HETATM   23  C19 UNL     1      27.504   1.705  52.585  1.00  0.00     0.202 C 
HETATM   24  O4  UNL     1      27.072   2.318  51.371  1.00  0.00    -0.346 OA
HETATM   25  C21 UNL     1      25.799   3.935  50.470  1.00  0.00     0.090 C 
BRANCH  18  26
HETATM   26  C12 UNL     1      22.537   0.298  53.387  1.00  0.00    -0.006 C 
HETATM   27  C13 UNL     1      23.435  -0.748  54.035  1.00  0.00     0.031 C 
HETATM   28  C14 UNL     1      22.797  -1.065  55.381  1.00  0.00     0.168 C 
HETATM   29  O2  UNL     1      21.666  -1.870  55.206  1.00  0.00    -0.391 OA
HETATM   30  C15 UNL     1      21.091  -1.675  53.959  1.00  0.00     0.168 C 
HETATM   31  C16 UNL     1      21.102  -0.210  53.549  1.00  0.00     0.031 C 
ENDBRANCH  18  26
ENDBRANCH   9  11
ENDBRANCH   7   9
TORSDOF 3
ENDMDL
MODEL 3
REMARK VINA RESULT:      -8.5      3.106      9.028
REMARK  3 active torsions:
REMARK  status: ('A' for Active; 'I' for Inactive)
REMARK    1  A    between atoms: C7_7  and  N1_8 
REMARK    2  A    between atoms: N1_8  and  C8_9 
REMARK    3  A    between atoms: O1_16  and  C12_17 
ROOT
HETATM    1  C1  UNL     1      17.022  -3.917  53.499  1.00  0.00     0.018 C 
HETATM    2  C2  UNL     1      16.921  -2.800  53.114  1.00  0.00    -0.078 C 
HETATM    3  C3  UNL     1      16.791  -1.426  52.657  1.00  0.00     0.019 A 
HETATM    4  C4  UNL     1      15.578  -0.782  52.457  1.00  0.00     0.021 A 
HETATM    5  C5  UNL     1      15.531   0.533  52.027  1.00  0.00     0.004 A 
HETATM    6  C6  UNL     1      16.689   1.226  51.793  1.00  0.00     0.029 A 
HETATM    7  C7  UNL     1      17.896   0.560  52.001  1.00  0.00     0.035 A 
HETATM    8  C22 UNL     1      17.968  -0.742  52.425  1.00  0.00     0.050 A 
ENDROOT
BRANCH   7   9
HETATM    9  N1  UNL     1      19.037   1.405  51.718  1.00  0.00    -0.341 N 
HETATM   10  H5  UNL     1      18.785   2.296  51.176  1.00  0.00     0.167 HD
BRANCH   9  11
HETATM   11  C8  UNL     1      20.448   1.245  52.065  1.00  0.00     0.132 C 
HETATM   12  N2  UNL     1      20.204   0.690  53.183  1.00  0.00    -0.225 NA
HETATM   13  C9  UNL     1      20.990   0.203  54.183  1.00  0.00     0.229 C 
HETATM   14  N3  UNL     1      21.853  -0.367  54.876  1.00  0.00    -0.272 NA
HETATM   15  C10 UNL     1      22.928  -1.189  54.487  1.00  0.00     0.229 C 
HETATM   16  S1  UNL     1      24.433  -0.374  54.061  1.00  0.00    -0.104 SA
HETATM   17  C11 UNL     1      24.474   0.631  52.639  1.00  0.00     0.058 A 
HETATM   18  O1  UNL     1      25.820   0.387  52.941  1.00  0.00     0.000 OA
HETATM   19  C17 UNL     1      24.052   1.389  51.586  1.00  0.00     0.120 C 
HETATM   20  O3  UNL     1      25.198   1.804  50.928  1.00  0.00    -0.345 OA
HETATM   21  C20 UNL     1      22.833   1.857  50.967  1.00  0.00     0.107 C 
HETATM   22  C18 UNL     1      25.383   3.134  50.425  1.00  0.00     0.202 C 
HETATM   23  C19 UNL     1      24.141   3.584  49.705  1.00  0.00     0.202 C 
HETATM   24  O4  UNL     1      23.118   2.598  49.840  1.00  0.00    -0.346 OA
HETATM   25  C21 UNL     1      21.516   1.771  51.179  1.00  0.00     0.090 C 
BRANCH  18  26
HETATM   26  C12 UNL     1      26.594   1.271  53.696  1.00  0.00    -0.006 C 
HETATM   27  C13 UNL     1      27.725   1.800  52.823  1.00  0.00     0.031 C 
HETATM   28  C14 UNL     1      28.716   2.451  53.780  1.00  0.00     0.168 C 
HETATM   29  O2  UNL     1      29.447   1.472  54.463  1.00  0.00    -0.391 OA
HETATM   30  C15 UNL     1      28.733   0.288  54.572  1.00  0.00     0.168 C 
HETATM   31  C16 UNL     1      27.260   0.534  54.861  1.00  0.00     0.031 C 
ENDBRANCH  18  26
ENDBRANCH   9  11
ENDBRANCH   7   9
TORSDOF 3
ENDMDL
MODEL 4
REMARK VINA RESULT:      -8.4      2.219      8.847
REMARK  3 active torsions:
REMARK  status: ('A' for Active; 'I' for Inactive)
REMARK    1  A    between atoms: C7_7  and  N1_8 
REMARK    2  A    between atoms: N1_8  and  C8_9 
REMARK    3  A    between atoms: O1_16  and  C12_17 
ROOT
HETATM    1  C1  UNL     1      14.632   3.824  52.903  1.00  0.00     0.018 C 
HETATM    2  C2  UNL     1      15.024   2.910  52.259  1.00  0.00    -0.078 C 
HETATM    3  C3  UNL     1      15.493   1.792  51.455  1.00  0.00     0.019 A 
HETATM    4  C4  UNL     1      14.744   0.653  51.192  1.00  0.00     0.021 A 
HETATM    5  C5  UNL     1      15.254  -0.370  50.411  1.00  0.00     0.004 A 
HETATM    6  C6  UNL     1      16.514  -0.273  49.880  1.00  0.00     0.029 A 
HETATM    7  C7  UNL     1      17.247   0.879  50.158  1.00  0.00     0.035 A 
HETATM    8  C22 UNL     1      16.764   1.905  50.929  1.00  0.00     0.050 A 
ENDROOT
BRANCH   7   9
HETATM    9  N1  UNL     1      18.555   0.852  49.537  1.00  0.00    -0.341 N 
HETATM   10  H5  UNL     1      18.519   0.734  48.471  1.00  0.00     0.167 HD
BRANCH   9  11
HETATM   11  C8  UNL     1      19.889   0.977  50.123  1.00  0.00     0.132 C 
HETATM   12  N2  UNL     1      20.388   1.530  49.092  1.00  0.00    -0.225 NA
HETATM   13  C9  UNL     1      21.631   1.992  48.781  1.00  0.00     0.229 C 
HETATM   14  N3  UNL     1      22.750   2.537  48.761  1.00  0.00    -0.272 NA
HETATM   15  C10 UNL     1      23.384   3.337  49.730  1.00  0.00     0.229 C 
HETATM   16  S1  UNL     1      24.300   2.491  50.979  1.00  0.00    -0.104 SA
HETATM   17  C11 UNL     1      23.444   1.496  52.123  1.00  0.00     0.058 A 
HETATM   18  O1  UNL     1      24.701   1.708  52.705  1.00  0.00     0.000 OA
HETATM   19  C17 UNL     1      22.452   0.756  52.695  1.00  0.00     0.120 C 
HETATM   20  O3  UNL     1      22.951   0.319  53.912  1.00  0.00    -0.345 OA
HETATM   21  C20 UNL     1      21.097   0.320  52.440  1.00  0.00     0.107 C 
HETATM   22  C18 UNL     1      22.761  -1.011  54.413  1.00  0.00     0.202 C 
HETATM   23  C19 UNL     1      21.328  -1.427  54.224  1.00  0.00     0.202 C 
HETATM   24  O4  UNL     1      20.621  -0.419  53.502  1.00  0.00    -0.346 OA
HETATM   25  C21 UNL     1      20.184   0.434  51.471  1.00  0.00     0.090 C 
BRANCH  18  26
HETATM   26  C12 UNL     1      25.755   0.801  52.570  1.00  0.00    -0.006 C 
HETATM   27  C13 UNL     1      26.143   0.293  53.953  1.00  0.00     0.031 C 
HETATM   28  C14 UNL     1      27.495  -0.388  53.779  1.00  0.00     0.168 C 
HETATM   29  O2  UNL     1      28.507   0.570  53.639  1.00  0.00    -0.391 OA
HETATM   30  C15 UNL     1      28.016   1.753  53.106  1.00  0.00     0.168 C 
HETATM   31  C16 UNL     1      26.993   1.504  52.009  1.00  0.00     0.031 C 
ENDBRANCH  18  26
ENDBRANCH   9  11
ENDBRANCH   7   9
TORSDOF 3
ENDMDL
MODEL 5
REMARK VINA RESULT:      -8.4      3.777      6.385
REMARK  3 active torsions:
REMARK  status: ('A' for Active; 'I' for Inactive)
REMARK    1  A    between atoms: C7_7  and  N1_8 
REMARK    2  A    between atoms: N1_8  and  C8_9 
REMARK    3  A    between atoms: O1_16  and  C12_17 
ROOT
HETATM    1  C1  UNL     1      24.596   9.430  47.450  1.00  0.00     0.018 C 
HETATM    2  C2  UNL     1      25.515   8.692  47.570  1.00  0.00    -0.078 C 
HETATM    3  C3  UNL     1      26.650   7.796  47.729  1.00  0.00     0.019 A 
HETATM    4  C4  UNL     1      27.932   8.074  47.272  1.00  0.00     0.021 A 
HETATM    5  C5  UNL     1      28.967   7.175  47.466  1.00  0.00     0.004 A 
HETATM    6  C6  UNL     1      28.743   5.992  48.119  1.00  0.00     0.029 A 
HETATM    7  C7  UNL     1      27.449   5.735  48.569  1.00  0.00     0.035 A 
HETATM    8  C22 UNL     1      26.407   6.608  48.388  1.00  0.00     0.050 A 
ENDROOT
BRANCH   7   9
HETATM    9  N1  UNL     1      27.352   4.455  49.240  1.00  0.00    -0.341 N 
HETATM   10  H5  UNL     1      28.279   3.914  49.262  1.00  0.00     0.167 HD
BRANCH   9  11
HETATM   11  C8  UNL     1      26.217   3.807  49.893  1.00  0.00     0.132 C 
HETATM   12  N2  UNL     1      26.932   2.917  50.454  1.00  0.00    -0.225 NA
HETATM   13  C9  UNL     1      26.654   1.869  51.279  1.00  0.00     0.229 C 
HETATM   14  N3  UNL     1      26.239   1.110  52.174  1.00  0.00    -0.272 NA
HETATM   15  C10 UNL     1      25.381   1.373  53.258  1.00  0.00     0.229 C 
HETATM   16  S1  UNL     1      23.649   1.242  52.946  1.00  0.00    -0.104 SA
HETATM   17  C11 UNL     1      22.900   2.383  51.863  1.00  0.00     0.058 A 
HETATM   18  O1  UNL     1      21.835   1.809  52.570  1.00  0.00     0.000 OA
HETATM   19  C17 UNL     1      22.752   3.337  50.900  1.00  0.00     0.120 C 
HETATM   20  O3  UNL     1      21.393   3.593  50.818  1.00  0.00    -0.345 OA
HETATM   21  C20 UNL     1      23.544   4.134  49.990  1.00  0.00     0.107 C 
HETATM   22  C18 UNL     1      20.693   3.762  49.578  1.00  0.00     0.202 C 
HETATM   23  C19 UNL     1      21.480   4.665  48.668  1.00  0.00     0.202 C 
HETATM   24  O4  UNL     1      22.735   4.987  49.268  1.00  0.00    -0.346 OA
HETATM   25  C21 UNL     1      24.830   4.278  49.658  1.00  0.00     0.090 C 
BRANCH  18  26
HETATM   26  C12 UNL     1      21.102   0.727  52.080  1.00  0.00    -0.006 C 
HETATM   27  C13 UNL     1      19.632   1.122  52.009  1.00  0.00     0.031 C 
HETATM   28  C14 UNL     1      18.863  -0.179  51.822  1.00  0.00     0.168 C 
HETATM   29  O2  UNL     1      18.809  -0.890  53.028  1.00  0.00    -0.391 OA
HETATM   30  C15 UNL     1      19.891  -0.590  53.843  1.00  0.00     0.168 C 
HETATM   31  C16 UNL     1      21.182  -0.454  53.050  1.00  0.00     0.031 C 
ENDBRANCH  18  26
ENDBRANCH   9  11
ENDBRANCH   7   9
TORSDOF 3
ENDMDL
MODEL 6
REMARK VINA RESULT:      -8.1      8.171     11.439
REMARK  3 active torsions:
REMARK  status: ('A' for Active; 'I' for Inactive)
REMARK    1  A    between atoms: C7_7  and  N1_8 
REMARK    2  A    between atoms: N1_8  and  C8_9 
REMARK    3  A    between atoms: O1_16  and  C12_17 
ROOT
HETATM    1  C1  UNL     1      27.840   0.290  53.009  1.00  0.00     0.018 C 
HETATM    2  C2  UNL     1      27.051   1.045  52.547  1.00  0.00    -0.078 C 
HETATM    3  C3  UNL     1      26.086   1.981  51.994  1.00  0.00     0.019 A 
HETATM    4  C4  UNL     1      24.824   2.206  52.528  1.00  0.00     0.021 A 
HETATM    5  C5  UNL     1      23.959   3.120  51.951  1.00  0.00     0.004 A 
HETATM    6  C6  UNL     1      24.338   3.825  50.839  1.00  0.00     0.029 A 
HETATM    7  C7  UNL     1      25.609   3.583  50.321  1.00  0.00     0.035 A 
HETATM    8  C22 UNL     1      26.484   2.682  50.873  1.00  0.00     0.050 A 
ENDROOT
BRANCH   7   9
HETATM    9  N1  UNL     1      25.881   4.392  49.151  1.00  0.00    -0.341 N 
HETATM   10  H5  UNL     1      25.219   4.191  48.330  1.00  0.00     0.167 HD
BRANCH   9  11
HETATM   11  C8  UNL     1      26.883   5.431  48.924  1.00  0.00     0.132 C 
HETATM   12  N2  UNL     1      26.063   6.387  49.099  1.00  0.00    -0.225 NA
HETATM   13  C9  UNL     1      26.179   7.744  49.065  1.00  0.00     0.229 C 
HETATM   14  N3  UNL     1      26.520   8.933  49.198  1.00  0.00    -0.272 NA
HETATM   15  C10 UNL     1      27.610   9.490  49.893  1.00  0.00     0.229 C 
HETATM   16  S1  UNL     1      29.135   9.603  49.014  1.00  0.00    -0.104 SA
HETATM   17  C11 UNL     1      29.960   8.136  48.565  1.00  0.00     0.058 A 
HETATM   18  O1  UNL     1      30.928   9.142  48.443  1.00  0.00     0.000 OA
HETATM   19  C17 UNL     1      30.189   6.818  48.302  1.00  0.00     0.120 C 
HETATM   20  O3  UNL     1      31.522   6.725  47.935  1.00  0.00    -0.345 OA
HETATM   21  C20 UNL     1      29.503   5.545  48.302  1.00  0.00     0.107 C 
HETATM   22  C18 UNL     1      31.988   5.917  46.847  1.00  0.00     0.202 C 
HETATM   23  C19 UNL     1      31.337   4.562  46.903  1.00  0.00     0.202 C 
HETATM   24  O4  UNL     1      30.369   4.531  47.952  1.00  0.00    -0.346 OA
HETATM   25  C21 UNL     1      28.274   5.080  48.548  1.00  0.00     0.090 C 
BRANCH  18  26
HETATM   26  C12 UNL     1      31.208   9.775  47.230  1.00  0.00    -0.006 C 
HETATM   27  C13 UNL     1      32.580   9.323  46.746  1.00  0.00     0.031 C 
HETATM   28  C14 UNL     1      32.971  10.299  45.643  1.00  0.00     0.168 C 
HETATM   29  O2  UNL     1      33.359  11.525  46.195  1.00  0.00    -0.391 OA
HETATM   30  C15 UNL     1      32.751  11.747  47.421  1.00  0.00     0.168 C 
HETATM   31  C16 UNL     1      31.300  11.289  47.430  1.00  0.00     0.031 C 
ENDBRANCH  18  26
ENDBRANCH   9  11
ENDBRANCH   7   9
TORSDOF 3
ENDMDL
MODEL 7
REMARK VINA RESULT:      -8.1      7.697      9.276
REMARK  3 active torsions:
REMARK  status: ('A' for Active; 'I' for Inactive)
REMARK    1  A    between atoms: C7_7  and  N1_8 
REMARK    2  A    between atoms: N1_8  and  C8_9 
REMARK    3  A    between atoms: O1_16  and  C12_17 
ROOT
HETATM    1  C1  UNL     1      31.411   0.812  46.330  1.00  0.00     0.018 C 
HETATM    2  C2  UNL     1      32.035   1.732  46.740  1.00  0.00    -0.078 C 
HETATM    3  C3  UNL     1      32.809   2.863  47.227  1.00  0.00     0.019 A 
HETATM    4  C4  UNL     1      34.183   2.841  47.422  1.00  0.00     0.021 A 
HETATM    5  C5  UNL     1      34.855   3.961  47.882  1.00  0.00     0.004 A 
HETATM    6  C6  UNL     1      34.171   5.117  48.151  1.00  0.00     0.029 A 
HETATM    7  C7  UNL     1      32.792   5.116  47.947  1.00  0.00     0.035 A 
HETATM    8  C22 UNL     1      32.104   4.020  47.493  1.00  0.00     0.050 A 
ENDROOT
BRANCH   7   9
HETATM    9  N1  UNL     1      32.195   6.396  48.268  1.00  0.00    -0.341 N 
HETATM   10  H5  UNL     1      32.906   7.125  48.608  1.00  0.00     0.167 HD
BRANCH   9  11
HETATM   11  C8  UNL     1      30.808   6.846  48.184  1.00  0.00     0.132 C 
HETATM   12  N2  UNL     1      31.120   8.067  48.009  1.00  0.00    -0.225 NA
HETATM   13  C9  UNL     1      30.395   9.207  47.834  1.00  0.00     0.229 C 
HETATM   14  N3  UNL     1      29.586  10.085  47.483  1.00  0.00    -0.272 NA
HETATM   15  C10 UNL     1      28.532  10.024  46.552  1.00  0.00     0.229 C 
HETATM   16  S1  UNL     1      26.977   9.445  47.153  1.00  0.00    -0.104 SA
HETATM   17  C11 UNL     1      26.837   7.786  47.666  1.00  0.00     0.058 A 
HETATM   18  O1  UNL     1      25.516   8.218  47.491  1.00  0.00     0.000 OA
HETATM   19  C17 UNL     1      27.185   6.531  48.072  1.00  0.00     0.120 C 
HETATM   20  O3  UNL     1      25.996   5.837  48.232  1.00  0.00    -0.345 OA
HETATM   21  C20 UNL     1      28.358   5.737  48.360  1.00  0.00     0.107 C 
HETATM   22  C18 UNL     1      25.736   4.959  49.335  1.00  0.00     0.202 C 
HETATM   23  C19 UNL     1      26.928   4.073  49.574  1.00  0.00     0.202 C 
HETATM   24  O4  UNL     1      27.996   4.452  48.707  1.00  0.00    -0.346 OA
HETATM   25  C21 UNL     1      29.684   5.897  48.380  1.00  0.00     0.090 C 
BRANCH  18  26
HETATM   26  C12 UNL     1      24.736   8.702  48.543  1.00  0.00    -0.006 C 
HETATM   27  C13 UNL     1      23.574   7.745  48.772  1.00  0.00     0.031 C 
HETATM   28  C14 UNL     1      22.587   8.497  49.657  1.00  0.00     0.168 C 
HETATM   29  O2  UNL     1      21.897   9.457  48.909  1.00  0.00    -0.391 OA
HETATM   30  C15 UNL     1      22.643   9.887  47.822  1.00  0.00     0.168 C 
HETATM   31  C16 UNL     1      24.115  10.050  48.168  1.00  0.00     0.031 C 
ENDBRANCH  18  26
ENDBRANCH   9  11
ENDBRANCH   7   9
TORSDOF 3
ENDMDL
MODEL 8
REMARK VINA RESULT:      -8.0      7.574     10.620
REMARK  3 active torsions:
REMARK  status: ('A' for Active; 'I' for Inactive)
REMARK    1  A    between atoms: C7_7  and  N1_8 
REMARK    2  A    between atoms: N1_8  and  C8_9 
REMARK    3  A    between atoms: O1_16  and  C12_17 
ROOT
HETATM    1  C1  UNL     1      22.174   0.665  53.395  1.00  0.00     0.018 C 
HETATM    2  C2  UNL     1      23.180   1.053  52.902  1.00  0.00    -0.078 C 
HETATM    3  C3  UNL     1      24.417   1.512  52.290  1.00  0.00     0.019 A 
HETATM    4  C4  UNL     1      25.683   1.199  52.764  1.00  0.00     0.021 A 
HETATM    5  C5  UNL     1      26.819   1.667  52.125  1.00  0.00     0.004 A 
HETATM    6  C6  UNL     1      26.710   2.449  51.006  1.00  0.00     0.029 A 
HETATM    7  C7  UNL     1      25.429   2.750  50.548  1.00  0.00     0.035 A 
HETATM    8  C22 UNL     1      24.289   2.300  51.164  1.00  0.00     0.050 A 
ENDROOT
BRANCH   7   9
HETATM    9  N1  UNL     1      25.458   3.580  49.362  1.00  0.00    -0.341 N 
HETATM   10  H5  UNL     1      24.881   3.182  48.548  1.00  0.00     0.167 HD
BRANCH   9  11
HETATM   11  C8  UNL     1      26.120   4.858  49.111  1.00  0.00     0.132 C 
HETATM   12  N2  UNL     1      25.050   5.537  49.215  1.00  0.00    -0.225 NA
HETATM   13  C9  UNL     1      24.765   6.865  49.116  1.00  0.00     0.229 C 
HETATM   14  N3  UNL     1      24.737   8.107  49.198  1.00  0.00    -0.272 NA
HETATM   15  C10 UNL     1      25.587   8.986  49.895  1.00  0.00     0.229 C 
HETATM   16  S1  UNL     1      27.048   9.509  49.054  1.00  0.00    -0.104 SA
HETATM   17  C11 UNL     1      28.283   8.332  48.702  1.00  0.00     0.058 A 
HETATM   18  O1  UNL     1      28.919   9.572  48.557  1.00  0.00     0.000 OA
HETATM   19  C17 UNL     1      28.898   7.130  48.512  1.00  0.00     0.120 C 
HETATM   20  O3  UNL     1      30.214   7.419  48.187  1.00  0.00    -0.345 OA
HETATM   21  C20 UNL     1      28.616   5.713  48.557  1.00  0.00     0.107 C 
HETATM   22  C18 UNL     1      30.941   6.741  47.154  1.00  0.00     0.202 C 
HETATM   23  C19 UNL     1      30.713   5.258  47.260  1.00  0.00     0.202 C 
HETATM   24  O4  UNL     1      29.754   4.986  48.282  1.00  0.00    -0.346 OA
HETATM   25  C21 UNL     1      27.568   4.918  48.791  1.00  0.00     0.090 C 
BRANCH  18  26
HETATM   26  C12 UNL     1      29.051  10.211  47.322  1.00  0.00    -0.006 C 
HETATM   27  C13 UNL     1      30.533  10.353  46.999  1.00  0.00     0.031 C 
HETATM   28  C14 UNL     1      30.612  11.354  45.853  1.00  0.00     0.168 C 
HETATM   29  O2  UNL     1      30.396  12.654  46.326  1.00  0.00    -0.391 OA
HETATM   30  C15 UNL     1      29.614  12.654  47.472  1.00  0.00     0.168 C 
HETATM   31  C16 UNL     1      28.489  11.633  47.395  1.00  0.00     0.031 C 
ENDBRANCH  18  26
ENDBRANCH   9  11
ENDBRANCH   7   9
TORSDOF 3
ENDMDL
MODEL 9
REMARK VINA RESULT:      -8.0      5.623      8.529
REMARK  3 active torsions:
REMARK  status: ('A' for Active; 'I' for Inactive)
REMARK    1  A    between atoms: C7_7  and  N1_8 
REMARK    2  A    between atoms: N1_8  and  C8_9 
REMARK    3  A    between atoms: O1_16  and  C12_17 
ROOT
HETATM    1  C1  UNL     1      26.765   0.694  54.322  1.00  0.00     0.018 C 
HETATM    2  C2  UNL     1      25.718   0.621  53.771  1.00  0.00    -0.078 C 
HETATM    3  C3  UNL     1      24.426   0.538  53.109  1.00  0.00     0.019 A 
HETATM    4  C4  UNL     1      23.439  -0.382  53.438  1.00  0.00     0.021 A 
HETATM    5  C5  UNL     1      22.228  -0.398  52.767  1.00  0.00     0.004 A 
HETATM    6  C6  UNL     1      21.980   0.501  51.764  1.00  0.00     0.029 A 
HETATM    7  C7  UNL     1      22.985   1.416  51.452  1.00  0.00     0.035 A 
HETATM    8  C22 UNL     1      24.193   1.451  52.100  1.00  0.00     0.050 A 
ENDROOT
BRANCH   7   9
HETATM    9  N1  UNL     1      22.593   2.306  50.378  1.00  0.00    -0.341 N 
HETATM   10  H5  UNL     1      21.835   1.895  49.739  1.00  0.00     0.167 HD
BRANCH   9  11
HETATM   11  C8  UNL     1      23.047   3.655  50.048  1.00  0.00     0.132 C 
HETATM   12  N2  UNL     1      21.869   4.127  49.960  1.00  0.00    -0.225 NA
HETATM   13  C9  UNL     1      21.369   5.361  49.675  1.00  0.00     0.229 C 
HETATM   14  N3  UNL     1      21.113   6.577  49.606  1.00  0.00    -0.272 NA
HETATM   15  C10 UNL     1      21.702   7.665  50.278  1.00  0.00     0.229 C 
HETATM   16  S1  UNL     1      23.141   8.369  49.537  1.00  0.00    -0.104 SA
HETATM   17  C11 UNL     1      24.598   7.418  49.457  1.00  0.00     0.058 A 
HETATM   18  O1  UNL     1      25.019   8.735  49.233  1.00  0.00     0.000 OA
HETATM   19  C17 UNL     1      25.434   6.340  49.475  1.00  0.00     0.120 C 
HETATM   20  O3  UNL     1      26.708   6.839  49.257  1.00  0.00    -0.345 OA
HETATM   21  C20 UNL     1      25.401   4.907  49.658  1.00  0.00     0.107 C 
HETATM   22  C18 UNL     1      27.665   6.213  48.392  1.00  0.00     0.202 C 
HETATM   23  C19 UNL     1      27.690   4.731  48.649  1.00  0.00     0.202 C 
HETATM   24  O4  UNL     1      26.676   4.383  49.591  1.00  0.00    -0.346 OA
HETATM   25  C21 UNL     1      24.489   3.955  49.875  1.00  0.00     0.090 C 
BRANCH  18  26
HETATM   26  C12 UNL     1      25.187   9.264  47.951  1.00  0.00    -0.006 C 
HETATM   27  C13 UNL     1      26.665   9.566  47.736  1.00  0.00     0.031 C 
HETATM   28  C14 UNL     1      26.730  10.454  46.500  1.00  0.00     0.168 C 
HETATM   29  O2  UNL     1      26.314  11.754  46.812  1.00  0.00    -0.391 OA
HETATM   30  C15 UNL     1      25.433  11.762  47.883  1.00  0.00     0.168 C 
HETATM   31  C16 UNL     1      24.453  10.601  47.826  1.00  0.00     0.031 C 
ENDBRANCH  18  26
ENDBRANCH   9  11
ENDBRANCH   7   9
TORSDOF 3
ENDMDL
