MODEL 1
REMARK VINA RESULT:      -8.1      0.000      0.000
REMARK  9 active torsions:
REMARK  status: ('A' for Active; 'I' for Inactive)
REMARK    1  A    between atoms: C2_2  and  C3_3 
REMARK    2  A    between atoms: C4_5  and  C5_6 
REMARK    3  A    between atoms: C14_18  and  C15_19 
REMARK    4  A    between atoms: C15_19  and  C16_20 
REMARK       I    between atoms: C16_20  and  N3_22 
REMARK    5  A    between atoms: N3_22  and  C17_23 
REMARK    6  A    between atoms: C17_23  and  C18_24 
REMARK    7  A    between atoms: C18_24  and  N4_25 
REMARK    8  A    between atoms: N4_25  and  C19_26 
REMARK    9  A    between atoms: N4_25  and  C21_28 
ROOT
HETATM    1  C3  UNL     1      26.754  -0.493  54.257  1.00  0.00     0.113 A 
HETATM    2  N1  UNL     1      25.382  -0.637  54.665  1.00  0.00    -0.381 N 
HETATM    3  C4  UNL     1      24.868  -0.276  53.397  1.00  0.00     0.034 A 
HETATM    4  C14 UNL     1      26.118  -0.129  52.971  1.00  0.00    -0.022 A 
HETATM    5  H7  UNL     1      25.265  -0.929  55.655  1.00  0.00     0.160 HD
ENDROOT
BRANCH   3   6
HETATM    6  C5  UNL     1      23.517  -0.153  52.904  1.00  0.00     0.047 C 
HETATM    7  C6  UNL     1      22.346  -0.501  53.383  1.00  0.00     0.047 A 
HETATM    8  C7  UNL     1      21.915  -1.152  54.604  1.00  0.00     0.257 A 
HETATM    9  C13 UNL     1      21.091  -0.251  52.657  1.00  0.00     0.009 A 
HETATM   10  O1  UNL     1      22.656  -1.549  55.528  1.00  0.00    -0.267 OA
HETATM   11  N2  UNL     1      20.505  -1.312  54.666  1.00  0.00    -0.322 N 
HETATM   12  C8  UNL     1      20.078  -0.739  53.446  1.00  0.00     0.046 A 
HETATM   13  H9  UNL     1      19.917  -1.741  55.414  1.00  0.00     0.169 HD
HETATM   14  C9  UNL     1      18.783  -0.603  52.940  1.00  0.00     0.033 A 
HETATM   15  C10 UNL     1      18.484  -0.023  51.730  1.00  0.00     0.044 A 
HETATM   16  C11 UNL     1      19.503   0.466  50.939  1.00  0.00     0.117 A 
HETATM   17  F1  UNL     1      19.331   1.053  49.737  1.00  0.00    -0.206 F 
HETATM   18  C12 UNL     1      20.776   0.331  51.441  1.00  0.00     0.057 A 
ENDBRANCH   3   6
BRANCH   4  19
HETATM   19  C15 UNL     1      26.701   0.259  51.655  1.00  0.00     0.141 C 
BRANCH  19  20
HETATM   20  C16 UNL     1      26.639   1.737  51.534  1.00  0.00     0.221 C 
HETATM   21  O2  UNL     1      27.551   2.450  52.023  1.00  0.00    -0.273 OA
HETATM   22  N3  UNL     1      25.512   2.325  50.847  1.00  0.00    -0.359 N 
HETATM   23  H15 UNL     1      24.792   1.639  50.463  1.00  0.00     0.162 HD
BRANCH  22  24
HETATM   24  C17 UNL     1      25.351   3.776  50.676  1.00  0.00     0.152 C 
BRANCH  24  25
HETATM   25  C18 UNL     1      24.103   4.234  51.355  1.00  0.00     0.292 C 
BRANCH  25  26
HETATM   26  N4  UNL     1      22.984   3.304  51.190  1.00  0.00     0.089 N 
BRANCH  26  27
HETATM   27  C19 UNL     1      22.057   3.614  52.267  1.00  0.00     0.268 C 
HETATM   28  C20 UNL     1      20.656   3.897  51.834  1.00  0.00     0.037 C 
ENDBRANCH  26  27
BRANCH  26  29
HETATM   29  C21 UNL     1      22.429   3.666  49.876  1.00  0.00     0.268 C 
HETATM   30  C22 UNL     1      22.440   2.563  48.882  1.00  0.00     0.037 C 
ENDBRANCH  26  29
ENDBRANCH  25  26
ENDBRANCH  24  25
ENDBRANCH  22  24
ENDBRANCH  19  20
ENDBRANCH   4  19
BRANCH   1  31
HETATM   31  C2  UNL     1      27.481   0.642  54.948  1.00  0.00     0.025 C 
HETATM   32  C1  UNL     1      28.953   0.479  54.634  1.00  0.00     0.007 C 
ENDBRANCH   1  31
TORSDOF 9
ENDMDL
MODEL 2
REMARK VINA RESULT:      -8.0      2.968      6.315
REMARK  9 active torsions:
REMARK  status: ('A' for Active; 'I' for Inactive)
REMARK    1  A    between atoms: C2_2  and  C3_3 
REMARK    2  A    between atoms: C4_5  and  C5_6 
REMARK    3  A    between atoms: C14_18  and  C15_19 
REMARK    4  A    between atoms: C15_19  and  C16_20 
REMARK       I    between atoms: C16_20  and  N3_22 
REMARK    5  A    between atoms: N3_22  and  C17_23 
REMARK    6  A    between atoms: C17_23  and  C18_24 
REMARK    7  A    between atoms: C18_24  and  N4_25 
REMARK    8  A    between atoms: N4_25  and  C19_26 
REMARK    9  A    between atoms: N4_25  and  C21_28 
ROOT
HETATM    1  C3  UNL     1      21.020   0.649  53.211  1.00  0.00     0.113 A 
HETATM    2  N1  UNL     1      22.051   0.181  54.099  1.00  0.00    -0.381 N 
HETATM    3  C4  UNL     1      23.072   0.295  53.126  1.00  0.00     0.034 A 
HETATM    4  C14 UNL     1      22.157   0.733  52.268  1.00  0.00    -0.022 A 
HETATM    5  H7  UNL     1      21.712  -0.054  55.052  1.00  0.00     0.160 HD
ENDROOT
BRANCH   3   6
HETATM    6  C5  UNL     1      24.486   0.013  53.176  1.00  0.00     0.047 C 
HETATM    7  C6  UNL     1      25.549   0.756  53.384  1.00  0.00     0.047 A 
HETATM    8  C7  UNL     1      25.751   2.166  53.650  1.00  0.00     0.257 A 
HETATM    9  C13 UNL     1      26.911   0.201  53.381  1.00  0.00     0.009 A 
HETATM   10  O1  UNL     1      24.855   3.033  53.740  1.00  0.00    -0.267 OA
HETATM   11  N2  UNL     1      27.122   2.499  53.807  1.00  0.00    -0.322 N 
HETATM   12  C8  UNL     1      27.762   1.250  53.629  1.00  0.00     0.046 A 
HETATM   13  H9  UNL     1      27.563   3.424  54.003  1.00  0.00     0.169 HD
HETATM   14  C9  UNL     1      29.124   0.943  53.672  1.00  0.00     0.033 A 
HETATM   15  C10 UNL     1      29.637  -0.319  53.483  1.00  0.00     0.044 A 
HETATM   16  C11 UNL     1      28.781  -1.371  53.234  1.00  0.00     0.117 A 
HETATM   17  F1  UNL     1      29.168  -2.647  53.033  1.00  0.00    -0.206 F 
HETATM   18  C12 UNL     1      27.440  -1.064  53.194  1.00  0.00     0.057 A 
ENDBRANCH   3   6
BRANCH   4  19
HETATM   19  C15 UNL     1      22.230   1.172  50.844  1.00  0.00     0.141 C 
BRANCH  19  20
HETATM   20  C16 UNL     1      22.091   2.649  50.805  1.00  0.00     0.221 C 
HETATM   21  O2  UNL     1      21.130   3.176  50.190  1.00  0.00    -0.273 OA
HETATM   22  N3  UNL     1      23.081   3.452  51.485  1.00  0.00    -0.359 N 
HETATM   23  H15 UNL     1      23.855   2.914  51.981  1.00  0.00     0.162 HD
BRANCH  22  24
HETATM   24  C17 UNL     1      23.040   4.922  51.503  1.00  0.00     0.152 C 
BRANCH  24  25
HETATM   25  C18 UNL     1      24.246   5.475  50.821  1.00  0.00     0.292 C 
BRANCH  25  26
HETATM   26  N4  UNL     1      24.546   4.808  49.551  1.00  0.00     0.089 N 
BRANCH  26  27
HETATM   27  C19 UNL     1      24.080   5.716  48.515  1.00  0.00     0.268 C 
HETATM   28  C20 UNL     1      22.847   5.277  47.795  1.00  0.00     0.037 C 
ENDBRANCH  26  27
BRANCH  26  29
HETATM   29  C21 UNL     1      26.014   4.702  49.559  1.00  0.00     0.268 C 
HETATM   30  C22 UNL     1      26.532   3.434  50.129  1.00  0.00     0.037 C 
ENDBRANCH  26  29
ENDBRANCH  25  26
ENDBRANCH  24  25
ENDBRANCH  22  24
ENDBRANCH  19  20
ENDBRANCH   4  19
BRANCH   1  31
HETATM   31  C2  UNL     1      19.987  -0.403  52.866  1.00  0.00     0.025 C 
HETATM   32  C1  UNL     1      18.913   0.284  52.050  1.00  0.00     0.007 C 
ENDBRANCH   1  31
TORSDOF 9
ENDMDL
MODEL 3
REMARK VINA RESULT:      -7.9      1.366      2.202
REMARK  9 active torsions:
REMARK  status: ('A' for Active; 'I' for Inactive)
REMARK    1  A    between atoms: C2_2  and  C3_3 
REMARK    2  A    between atoms: C4_5  and  C5_6 
REMARK    3  A    between atoms: C14_18  and  C15_19 
REMARK    4  A    between atoms: C15_19  and  C16_20 
REMARK       I    between atoms: C16_20  and  N3_22 
REMARK    5  A    between atoms: N3_22  and  C17_23 
REMARK    6  A    between atoms: C17_23  and  C18_24 
REMARK    7  A    between atoms: C18_24  and  N4_25 
REMARK    8  A    between atoms: N4_25  and  C19_26 
REMARK    9  A    between atoms: N4_25  and  C21_28 
ROOT
HETATM    1  C3  UNL     1      26.724  -0.656  54.247  1.00  0.00     0.113 A 
HETATM    2  N1  UNL     1      25.351  -0.804  54.649  1.00  0.00    -0.381 N 
HETATM    3  C4  UNL     1      24.842  -0.379  53.399  1.00  0.00     0.034 A 
HETATM    4  C14 UNL     1      26.093  -0.226  52.980  1.00  0.00    -0.022 A 
HETATM    5  H7  UNL     1      25.230  -1.139  55.624  1.00  0.00     0.160 HD
ENDROOT
BRANCH   3   6
HETATM    6  C5  UNL     1      23.493  -0.217  52.912  1.00  0.00     0.047 C 
HETATM    7  C6  UNL     1      22.315  -0.543  53.391  1.00  0.00     0.047 A 
HETATM    8  C7  UNL     1      21.872  -1.199  54.605  1.00  0.00     0.257 A 
HETATM    9  C13 UNL     1      21.064  -0.255  52.672  1.00  0.00     0.009 A 
HETATM   10  O1  UNL     1      22.607  -1.625  55.522  1.00  0.00    -0.267 OA
HETATM   11  N2  UNL     1      20.459  -1.326  54.671  1.00  0.00    -0.322 N 
HETATM   12  C8  UNL     1      20.042  -0.728  53.459  1.00  0.00     0.046 A 
HETATM   13  H9  UNL     1      19.864  -1.750  55.415  1.00  0.00     0.169 HD
HETATM   14  C9  UNL     1      18.749  -0.555  52.959  1.00  0.00     0.033 A 
HETATM   15  C10 UNL     1      18.460   0.047  51.757  1.00  0.00     0.044 A 
HETATM   16  C11 UNL     1      19.487   0.521  50.969  1.00  0.00     0.117 A 
HETATM   17  F1  UNL     1      19.325   1.126  49.775  1.00  0.00    -0.206 F 
HETATM   18  C12 UNL     1      20.759   0.349  51.465  1.00  0.00     0.057 A 
ENDBRANCH   3   6
BRANCH   4  19
HETATM   19  C15 UNL     1      26.681   0.215  51.682  1.00  0.00     0.141 C 
BRANCH  19  20
HETATM   20  C16 UNL     1      26.626   1.697  51.625  1.00  0.00     0.221 C 
HETATM   21  O2  UNL     1      27.563   2.383  52.107  1.00  0.00    -0.273 OA
HETATM   22  N3  UNL     1      25.478   2.320  51.007  1.00  0.00    -0.359 N 
HETATM   23  H15 UNL     1      24.739   1.656  50.625  1.00  0.00     0.162 HD
BRANCH  22  24
HETATM   24  C17 UNL     1      25.323   3.779  50.903  1.00  0.00     0.152 C 
BRANCH  24  25
HETATM   25  C18 UNL     1      24.892   4.149  49.524  1.00  0.00     0.292 C 
BRANCH  25  26
HETATM   26  N4  UNL     1      25.778   5.126  48.886  1.00  0.00     0.089 N 
BRANCH  26  27
HETATM   27  C19 UNL     1      25.659   6.338  49.681  1.00  0.00     0.268 C 
HETATM   28  C20 UNL     1      24.328   7.012  49.612  1.00  0.00     0.037 C 
ENDBRANCH  26  27
BRANCH  26  29
HETATM   29  C21 UNL     1      27.111   4.517  49.022  1.00  0.00     0.268 C 
HETATM   30  C22 UNL     1      28.218   5.341  48.475  1.00  0.00     0.037 C 
ENDBRANCH  26  29
ENDBRANCH  25  26
ENDBRANCH  24  25
ENDBRANCH  22  24
ENDBRANCH  19  20
ENDBRANCH   4  19
BRANCH   1  31
HETATM   31  C2  UNL     1      27.464   0.437  54.990  1.00  0.00     0.025 C 
HETATM   32  C1  UNL     1      28.934   0.271  54.670  1.00  0.00     0.007 C 
ENDBRANCH   1  31
TORSDOF 9
ENDMDL
MODEL 4
REMARK VINA RESULT:      -7.3      1.206      1.751
REMARK  9 active torsions:
REMARK  status: ('A' for Active; 'I' for Inactive)
REMARK    1  A    between atoms: C2_2  and  C3_3 
REMARK    2  A    between atoms: C4_5  and  C5_6 
REMARK    3  A    between atoms: C14_18  and  C15_19 
REMARK    4  A    between atoms: C15_19  and  C16_20 
REMARK       I    between atoms: C16_20  and  N3_22 
REMARK    5  A    between atoms: N3_22  and  C17_23 
REMARK    6  A    between atoms: C17_23  and  C18_24 
REMARK    7  A    between atoms: C18_24  and  N4_25 
REMARK    8  A    between atoms: N4_25  and  C19_26 
REMARK    9  A    between atoms: N4_25  and  C21_28 
ROOT
HETATM    1  C3  UNL     1      26.596  -0.024  53.586  1.00  0.00     0.113 A 
HETATM    2  N1  UNL     1      25.462  -0.898  53.446  1.00  0.00    -0.381 N 
HETATM    3  C4  UNL     1      24.589   0.144  53.054  1.00  0.00     0.034 A 
HETATM    4  C14 UNL     1      25.604   0.992  53.169  1.00  0.00    -0.022 A 
HETATM    5  H7  UNL     1      25.667  -1.893  53.663  1.00  0.00     0.160 HD
ENDROOT
BRANCH   3   6
HETATM    6  C5  UNL     1      23.188   0.147  52.706  1.00  0.00     0.047 C 
HETATM    7  C6  UNL     1      22.118  -0.372  53.261  1.00  0.00     0.047 A 
HETATM    8  C7  UNL     1      21.890  -1.163  54.454  1.00  0.00     0.257 A 
HETATM    9  C13 UNL     1      20.774  -0.214  52.683  1.00  0.00     0.009 A 
HETATM   10  O1  UNL     1      22.764  -1.541  55.264  1.00  0.00    -0.267 OA
HETATM   11  N2  UNL     1      20.520  -1.491  54.636  1.00  0.00    -0.322 N 
HETATM   12  C8  UNL     1      19.908  -0.877  53.519  1.00  0.00     0.046 A 
HETATM   13  H9  UNL     1      20.065  -2.042  55.395  1.00  0.00     0.169 HD
HETATM   14  C9  UNL     1      18.560  -0.854  53.153  1.00  0.00     0.033 A 
HETATM   15  C10 UNL     1      18.075  -0.220  52.034  1.00  0.00     0.044 A 
HETATM   16  C11 UNL     1      18.946   0.445  51.197  1.00  0.00     0.117 A 
HETATM   17  F1  UNL     1      18.586   1.100  50.074  1.00  0.00    -0.206 F 
HETATM   18  C12 UNL     1      20.272   0.420  51.561  1.00  0.00     0.057 A 
ENDBRANCH   3   6
BRANCH   4  19
HETATM   19  C15 UNL     1      25.728   2.462  52.948  1.00  0.00     0.141 C 
BRANCH  19  20
HETATM   20  C16 UNL     1      25.734   2.715  51.486  1.00  0.00     0.221 C 
HETATM   21  O2  UNL     1      26.801   2.606  50.831  1.00  0.00    -0.273 OA
HETATM   22  N3  UNL     1      24.493   3.086  50.846  1.00  0.00    -0.359 N 
HETATM   23  H15 UNL     1      23.642   3.149  51.483  1.00  0.00     0.162 HD
BRANCH  22  24
HETATM   24  C17 UNL     1      24.391   3.363  49.406  1.00  0.00     0.152 C 
BRANCH  24  25
HETATM   25  C18 UNL     1      23.270   4.314  49.147  1.00  0.00     0.292 C 
BRANCH  25  26
HETATM   26  N4  UNL     1      22.156   3.705  48.415  1.00  0.00     0.089 N 
BRANCH  26  27
HETATM   27  C19 UNL     1      22.629   2.392  48.006  1.00  0.00     0.268 C 
HETATM   28  C20 UNL     1      21.745   1.252  48.392  1.00  0.00     0.037 C 
ENDBRANCH  26  27
BRANCH  26  29
HETATM   29  C21 UNL     1      21.094   3.607  49.429  1.00  0.00     0.268 C 
HETATM   30  C22 UNL     1      19.837   4.309  49.067  1.00  0.00     0.037 C 
ENDBRANCH  26  29
ENDBRANCH  25  26
ENDBRANCH  24  25
ENDBRANCH  22  24
ENDBRANCH  19  20
ENDBRANCH   4  19
BRANCH   1  31
HETATM   31  C2  UNL     1      27.086   0.118  55.012  1.00  0.00     0.025 C 
HETATM   32  C1  UNL     1      28.597   0.192  54.954  1.00  0.00     0.007 C 
ENDBRANCH   1  31
TORSDOF 9
ENDMDL
MODEL 5
REMARK VINA RESULT:      -7.1      3.017      6.196
REMARK  9 active torsions:
REMARK  status: ('A' for Active; 'I' for Inactive)
REMARK    1  A    between atoms: C2_2  and  C3_3 
REMARK    2  A    between atoms: C4_5  and  C5_6 
REMARK    3  A    between atoms: C14_18  and  C15_19 
REMARK    4  A    between atoms: C15_19  and  C16_20 
REMARK       I    between atoms: C16_20  and  N3_22 
REMARK    5  A    between atoms: N3_22  and  C17_23 
REMARK    6  A    between atoms: C17_23  and  C18_24 
REMARK    7  A    between atoms: C18_24  and  N4_25 
REMARK    8  A    between atoms: N4_25  and  C19_26 
REMARK    9  A    between atoms: N4_25  and  C21_28 
ROOT
HETATM    1  C3  UNL     1      20.868   1.409  50.925  1.00  0.00     0.113 A 
HETATM    2  N1  UNL     1      22.078   0.632  50.969  1.00  0.00    -0.381 N 
HETATM    3  C4  UNL     1      22.769   1.580  51.761  1.00  0.00     0.034 A 
HETATM    4  C14 UNL     1      21.677   2.334  51.750  1.00  0.00    -0.022 A 
HETATM    5  H7  UNL     1      22.021  -0.267  50.452  1.00  0.00     0.160 HD
ENDROOT
BRANCH   3   6
HETATM    6  C5  UNL     1      24.112   1.598  52.289  1.00  0.00     0.047 C 
HETATM    7  C6  UNL     1      24.775   0.805  53.099  1.00  0.00     0.047 A 
HETATM    8  C7  UNL     1      24.441  -0.417  53.802  1.00  0.00     0.257 A 
HETATM    9  C13 UNL     1      26.171   1.062  53.485  1.00  0.00     0.009 A 
HETATM   10  O1  UNL     1      23.341  -1.009  53.767  1.00  0.00    -0.267 OA
HETATM   11  N2  UNL     1      25.523  -0.912  54.577  1.00  0.00    -0.322 N 
HETATM   12  C8  UNL     1      26.538   0.043  54.330  1.00  0.00     0.046 A 
HETATM   13  H9  UNL     1      25.575  -1.762  55.180  1.00  0.00     0.169 HD
HETATM   14  C9  UNL     1      27.844   0.090  54.822  1.00  0.00     0.033 A 
HETATM   15  C10 UNL     1      28.751   1.075  54.512  1.00  0.00     0.044 A 
HETATM   16  C11 UNL     1      28.381   2.097  53.663  1.00  0.00     0.117 A 
HETATM   17  F1  UNL     1      29.183   3.115  53.289  1.00  0.00    -0.206 F 
HETATM   18  C12 UNL     1      27.094   2.047  53.180  1.00  0.00     0.057 A 
ENDBRANCH   3   6
BRANCH   4  19
HETATM   19  C15 UNL     1      21.351   3.656  52.359  1.00  0.00     0.141 C 
BRANCH  19  20
HETATM   20  C16 UNL     1      22.267   4.673  51.786  1.00  0.00     0.221 C 
HETATM   21  O2  UNL     1      23.250   5.085  52.452  1.00  0.00    -0.273 OA
HETATM   22  N3  UNL     1      21.999   5.168  50.455  1.00  0.00    -0.359 N 
HETATM   23  H15 UNL     1      21.147   4.756  49.969  1.00  0.00     0.162 HD
BRANCH  22  24
HETATM   24  C17 UNL     1      22.841   6.179  49.797  1.00  0.00     0.152 C 
BRANCH  24  25
HETATM   25  C18 UNL     1      23.691   5.533  48.754  1.00  0.00     0.292 C 
BRANCH  25  26
HETATM   26  N4  UNL     1      25.126   5.642  49.032  1.00  0.00     0.089 N 
BRANCH  26  27
HETATM   27  C19 UNL     1      25.251   6.691  50.031  1.00  0.00     0.268 C 
HETATM   28  C20 UNL     1      26.357   7.666  49.791  1.00  0.00     0.037 C 
ENDBRANCH  26  27
BRANCH  26  29
HETATM   29  C21 UNL     1      25.468   4.322  49.585  1.00  0.00     0.268 C 
HETATM   30  C22 UNL     1      26.883   3.923  49.386  1.00  0.00     0.037 C 
ENDBRANCH  26  29
ENDBRANCH  25  26
ENDBRANCH  24  25
ENDBRANCH  22  24
ENDBRANCH  19  20
ENDBRANCH   4  19
BRANCH   1  31
HETATM   31  C2  UNL     1      20.524   1.927  49.544  1.00  0.00     0.025 C 
HETATM   32  C1  UNL     1      21.429   1.209  48.566  1.00  0.00     0.007 C 
ENDBRANCH   1  31
TORSDOF 9
ENDMDL
MODEL 6
REMARK VINA RESULT:      -7.1      2.612      3.604
REMARK  9 active torsions:
REMARK  status: ('A' for Active; 'I' for Inactive)
REMARK    1  A    between atoms: C2_2  and  C3_3 
REMARK    2  A    between atoms: C4_5  and  C5_6 
REMARK    3  A    between atoms: C14_18  and  C15_19 
REMARK    4  A    between atoms: C15_19  and  C16_20 
REMARK       I    between atoms: C16_20  and  N3_22 
REMARK    5  A    between atoms: N3_22  and  C17_23 
REMARK    6  A    between atoms: C17_23  and  C18_24 
REMARK    7  A    between atoms: C18_24  and  N4_25 
REMARK    8  A    between atoms: N4_25  and  C19_26 
REMARK    9  A    between atoms: N4_25  and  C21_28 
ROOT
HETATM    1  C3  UNL     1      25.418   2.287  52.409  1.00  0.00     0.113 A 
HETATM    2  N1  UNL     1      24.671   1.111  52.051  1.00  0.00    -0.381 N 
HETATM    3  C4  UNL     1      23.415   1.736  52.238  1.00  0.00     0.034 A 
HETATM    4  C14 UNL     1      24.059   2.848  52.577  1.00  0.00    -0.022 A 
HETATM    5  H7  UNL     1      25.263   0.294  51.803  1.00  0.00     0.160 HD
ENDROOT
BRANCH   3   6
HETATM    6  C5  UNL     1      22.065   1.249  52.092  1.00  0.00     0.047 C 
HETATM    7  C6  UNL     1      21.321   0.424  52.792  1.00  0.00     0.047 A 
HETATM    8  C7  UNL     1      21.541  -0.343  54.002  1.00  0.00     0.257 A 
HETATM    9  C13 UNL     1      19.940   0.091  52.411  1.00  0.00     0.009 A 
HETATM   10  O1  UNL     1      22.591  -0.367  54.678  1.00  0.00    -0.267 OA
HETATM   11  N2  UNL     1      20.403  -1.107  54.375  1.00  0.00    -0.322 N 
HETATM   12  C8  UNL     1      19.473  -0.788  53.358  1.00  0.00     0.046 A 
HETATM   13  H9  UNL     1      20.270  -1.746  55.189  1.00  0.00     0.169 HD
HETATM   14  C9  UNL     1      18.162  -1.239  53.187  1.00  0.00     0.033 A 
HETATM   15  C10 UNL     1      17.344  -0.858  52.151  1.00  0.00     0.044 A 
HETATM   16  C11 UNL     1      17.814   0.024  51.201  1.00  0.00     0.117 A 
HETATM   17  F1  UNL     1      17.105   0.467  50.143  1.00  0.00    -0.206 F 
HETATM   18  C12 UNL     1      19.105   0.467  51.373  1.00  0.00     0.057 A 
ENDBRANCH   3   6
BRANCH   4  19
HETATM   19  C15 UNL     1      23.593   4.206  52.981  1.00  0.00     0.141 C 
BRANCH  19  20
HETATM   20  C16 UNL     1      23.654   5.092  51.792  1.00  0.00     0.221 C 
HETATM   21  O2  UNL     1      23.222   4.691  50.683  1.00  0.00    -0.273 OA
HETATM   22  N3  UNL     1      24.216   6.414  51.947  1.00  0.00    -0.359 N 
HETATM   23  H15 UNL     1      24.551   6.665  52.926  1.00  0.00     0.162 HD
BRANCH  22  24
HETATM   24  C17 UNL     1      24.328   7.368  50.833  1.00  0.00     0.152 C 
BRANCH  24  25
HETATM   25  C18 UNL     1      25.738   7.423  50.348  1.00  0.00     0.292 C 
BRANCH  25  26
HETATM   26  N4  UNL     1      25.881   7.018  48.948  1.00  0.00     0.089 N 
BRANCH  26  27
HETATM   27  C19 UNL     1      26.213   5.603  48.983  1.00  0.00     0.268 C 
HETATM   28  C20 UNL     1      27.605   5.267  48.559  1.00  0.00     0.037 C 
ENDBRANCH  26  27
BRANCH  26  29
HETATM   29  C21 UNL     1      24.540   7.246  48.387  1.00  0.00     0.268 C 
HETATM   30  C22 UNL     1      24.536   7.673  46.965  1.00  0.00     0.037 C 
ENDBRANCH  26  29
ENDBRANCH  25  26
ENDBRANCH  24  25
ENDBRANCH  22  24
ENDBRANCH  19  20
ENDBRANCH   4  19
BRANCH   1  31
HETATM   31  C2  UNL     1      26.207   2.142  53.694  1.00  0.00     0.025 C 
HETATM   32  C1  UNL     1      27.672   2.202  53.321  1.00  0.00     0.007 C 
ENDBRANCH   1  31
TORSDOF 9
ENDMDL
MODEL 7
REMARK VINA RESULT:      -7.0      3.152      6.274
REMARK  9 active torsions:
REMARK  status: ('A' for Active; 'I' for Inactive)
REMARK    1  A    between atoms: C2_2  and  C3_3 
REMARK    2  A    between atoms: C4_5  and  C5_6 
REMARK    3  A    between atoms: C14_18  and  C15_19 
REMARK    4  A    between atoms: C15_19  and  C16_20 
REMARK       I    between atoms: C16_20  and  N3_22 
REMARK    5  A    between atoms: N3_22  and  C17_23 
REMARK    6  A    between atoms: C17_23  and  C18_24 
REMARK    7  A    between atoms: C18_24  and  N4_25 
REMARK    8  A    between atoms: N4_25  and  C19_26 
REMARK    9  A    between atoms: N4_25  and  C21_28 
ROOT
HETATM    1  C3  UNL     1      20.539   1.542  51.681  1.00  0.00     0.113 A 
HETATM    2  N1  UNL     1      21.359   1.509  52.862  1.00  0.00    -0.381 N 
HETATM    3  C4  UNL     1      22.572   1.577  52.136  1.00  0.00     0.034 A 
HETATM    4  C14 UNL     1      21.859   1.609  51.016  1.00  0.00    -0.022 A 
HETATM    5  H7  UNL     1      20.820   1.453  53.749  1.00  0.00     0.160 HD
ENDROOT
BRANCH   3   6
HETATM    6  C5  UNL     1      23.951   1.591  52.563  1.00  0.00     0.047 C 
HETATM    7  C6  UNL     1      24.674   0.789  53.309  1.00  0.00     0.047 A 
HETATM    8  C7  UNL     1      24.396  -0.445  54.016  1.00  0.00     0.257 A 
HETATM    9  C13 UNL     1      26.094   1.044  53.593  1.00  0.00     0.009 A 
HETATM   10  O1  UNL     1      23.298  -1.041  54.053  1.00  0.00    -0.267 OA
HETATM   11  N2  UNL     1      25.535  -0.949  54.699  1.00  0.00    -0.322 N 
HETATM   12  C8  UNL     1      26.526   0.013  54.393  1.00  0.00     0.046 A 
HETATM   13  H9  UNL     1      25.633  -1.807  55.283  1.00  0.00     0.169 HD
HETATM   14  C9  UNL     1      27.865   0.057  54.786  1.00  0.00     0.033 A 
HETATM   15  C10 UNL     1      28.744   1.050  54.424  1.00  0.00     0.044 A 
HETATM   16  C11 UNL     1      28.309   2.084  53.622  1.00  0.00     0.117 A 
HETATM   17  F1  UNL     1      29.078   3.110  53.205  1.00  0.00    -0.206 F 
HETATM   18  C12 UNL     1      26.990   2.037  53.236  1.00  0.00     0.057 A 
ENDBRANCH   3   6
BRANCH   4  19
HETATM   19  C15 UNL     1      22.237   1.695  49.576  1.00  0.00     0.141 C 
BRANCH  19  20
HETATM   20  C16 UNL     1      22.211   3.122  49.171  1.00  0.00     0.221 C 
HETATM   21  O2  UNL     1      21.123   3.751  49.144  1.00  0.00    -0.273 OA
HETATM   22  N3  UNL     1      23.458   3.760  48.814  1.00  0.00    -0.359 N 
HETATM   23  H15 UNL     1      24.326   3.147  48.872  1.00  0.00     0.162 HD
BRANCH  22  24
HETATM   24  C17 UNL     1      23.541   5.167  48.394  1.00  0.00     0.152 C 
BRANCH  24  25
HETATM   25  C18 UNL     1      23.791   6.038  49.579  1.00  0.00     0.292 C 
BRANCH  25  26
HETATM   26  N4  UNL     1      25.205   6.100  49.961  1.00  0.00     0.089 N 
BRANCH  26  27
HETATM   27  C19 UNL     1      25.945   6.154  48.711  1.00  0.00     0.268 C 
HETATM   28  C20 UNL     1      27.184   5.321  48.671  1.00  0.00     0.037 C 
ENDBRANCH  26  27
BRANCH  26  29
HETATM   29  C21 UNL     1      25.302   7.367  50.704  1.00  0.00     0.268 C 
HETATM   30  C22 UNL     1      25.694   8.534  49.875  1.00  0.00     0.037 C 
ENDBRANCH  26  29
ENDBRANCH  25  26
ENDBRANCH  24  25
ENDBRANCH  22  24
ENDBRANCH  19  20
ENDBRANCH   4  19
BRANCH   1  31
HETATM   31  C2  UNL     1      19.771   0.260  51.435  1.00  0.00     0.025 C 
HETATM   32  C1  UNL     1      19.353  -0.271  52.790  1.00  0.00     0.007 C 
ENDBRANCH   1  31
TORSDOF 9
ENDMDL
MODEL 8
REMARK VINA RESULT:      -6.9      1.801      2.547
REMARK  9 active torsions:
REMARK  status: ('A' for Active; 'I' for Inactive)
REMARK    1  A    between atoms: C2_2  and  C3_3 
REMARK    2  A    between atoms: C4_5  and  C5_6 
REMARK    3  A    between atoms: C14_18  and  C15_19 
REMARK    4  A    between atoms: C15_19  and  C16_20 
REMARK       I    between atoms: C16_20  and  N3_22 
REMARK    5  A    between atoms: N3_22  and  C17_23 
REMARK    6  A    between atoms: C17_23  and  C18_24 
REMARK    7  A    between atoms: C18_24  and  N4_25 
REMARK    8  A    between atoms: N4_25  and  C19_26 
REMARK    9  A    between atoms: N4_25  and  C21_28 
ROOT
HETATM    1  C3  UNL     1      25.848   1.777  52.591  1.00  0.00     0.113 A 
HETATM    2  N1  UNL     1      25.043   0.646  52.214  1.00  0.00    -0.381 N 
HETATM    3  C4  UNL     1      23.820   1.321  52.441  1.00  0.00     0.034 A 
HETATM    4  C14 UNL     1      24.518   2.393  52.798  1.00  0.00    -0.022 A 
HETATM    5  H7  UNL     1      25.594  -0.190  51.935  1.00  0.00     0.160 HD
ENDROOT
BRANCH   3   6
HETATM    6  C5  UNL     1      22.447   0.898  52.306  1.00  0.00     0.047 C 
HETATM    7  C6  UNL     1      21.679   0.089  52.998  1.00  0.00     0.047 A 
HETATM    8  C7  UNL     1      21.883  -0.718  54.185  1.00  0.00     0.257 A 
HETATM    9  C13 UNL     1      20.278  -0.173  52.632  1.00  0.00     0.009 A 
HETATM   10  O1  UNL     1      22.942  -0.806  54.842  1.00  0.00    -0.267 OA
HETATM   11  N2  UNL     1      20.718  -1.440  54.558  1.00  0.00    -0.322 N 
HETATM   12  C8  UNL     1      19.788  -1.054  53.566  1.00  0.00     0.046 A 
HETATM   13  H9  UNL     1      20.570  -2.093  55.358  1.00  0.00     0.169 HD
HETATM   14  C9  UNL     1      18.455  -1.442  53.406  1.00  0.00     0.033 A 
HETATM   15  C10 UNL     1      17.638  -0.999  52.394  1.00  0.00     0.044 A 
HETATM   16  C11 UNL     1      18.132  -0.114  51.459  1.00  0.00     0.117 A 
HETATM   17  F1  UNL     1      17.426   0.387  50.425  1.00  0.00    -0.206 F 
HETATM   18  C12 UNL     1      19.444   0.266  51.619  1.00  0.00     0.057 A 
ENDBRANCH   3   6
BRANCH   4  19
HETATM   19  C15 UNL     1      24.120   3.758  53.246  1.00  0.00     0.141 C 
BRANCH  19  20
HETATM   20  C16 UNL     1      23.696   4.535  52.055  1.00  0.00     0.221 C 
HETATM   21  O2  UNL     1      24.374   4.491  50.998  1.00  0.00    -0.273 OA
HETATM   22  N3  UNL     1      22.495   5.333  52.146  1.00  0.00    -0.359 N 
HETATM   23  H15 UNL     1      21.986   5.303  53.081  1.00  0.00     0.162 HD
BRANCH  22  24
HETATM   24  C17 UNL     1      21.990   6.143  51.026  1.00  0.00     0.152 C 
BRANCH  24  25
HETATM   25  C18 UNL     1      20.703   5.576  50.526  1.00  0.00     0.292 C 
BRANCH  25  26
HETATM   26  N4  UNL     1      20.626   4.119  50.660  1.00  0.00     0.089 N 
BRANCH  26  27
HETATM   27  C19 UNL     1      19.261   3.836  51.071  1.00  0.00     0.268 C 
HETATM   28  C20 UNL     1      18.272   3.732  49.956  1.00  0.00     0.037 C 
ENDBRANCH  26  27
BRANCH  26  29
HETATM   29  C21 UNL     1      20.892   3.637  49.295  1.00  0.00     0.268 C 
HETATM   30  C22 UNL     1      21.873   2.526  49.218  1.00  0.00     0.037 C 
ENDBRANCH  26  29
ENDBRANCH  25  26
ENDBRANCH  24  25
ENDBRANCH  22  24
ENDBRANCH  19  20
ENDBRANCH   4  19
BRANCH   1  31
HETATM   31  C2  UNL     1      26.651   1.562  53.857  1.00  0.00     0.025 C 
HETATM   32  C1  UNL     1      28.014   2.177  53.624  1.00  0.00     0.007 C 
ENDBRANCH   1  31
TORSDOF 9
ENDMDL
MODEL 9
REMARK VINA RESULT:      -6.9      1.947      5.249
REMARK  9 active torsions:
REMARK  status: ('A' for Active; 'I' for Inactive)
REMARK    1  A    between atoms: C2_2  and  C3_3 
REMARK    2  A    between atoms: C4_5  and  C5_6 
REMARK    3  A    between atoms: C14_18  and  C15_19 
REMARK    4  A    between atoms: C15_19  and  C16_20 
REMARK       I    between atoms: C16_20  and  N3_22 
REMARK    5  A    between atoms: N3_22  and  C17_23 
REMARK    6  A    between atoms: C17_23  and  C18_24 
REMARK    7  A    between atoms: C18_24  and  N4_25 
REMARK    8  A    between atoms: N4_25  and  C19_26 
REMARK    9  A    between atoms: N4_25  and  C21_28 
ROOT
HETATM    1  C3  UNL     1      22.906   4.393  52.139  1.00  0.00     0.113 A 
HETATM    2  N1  UNL     1      21.495   4.287  52.399  1.00  0.00    -0.381 N 
HETATM    3  C4  UNL     1      21.444   2.909  52.080  1.00  0.00     0.034 A 
HETATM    4  C14 UNL     1      22.747   2.955  51.827  1.00  0.00    -0.022 A 
HETATM    5  H7  UNL     1      21.053   5.177  52.701  1.00  0.00     0.160 HD
ENDROOT
BRANCH   3   6
HETATM    6  C5  UNL     1      20.355   1.962  52.069  1.00  0.00     0.047 C 
HETATM    7  C6  UNL     1      20.109   0.860  52.739  1.00  0.00     0.047 A 
HETATM    8  C7  UNL     1      20.823   0.132  53.768  1.00  0.00     0.257 A 
HETATM    9  C13 UNL     1      18.890   0.064  52.527  1.00  0.00     0.009 A 
HETATM   10  O1  UNL     1      21.926   0.449  54.263  1.00  0.00    -0.267 OA
HETATM   11  N2  UNL     1      20.130  -1.035  54.189  1.00  0.00    -0.322 N 
HETATM   12  C8  UNL     1      18.965  -1.004  53.388  1.00  0.00     0.046 A 
HETATM   13  H9  UNL     1      20.398  -1.744  54.906  1.00  0.00     0.169 HD
HETATM   14  C9  UNL     1      17.894  -1.900  53.353  1.00  0.00     0.033 A 
HETATM   15  C10 UNL     1      16.805  -1.769  52.526  1.00  0.00     0.044 A 
HETATM   16  C11 UNL     1      16.731  -0.696  51.663  1.00  0.00     0.117 A 
HETATM   17  F1  UNL     1      15.714  -0.464  50.807  1.00  0.00    -0.206 F 
HETATM   18  C12 UNL     1      17.787   0.185  51.701  1.00  0.00     0.057 A 
ENDBRANCH   3   6
BRANCH   4  19
HETATM   19  C15 UNL     1      23.732   1.924  51.389  1.00  0.00     0.141 C 
BRANCH  19  20
HETATM   20  C16 UNL     1      24.518   1.498  52.574  1.00  0.00     0.221 C 
HETATM   21  O2  UNL     1      24.962   2.355  53.379  1.00  0.00    -0.273 OA
HETATM   22  N3  UNL     1      24.755   0.086  52.771  1.00  0.00    -0.359 N 
HETATM   23  H15 UNL     1      24.335  -0.563  52.039  1.00  0.00     0.162 HD
BRANCH  22  24
HETATM   24  C17 UNL     1      25.525  -0.441  53.908  1.00  0.00     0.152 C 
BRANCH  24  25
HETATM   25  C18 UNL     1      26.951  -0.634  53.513  1.00  0.00     0.292 C 
BRANCH  25  26
HETATM   26  N4  UNL     1      27.861   0.311  54.165  1.00  0.00     0.089 N 
BRANCH  26  27
HETATM   27  C19 UNL     1      29.010  -0.477  54.581  1.00  0.00     0.268 C 
HETATM   28  C20 UNL     1      29.764  -1.133  53.471  1.00  0.00     0.037 C 
ENDBRANCH  26  27
BRANCH  26  29
HETATM   29  C21 UNL     1      28.210   1.249  53.086  1.00  0.00     0.268 C 
HETATM   30  C22 UNL     1      28.618   2.597  53.555  1.00  0.00     0.037 C 
ENDBRANCH  26  29
ENDBRANCH  25  26
ENDBRANCH  24  25
ENDBRANCH  22  24
ENDBRANCH  19  20
ENDBRANCH   4  19
BRANCH   1  31
HETATM   31  C2  UNL     1      23.244   5.265  50.948  1.00  0.00     0.025 C 
HETATM   32  C1  UNL     1      22.139   6.292  50.826  1.00  0.00     0.007 C 
ENDBRANCH   1  31
TORSDOF 9
ENDMDL
