MODEL 1
REMARK VINA RESULT:      -8.3      0.000      0.000
REMARK  4 active torsions:
REMARK  status: ('A' for Active; 'I' for Inactive)
REMARK    1  A    between atoms: O1_2  and  C2_3 
REMARK    2  A    between atoms: C7_8  and  O2_9 
REMARK    3  A    between atoms: C11_16  and  C12_17 
REMARK    4  A    between atoms: C12_17  and  C13_18 
ROOT
HETATM    1  C2  UNL     1      29.274   6.460  47.964  1.00  0.00     0.102 A 
HETATM    2  C3  UNL     1      28.665   5.294  48.410  1.00  0.00     0.051 A 
HETATM    3  C4  UNL     1      27.314   5.296  48.771  1.00  0.00    -0.004 A 
HETATM    4  C5  UNL     1      26.621   6.507  48.661  1.00  0.00     0.088 A 
HETATM    5  C6  UNL     1      27.258   7.645  48.214  1.00  0.00     0.077 A 
HETATM    6  C7  UNL     1      28.586   7.660  47.856  1.00  0.00     0.104 A 
HETATM    7  O3  UNL     1      25.267   6.771  48.959  1.00  0.00    -0.289 OA
HETATM    8  C9  UNL     1      24.509   6.117  49.951  1.00  0.00     0.200 A 
HETATM    9  N1  UNL     1      23.333   6.744  50.256  1.00  0.00    -0.215 NA
HETATM   10  C10 UNL     1      22.545   6.172  51.207  1.00  0.00     0.236 A 
HETATM   11  N2  UNL     1      22.879   5.052  51.826  1.00  0.00    -0.244 NA
HETATM   12  C11 UNL     1      24.029   4.345  51.596  1.00  0.00     0.070 A 
HETATM   13  C19 UNL     1      24.818   4.937  50.632  1.00  0.00     0.107 A 
HETATM   14  N3  UNL     1      26.006   4.139  50.462  1.00  0.00    -0.380 N 
HETATM   15  C20 UNL     1      26.797   3.982  49.229  1.00  0.00     0.161 C 
HETATM   16  H16 UNL     1      26.243   3.671  51.364  1.00  0.00     0.160 HD
ENDROOT
BRANCH  12  17
HETATM   17  C12 UNL     1      24.300   3.108  52.325  1.00  0.00     0.100 C 
BRANCH  17  18
HETATM   18  C13 UNL     1      23.323   2.015  52.091  1.00  0.00    -0.051 A 
HETATM   19  C14 UNL     1      22.611   1.737  50.946  1.00  0.00     0.007 A 
HETATM   20  C15 UNL     1      21.716   0.698  50.831  1.00  0.00     0.002 A 
HETATM   21  C16 UNL     1      21.482  -0.142  51.894  1.00  0.00     0.019 A 
HETATM   22  C17 UNL     1      22.142   0.057  53.068  1.00  0.00     0.011 A 
HETATM   23 BR1  UNL     1      21.869  -1.064  54.580  1.00  0.00    -0.051 Br
HETATM   24  C18 UNL     1      23.023   1.112  53.119  1.00  0.00     0.026 A 
ENDBRANCH  17  18
ENDBRANCH  12  17
BRANCH   6  25
HETATM   25  O2  UNL     1      29.311   8.739  47.401  1.00  0.00    -0.353 OA
HETATM   26  C8  UNL     1      29.874   9.724  48.237  1.00  0.00     0.210 C 
ENDBRANCH   6  25
BRANCH   1  27
HETATM   27  O1  UNL     1      30.638   6.394  47.617  1.00  0.00    -0.353 OA
HETATM   28  C1  UNL     1      31.309   5.166  47.832  1.00  0.00     0.210 C 
ENDBRANCH   1  27
TORSDOF 4
ENDMDL
MODEL 2
REMARK VINA RESULT:      -8.1      4.324      7.585
REMARK  4 active torsions:
REMARK  status: ('A' for Active; 'I' for Inactive)
REMARK    1  A    between atoms: O1_2  and  C2_3 
REMARK    2  A    between atoms: C7_8  and  O2_9 
REMARK    3  A    between atoms: C11_16  and  C12_17 
REMARK    4  A    between atoms: C12_17  and  C13_18 
ROOT
HETATM    1  C2  UNL     1      26.655   0.686  54.169  1.00  0.00     0.102 A 
HETATM    2  C3  UNL     1      26.086   1.952  54.106  1.00  0.00     0.051 A 
HETATM    3  C4  UNL     1      25.053   2.217  53.201  1.00  0.00    -0.004 A 
HETATM    4  C5  UNL     1      24.632   1.166  52.379  1.00  0.00     0.088 A 
HETATM    5  C6  UNL     1      25.222  -0.078  52.469  1.00  0.00     0.077 A 
HETATM    6  C7  UNL     1      26.237  -0.356  53.354  1.00  0.00     0.104 A 
HETATM    7  O3  UNL     1      23.622   1.174  51.394  1.00  0.00    -0.289 OA
HETATM    8  C9  UNL     1      23.257   2.289  50.611  1.00  0.00     0.200 A 
HETATM    9  N1  UNL     1      22.477   1.979  49.532  1.00  0.00    -0.215 NA
HETATM   10  C10 UNL     1      22.085   3.004  48.727  1.00  0.00     0.236 A 
HETATM   11  N2  UNL     1      22.428   4.260  48.958  1.00  0.00    -0.244 NA
HETATM   12  C11 UNL     1      23.203   4.678  50.008  1.00  0.00     0.070 A 
HETATM   13  C19 UNL     1      23.595   3.629  50.813  1.00  0.00     0.107 A 
HETATM   14  N3  UNL     1      24.410   4.154  51.879  1.00  0.00    -0.380 N 
HETATM   15  C20 UNL     1      24.541   3.610  53.242  1.00  0.00     0.161 C 
HETATM   16  H16 UNL     1      24.918   5.001  51.545  1.00  0.00     0.160 HD
ENDROOT
BRANCH  12  17
HETATM   17  C12 UNL     1      23.516   6.094  50.184  1.00  0.00     0.100 C 
BRANCH  17  18
HETATM   18  C13 UNL     1      24.521   6.636  49.235  1.00  0.00    -0.051 A 
HETATM   19  C14 UNL     1      24.387   7.689  48.358  1.00  0.00     0.007 A 
HETATM   20  C15 UNL     1      25.382   8.113  47.507  1.00  0.00     0.002 A 
HETATM   21  C16 UNL     1      26.604   7.482  47.494  1.00  0.00     0.019 A 
HETATM   22  C17 UNL     1      26.828   6.430  48.329  1.00  0.00     0.011 A 
HETATM   23 BR1  UNL     1      28.492   5.510  48.366  1.00  0.00    -0.051 Br
HETATM   24  C18 UNL     1      25.793   6.055  49.155  1.00  0.00     0.026 A 
ENDBRANCH  17  18
ENDBRANCH  12  17
BRANCH   6  25
HETATM   25  O2  UNL     1      26.888  -1.558  53.520  1.00  0.00    -0.353 OA
HETATM   26  C8  UNL     1      27.293  -2.393  52.458  1.00  0.00     0.210 C 
ENDBRANCH   6  25
BRANCH   1  27
HETATM   27  O1  UNL     1      27.691   0.481  55.101  1.00  0.00    -0.353 OA
HETATM   28  C1  UNL     1      29.002   0.854  54.715  1.00  0.00     0.210 C 
ENDBRANCH   1  27
TORSDOF 4
ENDMDL
MODEL 3
REMARK VINA RESULT:      -8.0      4.404      7.410
REMARK  4 active torsions:
REMARK  status: ('A' for Active; 'I' for Inactive)
REMARK    1  A    between atoms: O1_2  and  C2_3 
REMARK    2  A    between atoms: C7_8  and  O2_9 
REMARK    3  A    between atoms: C11_16  and  C12_17 
REMARK    4  A    between atoms: C12_17  and  C13_18 
ROOT
HETATM    1  C2  UNL     1      25.922  -0.126  53.964  1.00  0.00     0.102 A 
HETATM    2  C3  UNL     1      24.929   0.759  53.561  1.00  0.00     0.051 A 
HETATM    3  C4  UNL     1      25.117   1.565  52.433  1.00  0.00    -0.004 A 
HETATM    4  C5  UNL     1      26.330   1.437  51.746  1.00  0.00     0.088 A 
HETATM    5  C6  UNL     1      27.292   0.548  52.176  1.00  0.00     0.077 A 
HETATM    6  C7  UNL     1      27.123  -0.252  53.282  1.00  0.00     0.104 A 
HETATM    7  O3  UNL     1      26.760   2.127  50.593  1.00  0.00    -0.289 OA
HETATM    8  C9  UNL     1      26.394   3.444  50.248  1.00  0.00     0.200 A 
HETATM    9  N1  UNL     1      27.165   3.996  49.263  1.00  0.00    -0.215 NA
HETATM   10  C10 UNL     1      26.873   5.268  48.876  1.00  0.00     0.236 A 
HETATM   11  N2  UNL     1      25.885   5.964  49.414  1.00  0.00    -0.244 NA
HETATM   12  C11 UNL     1      25.055   5.508  50.402  1.00  0.00     0.070 A 
HETATM   13  C19 UNL     1      25.364   4.220  50.786  1.00  0.00     0.107 A 
HETATM   14  N3  UNL     1      24.454   3.825  51.832  1.00  0.00    -0.380 N 
HETATM   15  C20 UNL     1      23.976   2.461  52.120  1.00  0.00     0.161 C 
HETATM   16  H16 UNL     1      24.169   4.665  52.381  1.00  0.00     0.160 HD
ENDROOT
BRANCH  12  17
HETATM   17  C12 UNL     1      23.982   6.353  50.922  1.00  0.00     0.100 C 
BRANCH  17  18
HETATM   18  C13 UNL     1      22.781   6.445  50.054  1.00  0.00    -0.051 A 
HETATM   19  C14 UNL     1      22.402   5.609  49.028  1.00  0.00     0.007 A 
HETATM   20  C15 UNL     1      21.266   5.786  48.272  1.00  0.00     0.002 A 
HETATM   21  C16 UNL     1      20.423   6.844  48.517  1.00  0.00     0.019 A 
HETATM   22  C17 UNL     1      20.717   7.723  49.514  1.00  0.00     0.011 A 
HETATM   23 BR1  UNL     1      19.598   9.210  49.908  1.00  0.00    -0.051 Br
HETATM   24  C18 UNL     1      21.867   7.492  50.233  1.00  0.00     0.026 A 
ENDBRANCH  17  18
ENDBRANCH  12  17
BRANCH   6  25
HETATM   25  O2  UNL     1      28.019  -1.166  53.790  1.00  0.00    -0.353 OA
HETATM   26  C8  UNL     1      29.379  -1.231  53.423  1.00  0.00     0.210 C 
ENDBRANCH   6  25
BRANCH   1  27
HETATM   27  O1  UNL     1      25.673  -0.909  55.107  1.00  0.00    -0.353 OA
HETATM   28  C1  UNL     1      24.323  -1.204  55.419  1.00  0.00     0.210 C 
ENDBRANCH   1  27
TORSDOF 4
ENDMDL
MODEL 4
REMARK VINA RESULT:      -8.0      4.554      7.156
REMARK  4 active torsions:
REMARK  status: ('A' for Active; 'I' for Inactive)
REMARK    1  A    between atoms: O1_2  and  C2_3 
REMARK    2  A    between atoms: C7_8  and  O2_9 
REMARK    3  A    between atoms: C11_16  and  C12_17 
REMARK    4  A    between atoms: C12_17  and  C13_18 
ROOT
HETATM    1  C2  UNL     1      25.948  -0.200  54.140  1.00  0.00     0.102 A 
HETATM    2  C3  UNL     1      24.876   0.333  53.435  1.00  0.00     0.051 A 
HETATM    3  C4  UNL     1      25.100   1.136  52.311  1.00  0.00    -0.004 A 
HETATM    4  C5  UNL     1      26.430   1.368  51.941  1.00  0.00     0.088 A 
HETATM    5  C6  UNL     1      27.468   0.822  52.665  1.00  0.00     0.077 A 
HETATM    6  C7  UNL     1      27.266   0.031  53.772  1.00  0.00     0.104 A 
HETATM    7  O3  UNL     1      26.917   2.133  50.860  1.00  0.00    -0.289 OA
HETATM    8  C9  UNL     1      26.285   3.270  50.317  1.00  0.00     0.200 A 
HETATM    9  N1  UNL     1      27.085   4.010  49.491  1.00  0.00    -0.215 NA
HETATM   10  C10 UNL     1      26.544   5.125  48.928  1.00  0.00     0.236 A 
HETATM   11  N2  UNL     1      25.296   5.500  49.152  1.00  0.00    -0.244 NA
HETATM   12  C11 UNL     1      24.412   4.832  49.959  1.00  0.00     0.070 A 
HETATM   13  C19 UNL     1      24.974   3.707  50.524  1.00  0.00     0.107 A 
HETATM   14  N3  UNL     1      23.985   3.076  51.361  1.00  0.00    -0.380 N 
HETATM   15  C20 UNL     1      23.866   1.637  51.657  1.00  0.00     0.161 C 
HETATM   16  H16 UNL     1      23.342   3.800  51.747  1.00  0.00     0.160 HD
ENDROOT
BRANCH  12  17
HETATM   17  C12 UNL     1      23.047   5.322  50.131  1.00  0.00     0.100 C 
BRANCH  17  18
HETATM   18  C13 UNL     1      22.021   4.622  49.317  1.00  0.00    -0.051 A 
HETATM   19  C14 UNL     1      20.896   3.957  49.750  1.00  0.00     0.007 A 
HETATM   20  C15 UNL     1      20.005   3.328  48.911  1.00  0.00     0.002 A 
HETATM   21  C16 UNL     1      20.204   3.336  47.550  1.00  0.00     0.019 A 
HETATM   22  C17 UNL     1      21.290   3.970  47.032  1.00  0.00     0.011 A 
HETATM   23 BR1  UNL     1      21.629   4.022  45.161  1.00  0.00    -0.051 Br
HETATM   24  C18 UNL     1      22.143   4.580  47.923  1.00  0.00     0.026 A 
ENDBRANCH  17  18
ENDBRANCH  12  17
BRANCH   6  25
HETATM   25  O2  UNL     1      28.230  -0.558  54.559  1.00  0.00    -0.353 OA
HETATM   26  C8  UNL     1      29.523  -0.895  54.109  1.00  0.00     0.210 C 
ENDBRANCH   6  25
BRANCH   1  27
HETATM   27  O1  UNL     1      25.658  -1.000  55.263  1.00  0.00    -0.353 OA
HETATM   28  C1  UNL     1      24.295  -1.243  55.559  1.00  0.00     0.210 C 
ENDBRANCH   1  27
TORSDOF 4
ENDMDL
MODEL 5
REMARK VINA RESULT:      -8.0      4.330      7.761
REMARK  4 active torsions:
REMARK  status: ('A' for Active; 'I' for Inactive)
REMARK    1  A    between atoms: O1_2  and  C2_3 
REMARK    2  A    between atoms: C7_8  and  O2_9 
REMARK    3  A    between atoms: C11_16  and  C12_17 
REMARK    4  A    between atoms: C12_17  and  C13_18 
ROOT
HETATM    1  C2  UNL     1      26.698  -0.361  53.146  1.00  0.00     0.102 A 
HETATM    2  C3  UNL     1      27.020   0.650  52.249  1.00  0.00     0.051 A 
HETATM    3  C4  UNL     1      26.271   1.831  52.218  1.00  0.00    -0.004 A 
HETATM    4  C5  UNL     1      25.204   1.940  53.118  1.00  0.00     0.088 A 
HETATM    5  C6  UNL     1      24.914   0.915  53.994  1.00  0.00     0.077 A 
HETATM    6  C7  UNL     1      25.640  -0.252  54.038  1.00  0.00     0.104 A 
HETATM    7  O3  UNL     1      24.306   3.014  53.285  1.00  0.00    -0.289 OA
HETATM    8  C9  UNL     1      23.886   3.891  52.264  1.00  0.00     0.200 A 
HETATM    9  N1  UNL     1      22.797   4.649  52.593  1.00  0.00    -0.215 NA
HETATM   10  C10 UNL     1      22.332   5.520  51.657  1.00  0.00     0.236 A 
HETATM   11  N2  UNL     1      22.894   5.650  50.467  1.00  0.00    -0.244 NA
HETATM   12  C11 UNL     1      23.985   4.943  50.036  1.00  0.00     0.070 A 
HETATM   13  C19 UNL     1      24.444   4.063  50.994  1.00  0.00     0.107 A 
HETATM   14  N3  UNL     1      25.579   3.356  50.457  1.00  0.00    -0.380 N 
HETATM   15  C20 UNL     1      26.726   2.822  51.212  1.00  0.00     0.161 C 
HETATM   16  H16 UNL     1      25.476   3.267  49.423  1.00  0.00     0.160 HD
ENDROOT
BRANCH  12  17
HETATM   17  C12 UNL     1      24.540   5.170  48.704  1.00  0.00     0.100 C 
BRANCH  17  18
HETATM   18  C13 UNL     1      25.626   6.180  48.641  1.00  0.00    -0.051 A 
HETATM   19  C14 UNL     1      25.523   7.551  48.721  1.00  0.00     0.007 A 
HETATM   20  C15 UNL     1      26.597   8.408  48.642  1.00  0.00     0.002 A 
HETATM   21  C16 UNL     1      27.870   7.917  48.476  1.00  0.00     0.019 A 
HETATM   22  C17 UNL     1      28.069   6.573  48.388  1.00  0.00     0.011 A 
HETATM   23 BR1  UNL     1      29.801   5.823  48.157  1.00  0.00    -0.051 Br
HETATM   24  C18 UNL     1      26.955   5.770  48.473  1.00  0.00     0.026 A 
ENDBRANCH  17  18
ENDBRANCH  12  17
BRANCH   6  25
HETATM   25  O2  UNL     1      25.432  -1.329  54.870  1.00  0.00    -0.353 OA
HETATM   26  C8  UNL     1      24.555  -1.319  55.975  1.00  0.00     0.210 C 
ENDBRANCH   6  25
BRANCH   1  27
HETATM   27  O1  UNL     1      27.490  -1.527  53.129  1.00  0.00    -0.353 OA
HETATM   28  C1  UNL     1      28.884  -1.374  53.323  1.00  0.00     0.210 C 
ENDBRANCH   1  27
TORSDOF 4
ENDMDL
MODEL 6
REMARK VINA RESULT:      -7.8      1.907      2.642
REMARK  4 active torsions:
REMARK  status: ('A' for Active; 'I' for Inactive)
REMARK    1  A    between atoms: O1_2  and  C2_3 
REMARK    2  A    between atoms: C7_8  and  O2_9 
REMARK    3  A    between atoms: C11_16  and  C12_17 
REMARK    4  A    between atoms: C12_17  and  C13_18 
ROOT
HETATM    1  C2  UNL     1      30.684   8.765  48.682  1.00  0.00     0.102 A 
HETATM    2  C3  UNL     1      30.033   7.597  48.309  1.00  0.00     0.051 A 
HETATM    3  C4  UNL     1      28.662   7.445  48.546  1.00  0.00    -0.004 A 
HETATM    4  C5  UNL     1      27.995   8.508  49.166  1.00  0.00     0.088 A 
HETATM    5  C6  UNL     1      28.675   9.653  49.523  1.00  0.00     0.077 A 
HETATM    6  C7  UNL     1      30.022   9.819  49.297  1.00  0.00     0.104 A 
HETATM    7  O3  UNL     1      26.632   8.603  49.512  1.00  0.00    -0.289 OA
HETATM    8  C9  UNL     1      25.806   7.520  49.877  1.00  0.00     0.200 A 
HETATM    9  N1  UNL     1      24.624   7.891  50.456  1.00  0.00    -0.215 NA
HETATM   10  C10 UNL     1      23.773   6.900  50.836  1.00  0.00     0.236 A 
HETATM   11  N2  UNL     1      24.054   5.619  50.664  1.00  0.00    -0.244 NA
HETATM   12  C11 UNL     1      25.204   5.140  50.096  1.00  0.00     0.070 A 
HETATM   13  C19 UNL     1      26.057   6.155  49.717  1.00  0.00     0.107 A 
HETATM   14  N3  UNL     1      27.241   5.566  49.143  1.00  0.00    -0.380 N 
HETATM   15  C20 UNL     1      28.100   6.147  48.097  1.00  0.00     0.161 C 
HETATM   16  H16 UNL     1      27.417   4.638  49.586  1.00  0.00     0.160 HD
ENDROOT
BRANCH  12  17
HETATM   17  C12 UNL     1      25.413   3.703  49.937  1.00  0.00     0.100 C 
BRANCH  17  18
HETATM   18  C13 UNL     1      24.739   2.855  50.953  1.00  0.00    -0.051 A 
HETATM   19  C14 UNL     1      25.136   2.593  52.245  1.00  0.00     0.007 A 
HETATM   20  C15 UNL     1      24.442   1.781  53.113  1.00  0.00     0.002 A 
HETATM   21  C16 UNL     1      23.275   1.172  52.715  1.00  0.00     0.019 A 
HETATM   22  C17 UNL     1      22.805   1.375  51.453  1.00  0.00     0.011 A 
HETATM   23 BR1  UNL     1      21.199   0.565  50.834  1.00  0.00    -0.051 Br
HETATM   24  C18 UNL     1      23.545   2.197  50.635  1.00  0.00     0.026 A 
ENDBRANCH  17  18
ENDBRANCH  12  17
BRANCH   6  25
HETATM   25  O2  UNL     1      30.789  10.918  49.614  1.00  0.00    -0.353 OA
HETATM   26  C8  UNL     1      30.664  12.177  48.993  1.00  0.00     0.210 C 
ENDBRANCH   6  25
BRANCH   1  27
HETATM   27  O1  UNL     1      32.064   8.858  48.417  1.00  0.00    -0.353 OA
HETATM   28  C1  UNL     1      32.822   7.663  48.471  1.00  0.00     0.210 C 
ENDBRANCH   1  27
TORSDOF 4
ENDMDL
MODEL 7
REMARK VINA RESULT:      -7.6      5.465      7.274
REMARK  4 active torsions:
REMARK  status: ('A' for Active; 'I' for Inactive)
REMARK    1  A    between atoms: O1_2  and  C2_3 
REMARK    2  A    between atoms: C7_8  and  O2_9 
REMARK    3  A    between atoms: C11_16  and  C12_17 
REMARK    4  A    between atoms: C12_17  and  C13_18 
ROOT
HETATM    1  C2  UNL     1      27.550   1.021  53.344  1.00  0.00     0.102 A 
HETATM    2  C3  UNL     1      26.531   1.943  53.144  1.00  0.00     0.051 A 
HETATM    3  C4  UNL     1      25.200   1.590  53.393  1.00  0.00    -0.004 A 
HETATM    4  C5  UNL     1      24.954   0.288  53.844  1.00  0.00     0.088 A 
HETATM    5  C6  UNL     1      25.991  -0.601  54.031  1.00  0.00     0.077 A 
HETATM    6  C7  UNL     1      27.305  -0.270  53.791  1.00  0.00     0.104 A 
HETATM    7  O3  UNL     1      23.716  -0.308  54.163  1.00  0.00    -0.289 OA
HETATM    8  C9  UNL     1      22.481   0.004  53.559  1.00  0.00     0.200 A 
HETATM    9  N1  UNL     1      21.491  -0.904  53.812  1.00  0.00    -0.215 NA
HETATM   10  C10 UNL     1      20.269  -0.671  53.261  1.00  0.00     0.236 A 
HETATM   11  N2  UNL     1      20.021   0.386  52.507  1.00  0.00    -0.244 NA
HETATM   12  C11 UNL     1      20.937   1.355  52.192  1.00  0.00     0.070 A 
HETATM   13  C19 UNL     1      22.171   1.104  52.755  1.00  0.00     0.107 A 
HETATM   14  N3  UNL     1      23.072   2.159  52.366  1.00  0.00    -0.380 N 
HETATM   15  C20 UNL     1      24.218   2.673  53.137  1.00  0.00     0.161 C 
HETATM   16  H16 UNL     1      22.797   2.524  51.428  1.00  0.00     0.160 HD
ENDROOT
BRANCH  12  17
HETATM   17  C12 UNL     1      20.559   2.494  51.359  1.00  0.00     0.100 C 
BRANCH  17  18
HETATM   18  C13 UNL     1      21.139   2.492  49.993  1.00  0.00    -0.051 A 
HETATM   19  C14 UNL     1      21.383   1.415  49.170  1.00  0.00     0.007 A 
HETATM   20  C15 UNL     1      21.936   1.516  47.914  1.00  0.00     0.002 A 
HETATM   21  C16 UNL     1      22.282   2.745  47.402  1.00  0.00     0.019 A 
HETATM   22  C17 UNL     1      22.076   3.867  48.145  1.00  0.00     0.011 A 
HETATM   23 BR1  UNL     1      22.530   5.598  47.501  1.00  0.00    -0.051 Br
HETATM   24  C18 UNL     1      21.520   3.698  49.392  1.00  0.00     0.026 A 
ENDBRANCH  17  18
ENDBRANCH  12  17
BRANCH   6  25
HETATM   25  O2  UNL     1      28.407  -1.081  53.945  1.00  0.00    -0.353 OA
HETATM   26  C8  UNL     1      28.716  -2.167  53.100  1.00  0.00     0.210 C 
ENDBRANCH   6  25
BRANCH   1  27
HETATM   27  O1  UNL     1      28.869   1.436  53.075  1.00  0.00    -0.353 OA
HETATM   28  C1  UNL     1      29.474   2.329  53.992  1.00  0.00     0.210 C 
ENDBRANCH   1  27
TORSDOF 4
ENDMDL
MODEL 8
REMARK VINA RESULT:      -7.5      5.297      8.274
REMARK  4 active torsions:
REMARK  status: ('A' for Active; 'I' for Inactive)
REMARK    1  A    between atoms: O1_2  and  C2_3 
REMARK    2  A    between atoms: C7_8  and  O2_9 
REMARK    3  A    between atoms: C11_16  and  C12_17 
REMARK    4  A    between atoms: C12_17  and  C13_18 
ROOT
HETATM    1  C2  UNL     1      25.057   1.154  52.211  1.00  0.00     0.102 A 
HETATM    2  C3  UNL     1      23.856   1.794  51.933  1.00  0.00     0.051 A 
HETATM    3  C4  UNL     1      22.652   1.288  52.435  1.00  0.00    -0.004 A 
HETATM    4  C5  UNL     1      22.718   0.128  53.216  1.00  0.00     0.088 A 
HETATM    5  C6  UNL     1      23.929  -0.480  53.471  1.00  0.00     0.077 A 
HETATM    6  C7  UNL     1      25.121   0.005  52.986  1.00  0.00     0.104 A 
HETATM    7  O3  UNL     1      21.662  -0.574  53.831  1.00  0.00    -0.289 OA
HETATM    8  C9  UNL     1      20.343  -0.657  53.339  1.00  0.00     0.200 A 
HETATM    9  N1  UNL     1      19.587  -1.629  53.934  1.00  0.00    -0.215 NA
HETATM   10  C10 UNL     1      18.302  -1.771  53.511  1.00  0.00     0.236 A 
HETATM   11  N2  UNL     1      17.778  -1.011  52.564  1.00  0.00    -0.244 NA
HETATM   12  C11 UNL     1      18.445  -0.012  51.905  1.00  0.00     0.070 A 
HETATM   13  C19 UNL     1      19.746   0.119  52.343  1.00  0.00     0.107 A 
HETATM   14  N3  UNL     1      20.374   1.177  51.593  1.00  0.00    -0.380 N 
HETATM   15  C20 UNL     1      21.450   2.071  52.058  1.00  0.00     0.161 C 
HETATM   16  H16 UNL     1      19.953   1.228  50.641  1.00  0.00     0.160 HD
ENDROOT
BRANCH  12  17
HETATM   17  C12 UNL     1      17.772   0.781  50.880  1.00  0.00     0.100 C 
BRANCH  17  18
HETATM   18  C13 UNL     1      16.945   1.902  51.396  1.00  0.00    -0.051 A 
HETATM   19  C14 UNL     1      17.243   3.246  51.411  1.00  0.00     0.007 A 
HETATM   20  C15 UNL     1      16.408   4.212  51.923  1.00  0.00     0.002 A 
HETATM   21  C16 UNL     1      15.191   3.868  52.464  1.00  0.00     0.019 A 
HETATM   22  C17 UNL     1      14.812   2.560  52.492  1.00  0.00     0.011 A 
HETATM   23 BR1  UNL     1      13.145   2.011  53.224  1.00  0.00    -0.051 Br
HETATM   24  C18 UNL     1      15.691   1.643  51.964  1.00  0.00     0.026 A 
ENDBRANCH  17  18
ENDBRANCH  12  17
BRANCH   6  25
HETATM   25  O2  UNL     1      26.376  -0.527  53.183  1.00  0.00    -0.353 OA
HETATM   26  C8  UNL     1      26.826  -1.732  52.604  1.00  0.00     0.210 C 
ENDBRANCH   6  25
BRANCH   1  27
HETATM   27  O1  UNL     1      26.234   1.713  51.677  1.00  0.00    -0.353 OA
HETATM   28  C1  UNL     1      26.103   2.872  50.875  1.00  0.00     0.210 C 
ENDBRANCH   1  27
TORSDOF 4
ENDMDL
MODEL 9
REMARK VINA RESULT:      -7.5      4.580      9.834
REMARK  4 active torsions:
REMARK  status: ('A' for Active; 'I' for Inactive)
REMARK    1  A    between atoms: O1_2  and  C2_3 
REMARK    2  A    between atoms: C7_8  and  O2_9 
REMARK    3  A    between atoms: C11_16  and  C12_17 
REMARK    4  A    between atoms: C12_17  and  C13_18 
ROOT
HETATM    1  C2  UNL     1      25.134   5.553  49.413  1.00  0.00     0.102 A 
HETATM    2  C3  UNL     1      25.836   6.680  49.005  1.00  0.00     0.051 A 
HETATM    3  C4  UNL     1      27.171   6.574  48.600  1.00  0.00    -0.004 A 
HETATM    4  C5  UNL     1      27.751   5.300  48.626  1.00  0.00     0.088 A 
HETATM    5  C6  UNL     1      27.024   4.203  49.038  1.00  0.00     0.077 A 
HETATM    6  C7  UNL     1      25.711   4.291  49.438  1.00  0.00     0.104 A 
HETATM    7  O3  UNL     1      29.065   4.929  48.272  1.00  0.00    -0.289 OA
HETATM    8  C9  UNL     1      30.206   5.747  48.406  1.00  0.00     0.200 A 
HETATM    9  N1  UNL     1      31.390   5.073  48.286  1.00  0.00    -0.215 NA
HETATM   10  C10 UNL     1      32.537   5.796  48.404  1.00  0.00     0.236 A 
HETATM   11  N2  UNL     1      32.536   7.100  48.625  1.00  0.00    -0.244 NA
HETATM   12  C11 UNL     1      31.410   7.868  48.759  1.00  0.00     0.070 A 
HETATM   13  C19 UNL     1      30.256   7.123  48.639  1.00  0.00     0.107 A 
HETATM   14  N3  UNL     1      29.126   8.003  48.805  1.00  0.00    -0.380 N 
HETATM   15  C20 UNL     1      27.795   7.857  48.192  1.00  0.00     0.161 C 
HETATM   16  H16 UNL     1      29.385   8.786  49.444  1.00  0.00     0.160 HD
ENDROOT
BRANCH  12  17
HETATM   17  C12 UNL     1      31.515   9.307  48.989  1.00  0.00     0.100 C 
BRANCH  17  18
HETATM   18  C13 UNL     1      31.791  10.117  47.775  1.00  0.00    -0.051 A 
HETATM   19  C14 UNL     1      32.996  10.321  47.141  1.00  0.00     0.007 A 
HETATM   20  C15 UNL     1      33.151  11.101  46.018  1.00  0.00     0.002 A 
HETATM   21  C16 UNL     1      32.069  11.738  45.457  1.00  0.00     0.019 A 
HETATM   22  C17 UNL     1      30.836  11.594  46.017  1.00  0.00     0.011 A 
HETATM   23 BR1  UNL     1      29.296  12.444  45.295  1.00  0.00    -0.051 Br
HETATM   24  C18 UNL     1      30.748  10.800  47.137  1.00  0.00     0.026 A 
ENDBRANCH  17  18
ENDBRANCH  12  17
BRANCH   6  25
HETATM   25  O2  UNL     1      24.902   3.261  49.865  1.00  0.00    -0.353 OA
HETATM   26  C8  UNL     1      25.076   2.569  51.082  1.00  0.00     0.210 C 
ENDBRANCH   6  25
BRANCH   1  27
HETATM   27  O1  UNL     1      23.794   5.725  49.809  1.00  0.00    -0.353 OA
HETATM   28  C1  UNL     1      23.544   6.555  50.929  1.00  0.00     0.210 C 
ENDBRANCH   1  27
TORSDOF 4
ENDMDL
