MODEL 1
REMARK VINA RESULT:      -8.6      0.000      0.000
REMARK  4 active torsions:
REMARK  status: ('A' for Active; 'I' for Inactive)
REMARK    1  A    between atoms: C5_6  and  C6_7 
REMARK    2  A    between atoms: C6_7  and  C7_8 
REMARK    3  A    between atoms: C9_10  and  S1_11 
REMARK    4  A    between atoms: C16_19  and  C17_20 
ROOT
HETATM    1  C1  UNL     1      22.336   4.135  47.408  1.00  0.00     0.046 C 
HETATM    2  C2  UNL     1      22.329   3.244  48.626  1.00  0.00    -0.047 C 
HETATM    3  C3  UNL     1      21.753   2.129  48.206  1.00  0.00     0.144 C 
HETATM    4  O1  UNL     1      21.501   0.979  48.949  1.00  0.00    -0.334 OA
HETATM    5  C4  UNL     1      21.351   0.627  50.287  1.00  0.00     0.148 C 
HETATM    6  C5  UNL     1      21.598   1.232  51.438  1.00  0.00    -0.032 C 
HETATM    7  C14 UNL     1      22.132   2.537  51.833  1.00  0.00     0.006 C 
HETATM    8  C15 UNL     1      22.627   3.516  51.081  1.00  0.00    -0.010 C 
HETATM    9  C16 UNL     1      22.948   3.971  49.734  1.00  0.00     0.096 C 
ENDROOT
BRANCH   6  10
HETATM   10  C6  UNL     1      21.240   0.373  52.594  1.00  0.00     0.075 C 
BRANCH  10  11
HETATM   11  C7  UNL     1      22.368  -0.096  53.390  1.00  0.00    -0.071 C 
HETATM   12  C8  UNL     1      23.664  -0.138  53.117  1.00  0.00     0.025 C 
HETATM   13  C9  UNL     1      24.691  -0.641  54.021  1.00  0.00     0.042 C 
HETATM   14  C11 UNL     1      24.212  -0.948  55.215  1.00  0.00    -0.009 C 
HETATM   15  C12 UNL     1      23.008  -1.489  55.311  1.00  0.00    -0.009 C 
HETATM   16  C13 UNL     1      21.930  -0.605  54.740  1.00  0.00     0.062 C 
BRANCH  13  17
HETATM   17  S1  UNL     1      26.354  -0.771  53.447  1.00  0.00     0.046 S 
HETATM   18  C10 UNL     1      26.663   0.258  52.027  1.00  0.00     0.133 C 
HETATM   19  O2  UNL     1      27.372  -0.578  54.557  1.00  0.00    -0.253 OA
ENDBRANCH  13  17
ENDBRANCH  10  11
ENDBRANCH   6  10
BRANCH   9  20
HETATM   20  C17 UNL     1      24.428   4.161  49.525  1.00  0.00     0.065 A 
HETATM   21  C18 UNL     1      25.417   3.246  49.813  1.00  0.00     0.036 A 
HETATM   22  C19 UNL     1      26.643   3.802  49.473  1.00  0.00     0.035 A 
HETATM   23  C20 UNL     1      26.315   5.054  48.988  1.00  0.00     0.049 A 
HETATM   24  C21 UNL     1      27.392   5.984  48.510  1.00  0.00     0.076 C 
HETATM   25  O3  UNL     1      25.029   5.212  49.038  1.00  0.00    -0.319 OA
ENDBRANCH   9  20
TORSDOF 4
ENDMDL
MODEL 2
REMARK VINA RESULT:      -8.4      3.440      7.709
REMARK  4 active torsions:
REMARK  status: ('A' for Active; 'I' for Inactive)
REMARK    1  A    between atoms: C5_6  and  C6_7 
REMARK    2  A    between atoms: C6_7  and  C7_8 
REMARK    3  A    between atoms: C9_10  and  S1_11 
REMARK    4  A    between atoms: C16_19  and  C17_20 
ROOT
HETATM    1  C1  UNL     1      24.211   1.481  53.191  1.00  0.00     0.046 C 
HETATM    2  C2  UNL     1      24.758   2.506  52.229  1.00  0.00    -0.047 C 
HETATM    3  C3  UNL     1      24.013   3.578  52.443  1.00  0.00     0.144 C 
HETATM    4  O1  UNL     1      24.110   4.813  51.805  1.00  0.00    -0.334 OA
HETATM    5  C4  UNL     1      24.609   5.321  50.609  1.00  0.00     0.148 C 
HETATM    6  C5  UNL     1      25.400   4.846  49.659  1.00  0.00    -0.032 C 
HETATM    7  C14 UNL     1      26.102   3.583  49.425  1.00  0.00     0.006 C 
HETATM    8  C15 UNL     1      26.209   2.513  50.207  1.00  0.00    -0.010 C 
HETATM    9  C16 UNL     1      25.859   1.897  51.481  1.00  0.00     0.096 C 
ENDROOT
BRANCH   6  10
HETATM   10  C6  UNL     1      25.611   5.841  48.579  1.00  0.00     0.075 C 
BRANCH  10  11
HETATM   11  C7  UNL     1      26.923   6.480  48.573  1.00  0.00    -0.071 C 
HETATM   12  C8  UNL     1      28.130   5.980  48.358  1.00  0.00     0.025 C 
HETATM   13  C9  UNL     1      29.368   6.748  48.384  1.00  0.00     0.042 C 
HETATM   14  C11 UNL     1      29.159   8.046  48.530  1.00  0.00    -0.009 C 
HETATM   15  C12 UNL     1      28.175   8.460  49.314  1.00  0.00    -0.009 C 
HETATM   16  C13 UNL     1      26.828   7.956  48.865  1.00  0.00     0.062 C 
BRANCH  13  17
HETATM   17  S1  UNL     1      30.909   5.904  48.227  1.00  0.00     0.046 S 
HETATM   18  C10 UNL     1      31.874   5.974  49.722  1.00  0.00     0.133 C 
HETATM   19  O2  UNL     1      30.751   4.495  47.684  1.00  0.00    -0.253 OA
ENDBRANCH  13  17
ENDBRANCH  10  11
ENDBRANCH   6  10
BRANCH   9  20
HETATM   20  C17 UNL     1      27.062   1.648  52.354  1.00  0.00     0.065 A 
HETATM   21  C18 UNL     1      27.750   2.593  53.084  1.00  0.00     0.036 A 
HETATM   22  C19 UNL     1      28.790   1.961  53.751  1.00  0.00     0.035 A 
HETATM   23  C20 UNL     1      28.667   0.636  53.375  1.00  0.00     0.049 A 
HETATM   24  C21 UNL     1      29.631  -0.389  53.899  1.00  0.00     0.076 C 
HETATM   25  O3  UNL     1      27.659   0.509  52.571  1.00  0.00    -0.319 OA
ENDBRANCH   9  20
TORSDOF 4
ENDMDL
MODEL 3
REMARK VINA RESULT:      -8.0      3.041      5.617
REMARK  4 active torsions:
REMARK  status: ('A' for Active; 'I' for Inactive)
REMARK    1  A    between atoms: C5_6  and  C6_7 
REMARK    2  A    between atoms: C6_7  and  C7_8 
REMARK    3  A    between atoms: C9_10  and  S1_11 
REMARK    4  A    between atoms: C16_19  and  C17_20 
ROOT
HETATM    1  C1  UNL     1      27.892   9.312  49.530  1.00  0.00     0.046 C 
HETATM    2  C2  UNL     1      27.305   7.940  49.309  1.00  0.00    -0.047 C 
HETATM    3  C3  UNL     1      26.203   7.940  50.041  1.00  0.00     0.144 C 
HETATM    4  O1  UNL     1      25.287   6.900  50.186  1.00  0.00    -0.334 OA
HETATM    5  C4  UNL     1      25.264   5.516  50.038  1.00  0.00     0.148 C 
HETATM    6  C5  UNL     1      26.078   4.630  49.485  1.00  0.00    -0.032 C 
HETATM    7  C14 UNL     1      27.363   4.692  48.787  1.00  0.00     0.006 C 
HETATM    8  C15 UNL     1      28.081   5.749  48.420  1.00  0.00    -0.010 C 
HETATM    9  C16 UNL     1      28.181   7.203  48.397  1.00  0.00     0.096 C 
ENDROOT
BRANCH   6  10
HETATM   10  C6  UNL     1      25.550   3.249  49.616  1.00  0.00     0.075 C 
BRANCH  10  11
HETATM   11  C7  UNL     1      25.696   2.654  50.940  1.00  0.00    -0.071 C 
HETATM   12  C8  UNL     1      26.753   2.128  51.542  1.00  0.00     0.025 C 
HETATM   13  C9  UNL     1      26.752   1.562  52.885  1.00  0.00     0.042 C 
HETATM   14  C11 UNL     1      25.597   1.733  53.508  1.00  0.00    -0.009 C 
HETATM   15  C12 UNL     1      24.470   1.653  52.819  1.00  0.00    -0.009 C 
HETATM   16  C13 UNL     1      24.399   2.667  51.707  1.00  0.00     0.062 C 
BRANCH  13  17
HETATM   17  S1  UNL     1      28.205   0.762  53.483  1.00  0.00     0.046 S 
HETATM   18  C10 UNL     1      29.301   1.888  54.321  1.00  0.00     0.133 C 
HETATM   19  O2  UNL     1      27.896  -0.484  54.293  1.00  0.00    -0.253 OA
ENDBRANCH  13  17
ENDBRANCH  10  11
ENDBRANCH   6  10
BRANCH   9  20
HETATM   20  C17 UNL     1      28.137   7.765  46.999  1.00  0.00     0.065 A 
HETATM   21  C18 UNL     1      29.222   8.028  46.191  1.00  0.00     0.036 A 
HETATM   22  C19 UNL     1      28.759   8.534  44.985  1.00  0.00     0.035 A 
HETATM   23  C20 UNL     1      27.385   8.549  45.138  1.00  0.00     0.049 A 
HETATM   24  C21 UNL     1      26.507   9.043  44.025  1.00  0.00     0.076 C 
HETATM   25  O3  UNL     1      27.079   8.097  46.314  1.00  0.00    -0.319 OA
ENDBRANCH   9  20
TORSDOF 4
ENDMDL
MODEL 4
REMARK VINA RESULT:      -7.9      3.247      7.977
REMARK  4 active torsions:
REMARK  status: ('A' for Active; 'I' for Inactive)
REMARK    1  A    between atoms: C5_6  and  C6_7 
REMARK    2  A    between atoms: C6_7  and  C7_8 
REMARK    3  A    between atoms: C9_10  and  S1_11 
REMARK    4  A    between atoms: C16_19  and  C17_20 
ROOT
HETATM    1  C1  UNL     1      26.059   1.290  53.989  1.00  0.00     0.046 C 
HETATM    2  C2  UNL     1      25.696   2.062  52.745  1.00  0.00    -0.047 C 
HETATM    3  C3  UNL     1      26.782   1.990  51.993  1.00  0.00     0.144 C 
HETATM    4  O1  UNL     1      26.972   2.545  50.729  1.00  0.00    -0.334 OA
HETATM    5  C4  UNL     1      26.433   3.574  49.963  1.00  0.00     0.148 C 
HETATM    6  C5  UNL     1      25.350   4.331  50.057  1.00  0.00    -0.032 C 
HETATM    7  C14 UNL     1      24.236   4.439  51.000  1.00  0.00     0.006 C 
HETATM    8  C15 UNL     1      23.944   3.692  52.060  1.00  0.00    -0.010 C 
HETATM    9  C16 UNL     1      24.326   2.556  52.890  1.00  0.00     0.096 C 
ENDROOT
BRANCH   6  10
HETATM   10  C6  UNL     1      25.262   5.298  48.935  1.00  0.00     0.075 C 
BRANCH  10  11
HETATM   11  C7  UNL     1      26.209   6.406  48.996  1.00  0.00    -0.071 C 
HETATM   12  C8  UNL     1      27.449   6.512  48.543  1.00  0.00     0.025 C 
HETATM   13  C9  UNL     1      28.288   7.697  48.677  1.00  0.00     0.042 C 
HETATM   14  C11 UNL     1      27.638   8.723  49.203  1.00  0.00    -0.009 C 
HETATM   15  C12 UNL     1      26.745   8.505  50.155  1.00  0.00    -0.009 C 
HETATM   16  C13 UNL     1      25.626   7.604  49.702  1.00  0.00     0.062 C 
BRANCH  13  17
HETATM   17  S1  UNL     1      29.971   7.625  48.154  1.00  0.00     0.046 S 
HETATM   18  C10 UNL     1      30.988   8.833  48.976  1.00  0.00     0.133 C 
HETATM   19  O2  UNL     1      30.542   6.220  48.217  1.00  0.00    -0.253 OA
ENDBRANCH  13  17
ENDBRANCH  10  11
ENDBRANCH   6  10
BRANCH   9  20
HETATM   20  C17 UNL     1      23.317   1.437  52.839  1.00  0.00     0.065 A 
HETATM   21  C18 UNL     1      22.634   1.005  51.724  1.00  0.00     0.036 A 
HETATM   22  C19 UNL     1      21.804  -0.043  52.096  1.00  0.00     0.035 A 
HETATM   23  C20 UNL     1      22.040  -0.187  53.450  1.00  0.00     0.049 A 
HETATM   24  C21 UNL     1      21.314  -1.242  54.235  1.00  0.00     0.076 C 
HETATM   25  O3  UNL     1      22.918   0.687  53.829  1.00  0.00    -0.319 OA
ENDBRANCH   9  20
TORSDOF 4
ENDMDL
MODEL 5
REMARK VINA RESULT:      -7.8      1.890      2.820
REMARK  4 active torsions:
REMARK  status: ('A' for Active; 'I' for Inactive)
REMARK    1  A    between atoms: C5_6  and  C6_7 
REMARK    2  A    between atoms: C6_7  and  C7_8 
REMARK    3  A    between atoms: C9_10  and  S1_11 
REMARK    4  A    between atoms: C16_19  and  C17_20 
ROOT
HETATM    1  C1  UNL     1      23.985   7.006  47.072  1.00  0.00     0.046 C 
HETATM    2  C2  UNL     1      23.783   6.124  48.279  1.00  0.00    -0.047 C 
HETATM    3  C3  UNL     1      22.791   5.321  47.930  1.00  0.00     0.144 C 
HETATM    4  O1  UNL     1      22.214   4.311  48.695  1.00  0.00    -0.334 OA
HETATM    5  C4  UNL     1      22.095   3.976  50.041  1.00  0.00     0.148 C 
HETATM    6  C5  UNL     1      22.676   4.392  51.155  1.00  0.00    -0.032 C 
HETATM    7  C14 UNL     1      23.697   5.388  51.485  1.00  0.00     0.006 C 
HETATM    8  C15 UNL     1      24.434   6.150  50.681  1.00  0.00    -0.010 C 
HETATM    9  C16 UNL     1      24.748   6.518  49.306  1.00  0.00     0.096 C 
ENDROOT
BRANCH   6  10
HETATM   10  C6  UNL     1      22.156   3.672  52.344  1.00  0.00     0.075 C 
BRANCH  10  11
HETATM   11  C7  UNL     1      22.792   2.388  52.618  1.00  0.00    -0.071 C 
HETATM   12  C8  UNL     1      24.071   2.063  52.739  1.00  0.00     0.025 C 
HETATM   13  C9  UNL     1      24.567   0.721  53.017  1.00  0.00     0.042 C 
HETATM   14  C11 UNL     1      23.593  -0.141  53.262  1.00  0.00    -0.009 C 
HETATM   15  C12 UNL     1      22.458  -0.046  52.587  1.00  0.00    -0.009 C 
HETATM   16  C13 UNL     1      21.779   1.285  52.784  1.00  0.00     0.062 C 
BRANCH  13  17
HETATM   17  S1  UNL     1      26.305   0.424  52.996  1.00  0.00     0.046 S 
HETATM   18  C10 UNL     1      26.974   0.206  54.632  1.00  0.00     0.133 C 
HETATM   19  O2  UNL     1      26.697  -0.686  52.038  1.00  0.00    -0.253 OA
ENDBRANCH  13  17
ENDBRANCH  10  11
ENDBRANCH   6  10
BRANCH   9  20
HETATM   20  C17 UNL     1      26.159   6.158  48.919  1.00  0.00     0.065 A 
HETATM   21  C18 UNL     1      26.720   4.901  48.957  1.00  0.00     0.036 A 
HETATM   22  C19 UNL     1      28.035   4.993  48.521  1.00  0.00     0.035 A 
HETATM   23  C20 UNL     1      28.196   6.336  48.238  1.00  0.00     0.049 A 
HETATM   24  C21 UNL     1      29.513   6.848  47.730  1.00  0.00     0.076 C 
HETATM   25  O3  UNL     1      27.089   6.963  48.484  1.00  0.00    -0.319 OA
ENDBRANCH   9  20
TORSDOF 4
ENDMDL
MODEL 6
REMARK VINA RESULT:      -7.8      1.753      2.171
REMARK  4 active torsions:
REMARK  status: ('A' for Active; 'I' for Inactive)
REMARK    1  A    between atoms: C5_6  and  C6_7 
REMARK    2  A    between atoms: C6_7  and  C7_8 
REMARK    3  A    between atoms: C9_10  and  S1_11 
REMARK    4  A    between atoms: C16_19  and  C17_20 
ROOT
HETATM    1  C1  UNL     1      22.669   5.516  47.412  1.00  0.00     0.046 C 
HETATM    2  C2  UNL     1      22.923   4.518  48.515  1.00  0.00    -0.047 C 
HETATM    3  C3  UNL     1      22.475   3.374  48.023  1.00  0.00     0.144 C 
HETATM    4  O1  UNL     1      22.475   2.130  48.648  1.00  0.00    -0.334 OA
HETATM    5  C4  UNL     1      22.523   1.626  49.944  1.00  0.00     0.148 C 
HETATM    6  C5  UNL     1      22.801   2.144  51.130  1.00  0.00    -0.032 C 
HETATM    7  C14 UNL     1      23.176   3.470  51.623  1.00  0.00     0.006 C 
HETATM    8  C15 UNL     1      23.439   4.585  50.948  1.00  0.00    -0.010 C 
HETATM    9  C16 UNL     1      23.544   5.219  49.639  1.00  0.00     0.096 C 
ENDROOT
BRANCH   6  10
HETATM   10  C6  UNL     1      22.698   1.128  52.207  1.00  0.00     0.075 C 
BRANCH  10  11
HETATM   11  C7  UNL     1      23.937   0.867  52.932  1.00  0.00    -0.071 C 
HETATM   12  C8  UNL     1      25.107   1.488  52.901  1.00  0.00     0.025 C 
HETATM   13  C9  UNL     1      26.272   1.111  53.692  1.00  0.00     0.042 C 
HETATM   14  C11 UNL     1      26.010   0.142  54.554  1.00  0.00    -0.009 C 
HETATM   15  C12 UNL     1      25.179  -0.828  54.206  1.00  0.00    -0.009 C 
HETATM   16  C13 UNL     1      23.806  -0.314  53.859  1.00  0.00     0.062 C 
BRANCH  13  17
HETATM   17  S1  UNL     1      27.802   1.945  53.421  1.00  0.00     0.046 S 
HETATM   18  C10 UNL     1      29.208   0.920  53.798  1.00  0.00     0.133 C 
HETATM   19  O2  UNL     1      27.882   2.588  52.048  1.00  0.00    -0.253 OA
ENDBRANCH  13  17
ENDBRANCH  10  11
ENDBRANCH   6  10
BRANCH   9  20
HETATM   20  C17 UNL     1      24.949   5.659  49.320  1.00  0.00     0.065 A 
HETATM   21  C18 UNL     1      25.419   6.954  49.326  1.00  0.00     0.036 A 
HETATM   22  C19 UNL     1      26.763   6.935  48.979  1.00  0.00     0.035 A 
HETATM   23  C20 UNL     1      27.034   5.594  48.778  1.00  0.00     0.049 A 
HETATM   24  C21 UNL     1      28.413   5.154  48.379  1.00  0.00     0.076 C 
HETATM   25  O3  UNL     1      25.958   4.903  48.987  1.00  0.00    -0.319 OA
ENDBRANCH   9  20
TORSDOF 4
ENDMDL
MODEL 7
REMARK VINA RESULT:      -7.4      2.816      4.306
REMARK  4 active torsions:
REMARK  status: ('A' for Active; 'I' for Inactive)
REMARK    1  A    between atoms: C5_6  and  C6_7 
REMARK    2  A    between atoms: C6_7  and  C7_8 
REMARK    3  A    between atoms: C9_10  and  S1_11 
REMARK    4  A    between atoms: C16_19  and  C17_20 
ROOT
HETATM    1  C1  UNL     1      24.786   7.819  46.895  1.00  0.00     0.046 C 
HETATM    2  C2  UNL     1      24.420   6.987  48.098  1.00  0.00    -0.047 C 
HETATM    3  C3  UNL     1      23.313   6.361  47.732  1.00  0.00     0.144 C 
HETATM    4  O1  UNL     1      22.562   5.463  48.488  1.00  0.00    -0.334 OA
HETATM    5  C4  UNL     1      22.367   5.156  49.831  1.00  0.00     0.148 C 
HETATM    6  C5  UNL     1      22.992   5.472  50.955  1.00  0.00    -0.032 C 
HETATM    7  C14 UNL     1      24.160   6.283  51.302  1.00  0.00     0.006 C 
HETATM    8  C15 UNL     1      25.027   6.908  50.510  1.00  0.00    -0.010 C 
HETATM    9  C16 UNL     1      25.421   7.215  49.141  1.00  0.00     0.096 C 
ENDROOT
BRANCH   6  10
HETATM   10  C6  UNL     1      22.340   4.852  52.135  1.00  0.00     0.075 C 
BRANCH  10  11
HETATM   11  C7  UNL     1      22.674   3.451  52.362  1.00  0.00    -0.071 C 
HETATM   12  C8  UNL     1      21.899   2.381  52.465  1.00  0.00     0.025 C 
HETATM   13  C9  UNL     1      22.377   1.023  52.696  1.00  0.00     0.042 C 
HETATM   14  C11 UNL     1      23.698   0.939  52.675  1.00  0.00    -0.009 C 
HETATM   15  C12 UNL     1      24.418   1.927  53.182  1.00  0.00    -0.009 C 
HETATM   16  C13 UNL     1      24.161   3.242  52.494  1.00  0.00     0.062 C 
BRANCH  13  17
HETATM   17  S1  UNL     1      21.206  -0.269  52.960  1.00  0.00     0.046 S 
HETATM   18  C10 UNL     1      21.497  -1.144  54.483  1.00  0.00     0.133 C 
HETATM   19  O2  UNL     1      19.772   0.202  52.806  1.00  0.00    -0.253 OA
ENDBRANCH  13  17
ENDBRANCH  10  11
ENDBRANCH   6  10
BRANCH   9  20
HETATM   20  C17 UNL     1      26.758   6.623  48.776  1.00  0.00     0.065 A 
HETATM   21  C18 UNL     1      27.080   5.283  48.761  1.00  0.00     0.036 A 
HETATM   22  C19 UNL     1      28.405   5.155  48.370  1.00  0.00     0.035 A 
HETATM   23  C20 UNL     1      28.818   6.458  48.167  1.00  0.00     0.049 A 
HETATM   24  C21 UNL     1      30.225   6.745  47.728  1.00  0.00     0.076 C 
HETATM   25  O3  UNL     1      27.834   7.265  48.414  1.00  0.00    -0.319 OA
ENDBRANCH   9  20
TORSDOF 4
ENDMDL
MODEL 8
REMARK VINA RESULT:      -7.3      2.756      7.601
REMARK  4 active torsions:
REMARK  status: ('A' for Active; 'I' for Inactive)
REMARK    1  A    between atoms: C5_6  and  C6_7 
REMARK    2  A    between atoms: C6_7  and  C7_8 
REMARK    3  A    between atoms: C9_10  and  S1_11 
REMARK    4  A    between atoms: C16_19  and  C17_20 
ROOT
HETATM    1  C1  UNL     1      26.115   0.953  53.991  1.00  0.00     0.046 C 
HETATM    2  C2  UNL     1      25.716   1.823  52.825  1.00  0.00    -0.047 C 
HETATM    3  C3  UNL     1      26.768   1.791  52.024  1.00  0.00     0.144 C 
HETATM    4  O1  UNL     1      26.916   2.437  50.799  1.00  0.00    -0.334 OA
HETATM    5  C4  UNL     1      26.366   3.530  50.136  1.00  0.00     0.148 C 
HETATM    6  C5  UNL     1      25.303   4.295  50.332  1.00  0.00    -0.032 C 
HETATM    7  C14 UNL     1      24.231   4.349  51.328  1.00  0.00     0.006 C 
HETATM    8  C15 UNL     1      23.969   3.528  52.341  1.00  0.00    -0.010 C 
HETATM    9  C16 UNL     1      24.363   2.326  53.065  1.00  0.00     0.096 C 
ENDROOT
BRANCH   6  10
HETATM   10  C6  UNL     1      25.187   5.346  49.291  1.00  0.00     0.075 C 
BRANCH  10  11
HETATM   11  C7  UNL     1      23.936   5.339  48.541  1.00  0.00    -0.071 C 
HETATM   12  C8  UNL     1      23.051   4.374  48.340  1.00  0.00     0.025 C 
HETATM   13  C9  UNL     1      21.829   4.512  47.558  1.00  0.00     0.042 C 
HETATM   14  C11 UNL     1      21.620   5.756  47.157  1.00  0.00    -0.009 C 
HETATM   15  C12 UNL     1      22.652   6.504  46.800  1.00  0.00    -0.009 C 
HETATM   16  C13 UNL     1      23.650   6.680  47.914  1.00  0.00     0.062 C 
BRANCH  13  17
HETATM   17  S1  UNL     1      20.833   3.088  47.258  1.00  0.00     0.046 S 
HETATM   18  C10 UNL     1      20.847   1.951  48.628  1.00  0.00     0.133 C 
HETATM   19  O2  UNL     1      19.433   3.442  46.790  1.00  0.00    -0.253 OA
ENDBRANCH  13  17
ENDBRANCH  10  11
ENDBRANCH   6  10
BRANCH   9  20
HETATM   20  C17 UNL     1      23.332   1.231  52.973  1.00  0.00     0.065 A 
HETATM   21  C18 UNL     1      22.550   0.935  51.878  1.00  0.00     0.036 A 
HETATM   22  C19 UNL     1      21.733  -0.140  52.198  1.00  0.00     0.035 A 
HETATM   23  C20 UNL     1      22.077  -0.439  53.503  1.00  0.00     0.049 A 
HETATM   24  C21 UNL     1      21.397  -1.568  54.223  1.00  0.00     0.076 C 
HETATM   25  O3  UNL     1      23.000   0.378  53.903  1.00  0.00    -0.319 OA
ENDBRANCH   9  20
TORSDOF 4
ENDMDL
MODEL 9
REMARK VINA RESULT:      -7.1      2.557      7.413
REMARK  4 active torsions:
REMARK  status: ('A' for Active; 'I' for Inactive)
REMARK    1  A    between atoms: C5_6  and  C6_7 
REMARK    2  A    between atoms: C6_7  and  C7_8 
REMARK    3  A    between atoms: C9_10  and  S1_11 
REMARK    4  A    between atoms: C16_19  and  C17_20 
ROOT
HETATM    1  C1  UNL     1      24.976  -0.926  54.852  1.00  0.00     0.046 C 
HETATM    2  C2  UNL     1      25.047   0.025  53.683  1.00  0.00    -0.047 C 
HETATM    3  C3  UNL     1      26.087  -0.402  52.984  1.00  0.00     0.144 C 
HETATM    4  O1  UNL     1      26.585   0.136  51.800  1.00  0.00    -0.334 OA
HETATM    5  C4  UNL     1      26.550   1.351  51.123  1.00  0.00     0.148 C 
HETATM    6  C5  UNL     1      25.834   2.458  51.243  1.00  0.00    -0.032 C 
HETATM    7  C14 UNL     1      24.765   2.914  52.134  1.00  0.00     0.006 C 
HETATM    8  C15 UNL     1      24.117   2.255  53.090  1.00  0.00    -0.010 C 
HETATM    9  C16 UNL     1      23.961   0.997  53.810  1.00  0.00     0.096 C 
ENDROOT
BRANCH   6  10
HETATM   10  C6  UNL     1      26.221   3.471  50.230  1.00  0.00     0.075 C 
BRANCH  10  11
HETATM   11  C7  UNL     1      25.108   4.119  49.545  1.00  0.00    -0.071 C 
HETATM   12  C8  UNL     1      24.037   3.608  48.956  1.00  0.00     0.025 C 
HETATM   13  C9  UNL     1      22.993   4.387  48.302  1.00  0.00     0.042 C 
HETATM   14  C11 UNL     1      23.157   5.691  48.460  1.00  0.00    -0.009 C 
HETATM   15  C12 UNL     1      24.381   6.195  48.451  1.00  0.00    -0.009 C 
HETATM   16  C13 UNL     1      25.251   5.619  49.538  1.00  0.00     0.062 C 
BRANCH  13  17
HETATM   17  S1  UNL     1      21.709   3.548  47.431  1.00  0.00     0.046 S 
HETATM   18  C10 UNL     1      21.867   3.717  45.666  1.00  0.00     0.133 C 
HETATM   19  O2  UNL     1      21.543   2.108  47.881  1.00  0.00    -0.253 OA
ENDBRANCH  13  17
ENDBRANCH  10  11
ENDBRANCH   6  10
BRANCH   9  20
HETATM   20  C17 UNL     1      22.612   0.365  53.585  1.00  0.00     0.065 A 
HETATM   21  C18 UNL     1      22.086  -0.703  54.278  1.00  0.00     0.036 A 
HETATM   22  C19 UNL     1      20.824  -0.978  53.770  1.00  0.00     0.035 A 
HETATM   23  C20 UNL     1      20.656  -0.035  52.773  1.00  0.00     0.049 A 
HETATM   24  C21 UNL     1      19.388  -0.004  51.969  1.00  0.00     0.076 C 
HETATM   25  O3  UNL     1      21.712   0.713  52.707  1.00  0.00    -0.319 OA
ENDBRANCH   9  20
TORSDOF 4
ENDMDL
