MODEL 1
REMARK VINA RESULT:      -7.9      0.000      0.000
REMARK  6 active torsions:
REMARK  status: ('A' for Active; 'I' for Inactive)
REMARK    1  A    between atoms: O1_2  and  C2_3 
REMARK    2  A    between atoms: N3_20  and  C16_21 
REMARK    3  A    between atoms: C16_21  and  C17_22 
REMARK    4  A    between atoms: C17_22  and  C19_24 
REMARK    5  A    between atoms: C19_24  and  N4_25 
REMARK    6  A    between atoms: C22_28  and  N5_29 
ROOT
HETATM    1  C2  UNL     1      22.987   4.841  50.605  1.00  0.00     0.080 C 
HETATM    2  C3  UNL     1      22.538   4.105  51.597  1.00  0.00     0.044 C 
HETATM    3  C4  UNL     1      22.451   2.660  51.742  1.00  0.00     0.078 C 
HETATM    4  C5  UNL     1      22.429   1.902  50.461  1.00  0.00     0.033 C 
HETATM    5  C6  UNL     1      23.019   2.072  49.273  1.00  0.00     0.135 C 
HETATM    6  O2  UNL     1      23.864   3.174  49.086  1.00  0.00    -0.345 OA
HETATM    7  C7  UNL     1      23.556   4.522  49.305  1.00  0.00     0.115 A 
HETATM    8  C8  UNL     1      24.307   5.561  48.549  1.00  0.00     0.049 A 
HETATM    9  C9  UNL     1      22.862   5.242  48.112  1.00  0.00     0.049 A 
HETATM   10  C10 UNL     1      21.213   2.217  52.505  1.00  0.00     0.084 C 
HETATM   11  C11 UNL     1      21.586   0.823  52.936  1.00  0.00     0.015 A 
HETATM   12  C12 UNL     1      20.715  -0.205  53.264  1.00  0.00     0.042 A 
HETATM   13  C13 UNL     1      19.249  -0.015  53.205  1.00  0.00     0.071 C 
HETATM   14  N1  UNL     1      21.341  -1.339  53.623  1.00  0.00    -0.246 NA
HETATM   15  C14 UNL     1      22.694  -1.429  53.648  1.00  0.00     0.235 A 
HETATM   16  N2  UNL     1      23.485  -0.398  53.318  1.00  0.00    -0.224 NA
HETATM   17  C15 UNL     1      22.984   0.785  52.944  1.00  0.00     0.136 A 
HETATM   18  N3  UNL     1      23.482   2.051  52.551  1.00  0.00    -0.348 N 
ENDROOT
BRANCH  18  19
HETATM   19  C16 UNL     1      24.700   2.660  52.891  1.00  0.00     0.132 C 
BRANCH  19  20
HETATM   20  C17 UNL     1      25.969   2.012  52.473  1.00  0.00     0.028 C 
HETATM   21  C18 UNL     1      26.422   2.698  51.206  1.00  0.00     0.013 C 
BRANCH  20  22
HETATM   22  C19 UNL     1      27.043   2.136  53.525  1.00  0.00     0.281 C 
BRANCH  22  23
HETATM   23  N4  UNL     1      27.547   0.884  54.010  1.00  0.00     0.122 N 
HETATM   24  C20 UNL     1      29.000   0.825  53.767  1.00  0.00     0.279 C 
HETATM   25  C21 UNL     1      28.837  -0.675  53.642  1.00  0.00     0.098 C 
HETATM   26  C22 UNL     1      27.437  -0.262  53.155  1.00  0.00     0.453 C 
BRANCH  26  27
HETATM   27  N5  UNL     1      26.514  -1.300  53.554  1.00  0.00     0.112 N 
HETATM   28  H30 UNL     1      26.424  -1.268  54.594  1.00  0.00     0.315 HD
HETATM   29  H31 UNL     1      25.637  -1.199  53.027  1.00  0.00     0.315 HD
ENDBRANCH  26  27
ENDBRANCH  22  23
ENDBRANCH  20  22
ENDBRANCH  19  20
ENDBRANCH  18  19
BRANCH   1  30
HETATM   30  O1  UNL     1      22.910   6.228  50.829  1.00  0.00    -0.357 OA
HETATM   31  C1  UNL     1      21.599   6.775  50.988  1.00  0.00     0.209 C 
ENDBRANCH   1  30
TORSDOF 6
ENDMDL
MODEL 2
REMARK VINA RESULT:      -7.7      1.450      5.335
REMARK  6 active torsions:
REMARK  status: ('A' for Active; 'I' for Inactive)
REMARK    1  A    between atoms: O1_2  and  C2_3 
REMARK    2  A    between atoms: N3_20  and  C16_21 
REMARK    3  A    between atoms: C16_21  and  C17_22 
REMARK    4  A    between atoms: C17_22  and  C19_24 
REMARK    5  A    between atoms: C19_24  and  N4_25 
REMARK    6  A    between atoms: C22_28  and  N5_29 
ROOT
HETATM    1  C2  UNL     1      23.479   4.420  50.165  1.00  0.00     0.080 C 
HETATM    2  C3  UNL     1      23.947   3.210  50.374  1.00  0.00     0.044 C 
HETATM    3  C4  UNL     1      24.135   2.467  51.610  1.00  0.00     0.078 C 
HETATM    4  C5  UNL     1      24.258   3.307  52.834  1.00  0.00     0.033 C 
HETATM    5  C6  UNL     1      23.699   4.455  53.230  1.00  0.00     0.135 C 
HETATM    6  O2  UNL     1      22.781   5.091  52.383  1.00  0.00    -0.345 OA
HETATM    7  C7  UNL     1      22.981   5.463  51.048  1.00  0.00     0.115 A 
HETATM    8  C8  UNL     1      22.182   6.589  50.491  1.00  0.00     0.049 A 
HETATM    9  C9  UNL     1      23.661   6.849  50.845  1.00  0.00     0.049 A 
HETATM   10  C10 UNL     1      25.376   1.588  51.587  1.00  0.00     0.084 C 
HETATM   11  C11 UNL     1      25.092   0.607  52.694  1.00  0.00     0.015 A 
HETATM   12  C12 UNL     1      26.025  -0.125  53.413  1.00  0.00     0.042 A 
HETATM   13  C13 UNL     1      27.474   0.008  53.147  1.00  0.00     0.071 C 
HETATM   14  N1  UNL     1      25.473  -0.930  54.337  1.00  0.00    -0.246 NA
HETATM   15  C14 UNL     1      24.129  -0.991  54.518  1.00  0.00     0.235 A 
HETATM   16  N2  UNL     1      23.276  -0.256  53.791  1.00  0.00    -0.224 NA
HETATM   17  C15 UNL     1      23.701   0.584  52.840  1.00  0.00     0.136 A 
HETATM   18  N3  UNL     1      23.125   1.476  51.903  1.00  0.00    -0.348 N 
ENDROOT
BRANCH  18  19
HETATM   19  C16 UNL     1      21.855   1.426  51.309  1.00  0.00     0.132 C 
BRANCH  19  20
HETATM   20  C17 UNL     1      20.652   1.537  52.174  1.00  0.00     0.028 C 
HETATM   21  C18 UNL     1      20.339   3.008  52.314  1.00  0.00     0.013 C 
BRANCH  20  22
HETATM   22  C19 UNL     1      19.461   0.822  51.585  1.00  0.00     0.281 C 
BRANCH  22  23
HETATM   23  N4  UNL     1      19.233  -0.489  52.117  1.00  0.00     0.122 N 
HETATM   24  C20 UNL     1      17.781  -0.739  52.171  1.00  0.00     0.279 C 
HETATM   25  C21 UNL     1      18.057  -1.624  53.367  1.00  0.00     0.098 C 
HETATM   26  C22 UNL     1      19.232  -0.646  53.543  1.00  0.00     0.453 C 
BRANCH  26  27
HETATM   27  N5  UNL     1      20.328  -1.383  54.129  1.00  0.00     0.112 N 
HETATM   28  H30 UNL     1      20.159  -2.400  53.958  1.00  0.00     0.315 HD
HETATM   29  H31 UNL     1      21.219  -1.012  53.773  1.00  0.00     0.315 HD
ENDBRANCH  26  27
ENDBRANCH  22  23
ENDBRANCH  20  22
ENDBRANCH  19  20
ENDBRANCH  18  19
BRANCH   1  30
HETATM   30  O1  UNL     1      23.446   4.806  48.812  1.00  0.00    -0.357 OA
HETATM   31  C1  UNL     1      22.675   3.981  47.935  1.00  0.00     0.209 C 
ENDBRANCH   1  30
TORSDOF 6
ENDMDL
MODEL 3
REMARK VINA RESULT:      -7.6      2.234      5.419
REMARK  6 active torsions:
REMARK  status: ('A' for Active; 'I' for Inactive)
REMARK    1  A    between atoms: O1_2  and  C2_3 
REMARK    2  A    between atoms: N3_20  and  C16_21 
REMARK    3  A    between atoms: C16_21  and  C17_22 
REMARK    4  A    between atoms: C17_22  and  C19_24 
REMARK    5  A    between atoms: C19_24  and  N4_25 
REMARK    6  A    between atoms: C22_28  and  N5_29 
ROOT
HETATM    1  C2  UNL     1      25.005   4.742  49.933  1.00  0.00     0.080 C 
HETATM    2  C3  UNL     1      25.081   3.476  50.278  1.00  0.00     0.044 C 
HETATM    3  C4  UNL     1      24.339   2.719  51.274  1.00  0.00     0.078 C 
HETATM    4  C5  UNL     1      23.744   3.536  52.367  1.00  0.00     0.033 C 
HETATM    5  C6  UNL     1      23.203   4.758  52.421  1.00  0.00     0.135 C 
HETATM    6  O2  UNL     1      23.130   5.521  51.248  1.00  0.00    -0.345 OA
HETATM    7  C7  UNL     1      24.184   5.852  50.389  1.00  0.00     0.115 A 
HETATM    8  C8  UNL     1      24.072   7.083  49.559  1.00  0.00     0.049 A 
HETATM    9  C9  UNL     1      24.993   7.119  50.796  1.00  0.00     0.049 A 
HETATM   10  C10 UNL     1      25.188   1.662  51.964  1.00  0.00     0.084 C 
HETATM   11  C11 UNL     1      24.145   0.741  52.538  1.00  0.00     0.015 A 
HETATM   12  C12 UNL     1      24.301  -0.120  53.614  1.00  0.00     0.042 A 
HETATM   13  C13 UNL     1      25.584  -0.208  54.346  1.00  0.00     0.071 C 
HETATM   14  N1  UNL     1      23.193  -0.828  53.895  1.00  0.00    -0.246 NA
HETATM   15  C14 UNL     1      22.053  -0.685  53.172  1.00  0.00     0.235 A 
HETATM   16  N2  UNL     1      21.964   0.168  52.141  1.00  0.00    -0.224 NA
HETATM   17  C15 UNL     1      22.997   0.929  51.762  1.00  0.00     0.136 A 
HETATM   18  N3  UNL     1      23.270   1.893  50.762  1.00  0.00    -0.348 N 
ENDROOT
BRANCH  18  19
HETATM   19  C16 UNL     1      22.686   2.033  49.494  1.00  0.00     0.132 C 
BRANCH  19  20
HETATM   20  C17 UNL     1      21.570   2.999  49.318  1.00  0.00     0.028 C 
HETATM   21  C18 UNL     1      21.881   3.818  48.089  1.00  0.00     0.013 C 
BRANCH  20  22
HETATM   22  C19 UNL     1      20.242   2.305  49.140  1.00  0.00     0.281 C 
BRANCH  22  23
HETATM   23  N4  UNL     1      19.356   2.423  50.262  1.00  0.00     0.122 N 
HETATM   24  C20 UNL     1      18.314   3.418  49.947  1.00  0.00     0.279 C 
HETATM   25  C21 UNL     1      18.272   3.725  51.428  1.00  0.00     0.098 C 
HETATM   26  C22 UNL     1      19.744   3.287  51.338  1.00  0.00     0.453 C 
BRANCH  26  27
HETATM   27  N5  UNL     1      20.090   2.664  52.596  1.00  0.00     0.112 N 
HETATM   28  H30 UNL     1      21.132   2.652  52.672  1.00  0.00     0.315 HD
HETATM   29  H31 UNL     1      19.593   3.139  53.361  1.00  0.00     0.315 HD
ENDBRANCH  26  27
ENDBRANCH  22  23
ENDBRANCH  20  22
ENDBRANCH  19  20
ENDBRANCH  18  19
BRANCH   1  30
HETATM   30  O1  UNL     1      25.897   5.121  48.912  1.00  0.00    -0.357 OA
HETATM   31  C1  UNL     1      27.191   4.515  48.939  1.00  0.00     0.209 C 
ENDBRANCH   1  30
TORSDOF 6
ENDMDL
MODEL 4
REMARK VINA RESULT:      -7.4      2.586      5.945
REMARK  6 active torsions:
REMARK  status: ('A' for Active; 'I' for Inactive)
REMARK    1  A    between atoms: O1_2  and  C2_3 
REMARK    2  A    between atoms: N3_20  and  C16_21 
REMARK    3  A    between atoms: C16_21  and  C17_22 
REMARK    4  A    between atoms: C17_22  and  C19_24 
REMARK    5  A    between atoms: C19_24  and  N4_25 
REMARK    6  A    between atoms: C22_28  and  N5_29 
ROOT
HETATM    1  C2  UNL     1      26.693   0.230  52.626  1.00  0.00     0.080 C 
HETATM    2  C3  UNL     1      25.430   0.206  52.263  1.00  0.00     0.044 C 
HETATM    3  C4  UNL     1      24.346   1.134  52.541  1.00  0.00     0.078 C 
HETATM    4  C5  UNL     1      24.536   1.976  53.754  1.00  0.00     0.033 C 
HETATM    5  C6  UNL     1      25.602   2.542  54.330  1.00  0.00     0.135 C 
HETATM    6  O2  UNL     1      26.863   2.369  53.745  1.00  0.00    -0.345 OA
HETATM    7  C7  UNL     1      27.484   1.157  53.420  1.00  0.00     0.115 A 
HETATM    8  C8  UNL     1      28.971   1.108  53.355  1.00  0.00     0.049 A 
HETATM    9  C9  UNL     1      28.273   0.487  54.583  1.00  0.00     0.049 A 
HETATM   10  C10 UNL     1      23.006   0.437  52.728  1.00  0.00     0.084 C 
HETATM   11  C11 UNL     1      22.029   1.562  52.510  1.00  0.00     0.015 A 
HETATM   12  C12 UNL     1      20.726   1.631  52.981  1.00  0.00     0.042 A 
HETATM   13  C13 UNL     1      20.148   0.542  53.798  1.00  0.00     0.071 C 
HETATM   14  N1  UNL     1      20.088   2.758  52.618  1.00  0.00    -0.246 NA
HETATM   15  C14 UNL     1      20.696   3.710  51.867  1.00  0.00     0.235 A 
HETATM   16  N2  UNL     1      21.962   3.586  51.442  1.00  0.00    -0.224 NA
HETATM   17  C15 UNL     1      22.702   2.512  51.736  1.00  0.00     0.136 A 
HETATM   18  N3  UNL     1      24.012   2.044  51.469  1.00  0.00    -0.348 N 
ENDROOT
BRANCH  18  19
HETATM   19  C16 UNL     1      24.843   2.333  50.375  1.00  0.00     0.132 C 
BRANCH  19  20
HETATM   20  C17 UNL     1      25.374   3.712  50.221  1.00  0.00     0.028 C 
HETATM   21  C18 UNL     1      26.782   3.588  49.690  1.00  0.00     0.013 C 
BRANCH  20  22
HETATM   22  C19 UNL     1      24.546   4.537  49.268  1.00  0.00     0.281 C 
BRANCH  22  23
HETATM   23  N4  UNL     1      23.955   5.706  49.852  1.00  0.00     0.122 N 
HETATM   24  C20 UNL     1      24.482   6.902  49.169  1.00  0.00     0.279 C 
HETATM   25  C21 UNL     1      24.293   7.635  50.480  1.00  0.00     0.098 C 
HETATM   26  C22 UNL     1      24.544   6.229  51.051  1.00  0.00     0.453 C 
BRANCH  26  27
HETATM   27  N5  UNL     1      23.777   6.112  52.271  1.00  0.00     0.112 N 
HETATM   28  H30 UNL     1      24.312   5.502  52.929  1.00  0.00     0.315 HD
HETATM   29  H31 UNL     1      23.548   7.052  52.621  1.00  0.00     0.315 HD
ENDBRANCH  26  27
ENDBRANCH  22  23
ENDBRANCH  20  22
ENDBRANCH  19  20
ENDBRANCH  18  19
BRANCH   1  30
HETATM   30  O1  UNL     1      27.454  -0.858  52.159  1.00  0.00    -0.357 OA
HETATM   31  C1  UNL     1      26.901  -2.158  52.370  1.00  0.00     0.209 C 
ENDBRANCH   1  30
TORSDOF 6
ENDMDL
MODEL 5
REMARK VINA RESULT:      -7.2      2.309      5.320
REMARK  6 active torsions:
REMARK  status: ('A' for Active; 'I' for Inactive)
REMARK    1  A    between atoms: O1_2  and  C2_3 
REMARK    2  A    between atoms: N3_20  and  C16_21 
REMARK    3  A    between atoms: C16_21  and  C17_22 
REMARK    4  A    between atoms: C17_22  and  C19_24 
REMARK    5  A    between atoms: C19_24  and  N4_25 
REMARK    6  A    between atoms: C22_28  and  N5_29 
ROOT
HETATM    1  C2  UNL     1      21.990   0.419  52.360  1.00  0.00     0.080 C 
HETATM    2  C3  UNL     1      22.545   0.932  51.285  1.00  0.00     0.044 C 
HETATM    3  C4  UNL     1      22.354   2.223  50.644  1.00  0.00     0.078 C 
HETATM    4  C5  UNL     1      21.054   2.886  50.943  1.00  0.00     0.033 C 
HETATM    5  C6  UNL     1      20.271   2.943  52.025  1.00  0.00     0.135 C 
HETATM    6  O2  UNL     1      20.668   2.269  53.187  1.00  0.00    -0.345 OA
HETATM    7  C7  UNL     1      21.003   0.914  53.306  1.00  0.00     0.115 A 
HETATM    8  C8  UNL     1      20.841   0.249  54.627  1.00  0.00     0.049 A 
HETATM    9  C9  UNL     1      19.798  -0.045  53.530  1.00  0.00     0.049 A 
HETATM   10  C10 UNL     1      22.439   2.148  49.127  1.00  0.00     0.084 C 
HETATM   11  C11 UNL     1      22.701   3.583  48.751  1.00  0.00     0.015 A 
HETATM   12  C12 UNL     1      22.433   4.182  47.529  1.00  0.00     0.042 A 
HETATM   13  C13 UNL     1      21.818   3.420  46.421  1.00  0.00     0.071 C 
HETATM   14  N1  UNL     1      22.786   5.479  47.484  1.00  0.00    -0.246 NA
HETATM   15  C14 UNL     1      23.345   6.103  48.551  1.00  0.00     0.235 A 
HETATM   16  N2  UNL     1      23.578   5.469  49.709  1.00  0.00    -0.224 NA
HETATM   17  C15 UNL     1      23.273   4.178  49.880  1.00  0.00     0.136 A 
HETATM   18  N3  UNL     1      23.376   3.209  50.908  1.00  0.00    -0.348 N 
ENDROOT
BRANCH  18  19
HETATM   19  C16 UNL     1      24.298   3.145  51.965  1.00  0.00     0.132 C 
BRANCH  19  20
HETATM   20  C17 UNL     1      25.495   2.276  51.823  1.00  0.00     0.028 C 
HETATM   21  C18 UNL     1      26.401   2.931  50.808  1.00  0.00     0.013 C 
BRANCH  20  22
HETATM   22  C19 UNL     1      26.234   2.112  53.128  1.00  0.00     0.281 C 
BRANCH  22  23
HETATM   23  N4  UNL     1      27.551   1.559  52.999  1.00  0.00     0.122 N 
HETATM   24  C20 UNL     1      27.447   0.093  52.879  1.00  0.00     0.279 C 
HETATM   25  C21 UNL     1      28.800   0.022  53.553  1.00  0.00     0.098 C 
HETATM   26  C22 UNL     1      28.305   1.328  54.197  1.00  0.00     0.453 C 
BRANCH  26  27
HETATM   27  N5  UNL     1      29.460   2.166  54.425  1.00  0.00     0.112 N 
HETATM   28  H30 UNL     1      30.046   2.147  53.560  1.00  0.00     0.315 HD
HETATM   29  H31 UNL     1      29.152   3.098  54.734  1.00  0.00     0.315 HD
ENDBRANCH  26  27
ENDBRANCH  22  23
ENDBRANCH  20  22
ENDBRANCH  19  20
ENDBRANCH  18  19
BRANCH   1  30
HETATM   30  O1  UNL     1      22.432  -0.879  52.680  1.00  0.00    -0.357 OA
HETATM   31  C1  UNL     1      23.726  -0.982  53.276  1.00  0.00     0.209 C 
ENDBRANCH   1  30
TORSDOF 6
ENDMDL
MODEL 6
REMARK VINA RESULT:      -7.2      8.072     11.075
REMARK  6 active torsions:
REMARK  status: ('A' for Active; 'I' for Inactive)
REMARK    1  A    between atoms: O1_2  and  C2_3 
REMARK    2  A    between atoms: N3_20  and  C16_21 
REMARK    3  A    between atoms: C16_21  and  C17_22 
REMARK    4  A    between atoms: C17_22  and  C19_24 
REMARK    5  A    between atoms: C19_24  and  N4_25 
REMARK    6  A    between atoms: C22_28  and  N5_29 
ROOT
HETATM    1  C2  UNL     1      32.981   6.319  47.123  1.00  0.00     0.080 C 
HETATM    2  C3  UNL     1      31.720   5.989  46.956  1.00  0.00     0.044 C 
HETATM    3  C4  UNL     1      30.528   6.405  47.677  1.00  0.00     0.078 C 
HETATM    4  C5  UNL     1      30.772   6.900  49.060  1.00  0.00     0.033 C 
HETATM    5  C6  UNL     1      31.757   7.600  49.633  1.00  0.00     0.135 C 
HETATM    6  O2  UNL     1      32.845   8.009  48.850  1.00  0.00    -0.345 OA
HETATM    7  C7  UNL     1      33.666   7.198  48.057  1.00  0.00     0.115 A 
HETATM    8  C8  UNL     1      35.055   7.651  47.769  1.00  0.00     0.049 A 
HETATM    9  C9  UNL     1      34.854   6.529  48.809  1.00  0.00     0.049 A 
HETATM   10  C10 UNL     1      29.501   5.291  47.813  1.00  0.00     0.084 C 
HETATM   11  C11 UNL     1      28.241   6.055  48.121  1.00  0.00     0.015 A 
HETATM   12  C12 UNL     1      27.115   5.569  48.769  1.00  0.00     0.042 A 
HETATM   13  C13 UNL     1      27.051   4.174  49.254  1.00  0.00     0.071 C 
HETATM   14  N1  UNL     1      26.137   6.484  48.894  1.00  0.00    -0.246 NA
HETATM   15  C14 UNL     1      26.278   7.748  48.421  1.00  0.00     0.235 A 
HETATM   16  N2  UNL     1      27.395   8.159  47.803  1.00  0.00    -0.224 NA
HETATM   17  C15 UNL     1      28.439   7.344  47.616  1.00  0.00     0.136 A 
HETATM   18  N3  UNL     1      29.725   7.414  47.026  1.00  0.00    -0.348 N 
ENDROOT
BRANCH  18  19
HETATM   19  C16 UNL     1      30.168   8.242  45.983  1.00  0.00     0.132 C 
BRANCH  19  20
HETATM   20  C17 UNL     1      30.743   9.571  46.314  1.00  0.00     0.028 C 
HETATM   21  C18 UNL     1      31.870   9.822  45.341  1.00  0.00     0.013 C 
BRANCH  20  22
HETATM   22  C19 UNL     1      29.722  10.675  46.200  1.00  0.00     0.281 C 
BRANCH  22  23
HETATM   23  N4  UNL     1      29.418  11.333  47.437  1.00  0.00     0.122 N 
HETATM   24  C20 UNL     1      30.291  12.512  47.581  1.00  0.00     0.279 C 
HETATM   25  C21 UNL     1      30.204  12.296  49.076  1.00  0.00     0.098 C 
HETATM   26  C22 UNL     1      30.030  10.833  48.634  1.00  0.00     0.453 C 
BRANCH  26  27
HETATM   27  N5  UNL     1      29.169  10.186  49.598  1.00  0.00     0.112 N 
HETATM   28  H30 UNL     1      29.195   9.159  49.413  1.00  0.00     0.315 HD
HETATM   29  H31 UNL     1      29.442  10.475  50.547  1.00  0.00     0.315 HD
ENDBRANCH  26  27
ENDBRANCH  22  23
ENDBRANCH  20  22
ENDBRANCH  19  20
ENDBRANCH  18  19
BRANCH   1  30
HETATM   30  O1  UNL     1      33.869   5.705  46.219  1.00  0.00    -0.357 OA
HETATM   31  C1  UNL     1      33.516   4.393  45.774  1.00  0.00     0.209 C 
ENDBRANCH   1  30
TORSDOF 6
ENDMDL
MODEL 7
REMARK VINA RESULT:      -6.8      8.492     11.613
REMARK  6 active torsions:
REMARK  status: ('A' for Active; 'I' for Inactive)
REMARK    1  A    between atoms: O1_2  and  C2_3 
REMARK    2  A    between atoms: N3_20  and  C16_21 
REMARK    3  A    between atoms: C16_21  and  C17_22 
REMARK    4  A    between atoms: C17_22  and  C19_24 
REMARK    5  A    between atoms: C19_24  and  N4_25 
REMARK    6  A    between atoms: C22_28  and  N5_29 
ROOT
HETATM    1  C2  UNL     1      32.507   7.724  46.700  1.00  0.00     0.080 C 
HETATM    2  C3  UNL     1      31.194   7.668  46.688  1.00  0.00     0.044 C 
HETATM    3  C4  UNL     1      30.232   7.735  47.776  1.00  0.00     0.078 C 
HETATM    4  C5  UNL     1      30.770   7.359  49.113  1.00  0.00     0.033 C 
HETATM    5  C6  UNL     1      31.952   7.525  49.716  1.00  0.00     0.135 C 
HETATM    6  O2  UNL     1      32.978   8.186  49.028  1.00  0.00    -0.345 OA
HETATM    7  C7  UNL     1      33.489   7.869  47.764  1.00  0.00     0.115 A 
HETATM    8  C8  UNL     1      34.886   8.264  47.436  1.00  0.00     0.049 A 
HETATM    9  C9  UNL     1      34.603   6.782  47.756  1.00  0.00     0.049 A 
HETATM   10  C10 UNL     1      29.023   6.840  47.551  1.00  0.00     0.084 C 
HETATM   11  C11 UNL     1      28.010   7.429  48.496  1.00  0.00     0.015 A 
HETATM   12  C12 UNL     1      26.910   6.782  49.041  1.00  0.00     0.042 A 
HETATM   13  C13 UNL     1      26.623   5.365  48.731  1.00  0.00     0.071 C 
HETATM   14  N1  UNL     1      26.176   7.569  49.848  1.00  0.00    -0.246 NA
HETATM   15  C14 UNL     1      26.513   8.862  50.081  1.00  0.00     0.235 A 
HETATM   16  N2  UNL     1      27.592   9.432  49.524  1.00  0.00    -0.224 NA
HETATM   17  C15 UNL     1      28.402   8.755  48.703  1.00  0.00     0.136 A 
HETATM   18  N3  UNL     1      29.576   9.010  47.952  1.00  0.00    -0.348 N 
ENDROOT
BRANCH  18  19
HETATM   19  C16 UNL     1      30.031  10.227  47.420  1.00  0.00     0.132 C 
BRANCH  19  20
HETATM   20  C17 UNL     1      30.901  11.096  48.253  1.00  0.00     0.028 C 
HETATM   21  C18 UNL     1      32.124  11.419  47.430  1.00  0.00     0.013 C 
BRANCH  20  22
HETATM   22  C19 UNL     1      30.208  12.375  48.652  1.00  0.00     0.281 C 
BRANCH  22  23
HETATM   23  N4  UNL     1      29.101  12.738  47.816  1.00  0.00     0.122 N 
HETATM   24  C20 UNL     1      29.246  14.149  47.414  1.00  0.00     0.279 C 
HETATM   25  C21 UNL     1      27.734  14.207  47.365  1.00  0.00     0.098 C 
HETATM   26  C22 UNL     1      27.876  13.126  48.451  1.00  0.00     0.453 C 
BRANCH  26  27
HETATM   27  N5  UNL     1      26.750  12.230  48.324  1.00  0.00     0.112 N 
HETATM   28  H30 UNL     1      26.935  11.594  47.516  1.00  0.00     0.315 HD
HETATM   29  H31 UNL     1      26.577  11.767  49.226  1.00  0.00     0.315 HD
ENDBRANCH  26  27
ENDBRANCH  22  23
ENDBRANCH  20  22
ENDBRANCH  19  20
ENDBRANCH  18  19
BRANCH   1  30
HETATM   30  O1  UNL     1      33.106   7.625  45.431  1.00  0.00    -0.357 OA
HETATM   31  C1  UNL     1      32.498   8.378  44.379  1.00  0.00     0.209 C 
ENDBRANCH   1  30
TORSDOF 6
ENDMDL
MODEL 8
REMARK VINA RESULT:      -6.7      2.221      5.849
REMARK  6 active torsions:
REMARK  status: ('A' for Active; 'I' for Inactive)
REMARK    1  A    between atoms: O1_2  and  C2_3 
REMARK    2  A    between atoms: N3_20  and  C16_21 
REMARK    3  A    between atoms: C16_21  and  C17_22 
REMARK    4  A    between atoms: C17_22  and  C19_24 
REMARK    5  A    between atoms: C19_24  and  N4_25 
REMARK    6  A    between atoms: C22_28  and  N5_29 
ROOT
HETATM    1  C2  UNL     1      22.977   4.527  49.924  1.00  0.00     0.080 C 
HETATM    2  C3  UNL     1      23.695   3.445  50.127  1.00  0.00     0.044 C 
HETATM    3  C4  UNL     1      24.045   2.757  51.360  1.00  0.00     0.078 C 
HETATM    4  C5  UNL     1      23.989   3.600  52.586  1.00  0.00     0.033 C 
HETATM    5  C6  UNL     1      23.198   4.600  52.988  1.00  0.00     0.135 C 
HETATM    6  O2  UNL     1      22.161   5.025  52.147  1.00  0.00    -0.345 OA
HETATM    7  C7  UNL     1      22.270   5.436  50.813  1.00  0.00     0.115 A 
HETATM    8  C8  UNL     1      21.245   6.364  50.262  1.00  0.00     0.049 A 
HETATM    9  C9  UNL     1      22.634   6.936  50.612  1.00  0.00     0.049 A 
HETATM   10  C10 UNL     1      25.446   2.165  51.328  1.00  0.00     0.084 C 
HETATM   11  C11 UNL     1      25.384   1.143  52.433  1.00  0.00     0.015 A 
HETATM   12  C12 UNL     1      26.456   0.627  53.145  1.00  0.00     0.042 A 
HETATM   13  C13 UNL     1      27.841   1.070  52.874  1.00  0.00     0.071 C 
HETATM   14  N1  UNL     1      26.094  -0.281  54.069  1.00  0.00    -0.246 NA
HETATM   15  C14 UNL     1      24.797  -0.629  54.255  1.00  0.00     0.235 A 
HETATM   16  N2  UNL     1      23.802  -0.093  53.533  1.00  0.00    -0.224 NA
HETATM   17  C15 UNL     1      24.032   0.821  52.584  1.00  0.00     0.136 A 
HETATM   18  N3  UNL     1      23.273   1.571  51.652  1.00  0.00    -0.348 N 
ENDROOT
BRANCH  18  19
HETATM   19  C16 UNL     1      22.040   1.250  51.063  1.00  0.00     0.132 C 
BRANCH  19  20
HETATM   20  C17 UNL     1      20.915   0.824  51.935  1.00  0.00     0.028 C 
HETATM   21  C18 UNL     1      20.500   2.029  52.744  1.00  0.00     0.013 C 
BRANCH  20  22
HETATM   22  C19 UNL     1      19.738   0.321  51.138  1.00  0.00     0.281 C 
BRANCH  22  23
HETATM   23  N4  UNL     1      18.765   1.324  50.818  1.00  0.00     0.122 N 
HETATM   24  C20 UNL     1      17.533   0.665  50.348  1.00  0.00     0.279 C 
HETATM   25  C21 UNL     1      17.296   1.892  49.495  1.00  0.00     0.098 C 
HETATM   26  C22 UNL     1      18.834   1.940  49.525  1.00  0.00     0.453 C 
BRANCH  26  27
HETATM   27  N5  UNL     1      19.227   3.330  49.473  1.00  0.00     0.112 N 
HETATM   28  H30 UNL     1      20.266   3.375  49.571  1.00  0.00     0.315 HD
HETATM   29  H31 UNL     1      18.840   3.763  48.623  1.00  0.00     0.315 HD
ENDBRANCH  26  27
ENDBRANCH  22  23
ENDBRANCH  20  22
ENDBRANCH  19  20
ENDBRANCH  18  19
BRANCH   1  30
HETATM   30  O1  UNL     1      22.855   4.899  48.572  1.00  0.00    -0.357 OA
HETATM   31  C1  UNL     1      22.334   3.908  47.684  1.00  0.00     0.209 C 
ENDBRANCH   1  30
TORSDOF 6
ENDMDL
MODEL 9
REMARK VINA RESULT:      -6.7      3.033      4.673
REMARK  6 active torsions:
REMARK  status: ('A' for Active; 'I' for Inactive)
REMARK    1  A    between atoms: O1_2  and  C2_3 
REMARK    2  A    between atoms: N3_20  and  C16_21 
REMARK    3  A    between atoms: C16_21  and  C17_22 
REMARK    4  A    between atoms: C17_22  and  C19_24 
REMARK    5  A    between atoms: C19_24  and  N4_25 
REMARK    6  A    between atoms: C22_28  and  N5_29 
ROOT
HETATM    1  C2  UNL     1      20.626   4.269  48.785  1.00  0.00     0.080 C 
HETATM    2  C3  UNL     1      21.047   3.856  49.959  1.00  0.00     0.044 C 
HETATM    3  C4  UNL     1      22.032   2.845  50.311  1.00  0.00     0.078 C 
HETATM    4  C5  UNL     1      22.277   1.816  49.263  1.00  0.00     0.033 C 
HETATM    5  C6  UNL     1      22.306   1.844  47.926  1.00  0.00     0.135 C 
HETATM    6  O2  UNL     1      22.070   3.058  47.266  1.00  0.00    -0.345 OA
HETATM    7  C7  UNL     1      20.961   3.899  47.418  1.00  0.00     0.115 A 
HETATM    8  C8  UNL     1      20.583   4.797  46.292  1.00  0.00     0.049 A 
HETATM    9  C9  UNL     1      19.731   3.535  46.537  1.00  0.00     0.049 A 
HETATM   10  C10 UNL     1      21.662   2.073  51.568  1.00  0.00     0.084 C 
HETATM   11  C11 UNL     1      22.985   1.484  51.981  1.00  0.00     0.015 A 
HETATM   12  C12 UNL     1      23.182   0.360  52.768  1.00  0.00     0.042 A 
HETATM   13  C13 UNL     1      22.039  -0.416  53.297  1.00  0.00     0.071 C 
HETATM   14  N1  UNL     1      24.480   0.078  52.979  1.00  0.00    -0.246 NA
HETATM   15  C14 UNL     1      25.470   0.843  52.453  1.00  0.00     0.235 A 
HETATM   16  N2  UNL     1      25.215   1.921  51.697  1.00  0.00    -0.224 NA
HETATM   17  C15 UNL     1      23.965   2.306  51.415  1.00  0.00     0.136 A 
HETATM   18  N3  UNL     1      23.332   3.346  50.692  1.00  0.00    -0.348 N 
ENDROOT
BRANCH  18  19
HETATM   19  C16 UNL     1      23.806   4.638  50.417  1.00  0.00     0.132 C 
BRANCH  19  20
HETATM   20  C17 UNL     1      24.650   4.854  49.214  1.00  0.00     0.028 C 
HETATM   21  C18 UNL     1      23.979   5.922  48.385  1.00  0.00     0.013 C 
BRANCH  20  22
HETATM   22  C19 UNL     1      26.047   5.296  49.572  1.00  0.00     0.281 C 
BRANCH  22  23
HETATM   23  N4  UNL     1      26.821   5.774  48.464  1.00  0.00     0.122 N 
HETATM   24  C20 UNL     1      28.159   5.157  48.511  1.00  0.00     0.279 C 
HETATM   25  C21 UNL     1      28.677   6.417  47.851  1.00  0.00     0.098 C 
HETATM   26  C22 UNL     1      27.486   7.037  48.602  1.00  0.00     0.453 C 
BRANCH  26  27
HETATM   27  N5  UNL     1      26.994   8.137  47.804  1.00  0.00     0.112 N 
HETATM   28  H30 UNL     1      25.993   7.944  47.574  1.00  0.00     0.315 HD
HETATM   29  H31 UNL     1      27.177   9.023  48.293  1.00  0.00     0.315 HD
ENDBRANCH  26  27
ENDBRANCH  22  23
ENDBRANCH  20  22
ENDBRANCH  19  20
ENDBRANCH  18  19
BRANCH   1  30
HETATM   30  O1  UNL     1      19.648   5.280  48.840  1.00  0.00    -0.357 OA
HETATM   31  C1  UNL     1      18.583   5.084  49.772  1.00  0.00     0.209 C 
ENDBRANCH   1  30
TORSDOF 6
ENDMDL
