MODEL 1
REMARK VINA RESULT:      -8.3      0.000      0.000
REMARK  8 active torsions:
REMARK  status: ('A' for Active; 'I' for Inactive)
REMARK    1  A    between atoms: C2_2  and  N1_3 
REMARK    2  A    between atoms: N1_3  and  C3_4 
REMARK    3  A    between atoms: N1_3  and  C5_6 
REMARK    4  A    between atoms: C5_6  and  C6_7 
REMARK    5  A    between atoms: C7_8  and  C8_9 
REMARK       I    between atoms: C8_9  and  N2_11 
REMARK    6  A    between atoms: N2_11  and  C9_12 
REMARK    7  A    between atoms: C14_19  and  N5_20 
REMARK    8  A    between atoms: N5_20  and  C15_21 
ROOT
HETATM    1  C9  UNL     1      26.064   3.671  49.980  1.00  0.00     0.036 A 
HETATM    2  C10 UNL     1      24.947   3.713  49.142  1.00  0.00     0.032 A 
HETATM    3  C11 UNL     1      23.735   3.120  49.507  1.00  0.00     0.035 A 
HETATM    4  C12 UNL     1      23.648   2.480  50.725  1.00  0.00     0.072 A 
HETATM    5  N3  UNL     1      22.542   1.867  51.207  1.00  0.00    -0.241 NA
HETATM    6  C13 UNL     1      22.507   1.262  52.396  1.00  0.00     0.236 A 
HETATM    7  N4  UNL     1      23.615   1.246  53.171  1.00  0.00    -0.224 NA
HETATM    8  C14 UNL     1      24.751   1.836  52.755  1.00  0.00     0.141 A 
HETATM    9  C20 UNL     1      24.768   2.458  51.527  1.00  0.00     0.041 A 
HETATM   10  C21 UNL     1      25.975   3.030  51.198  1.00  0.00     0.047 A 
ENDROOT
BRANCH   1  11
HETATM   11  N2  UNL     1      27.160   4.351  49.350  1.00  0.00    -0.316 N 
HETATM   12  C8  UNL     1      27.325   5.599  48.680  1.00  0.00     0.301 C 
HETATM   13  O1  UNL     1      26.465   6.466  48.467  1.00  0.00    -0.258 OA
HETATM   14  H13 UNL     1      27.930   3.666  49.490  1.00  0.00     0.170 HD
BRANCH  12  15
HETATM   15  C7  UNL     1      28.684   5.834  48.212  1.00  0.00    -0.004 C 
HETATM   16  C6  UNL     1      29.816   6.050  47.812  1.00  0.00    -0.077 C 
BRANCH  16  17
HETATM   17  C5  UNL     1      31.161   6.326  47.319  1.00  0.00     0.212 C 
BRANCH  17  18
HETATM   18  N1  UNL     1      32.035   5.297  47.733  1.00  0.00    -0.403 N 
BRANCH  18  19
HETATM   19  C2  UNL     1      32.611   4.461  46.748  1.00  0.00     0.113 C 
HETATM   20  C1  UNL     1      31.976   3.115  46.592  1.00  0.00     0.026 C 
ENDBRANCH  18  19
BRANCH  18  21
HETATM   21  C3  UNL     1      32.949   5.691  48.784  1.00  0.00     0.113 C 
HETATM   22  C4  UNL     1      34.359   5.368  48.415  1.00  0.00     0.026 C 
ENDBRANCH  18  21
ENDBRANCH  17  18
ENDBRANCH  16  17
ENDBRANCH  12  15
ENDBRANCH   1  11
BRANCH   8  23
HETATM   23  N5  UNL     1      25.872   1.739  53.659  1.00  0.00    -0.342 N 
HETATM   24  H17 UNL     1      26.271   2.289  54.465  1.00  0.00     0.167 HD
BRANCH  23  25
HETATM   25  C15 UNL     1      26.618   0.548  53.324  1.00  0.00     0.036 A 
HETATM   26  C16 UNL     1      26.129  -0.588  52.810  1.00  0.00     0.068 A 
HETATM   27  C17 UNL     1      27.113  -1.634  52.567  1.00  0.00     0.116 A 
HETATM   28  F1  UNL     1      26.797  -2.844  52.052  1.00  0.00    -0.206 F 
HETATM   29  C18 UNL     1      28.240  -1.067  52.965  1.00  0.00     0.041 A 
HETATM   30  C19 UNL     1      28.058   0.309  53.464  1.00  0.00     0.158 A 
HETATM   31 CL1  UNL     1      28.563   0.298  55.184  1.00  0.00    -0.114 Cl
ENDBRANCH  23  25
ENDBRANCH   8  23
TORSDOF 8
ENDMDL
MODEL 2
REMARK VINA RESULT:      -8.1      2.763      3.262
REMARK  8 active torsions:
REMARK  status: ('A' for Active; 'I' for Inactive)
REMARK    1  A    between atoms: C2_2  and  N1_3 
REMARK    2  A    between atoms: N1_3  and  C3_4 
REMARK    3  A    between atoms: N1_3  and  C5_6 
REMARK    4  A    between atoms: C5_6  and  C6_7 
REMARK    5  A    between atoms: C7_8  and  C8_9 
REMARK       I    between atoms: C8_9  and  N2_11 
REMARK    6  A    between atoms: N2_11  and  C9_12 
REMARK    7  A    between atoms: C14_19  and  N5_20 
REMARK    8  A    between atoms: N5_20  and  C15_21 
ROOT
HETATM    1  C9  UNL     1      25.461   4.278  50.475  1.00  0.00     0.036 A 
HETATM    2  C10 UNL     1      24.199   4.751  50.846  1.00  0.00     0.032 A 
HETATM    3  C11 UNL     1      23.335   3.986  51.636  1.00  0.00     0.035 A 
HETATM    4  C12 UNL     1      23.745   2.738  52.054  1.00  0.00     0.072 A 
HETATM    5  N3  UNL     1      23.017   1.895  52.821  1.00  0.00    -0.241 NA
HETATM    6  C13 UNL     1      23.459   0.695  53.202  1.00  0.00     0.236 A 
HETATM    7  N4  UNL     1      24.686   0.281  52.816  1.00  0.00    -0.224 NA
HETATM    8  C14 UNL     1      25.466   1.068  52.052  1.00  0.00     0.141 A 
HETATM    9  C20 UNL     1      24.995   2.304  51.670  1.00  0.00     0.041 A 
HETATM   10  C21 UNL     1      25.869   3.029  50.894  1.00  0.00     0.047 A 
ENDROOT
BRANCH   1  11
HETATM   11  N2  UNL     1      26.121   5.264  49.667  1.00  0.00    -0.316 N 
HETATM   12  C8  UNL     1      27.265   5.276  48.817  1.00  0.00     0.301 C 
HETATM   13  O1  UNL     1      28.030   4.334  48.562  1.00  0.00    -0.258 OA
HETATM   14  H13 UNL     1      25.523   6.099  49.840  1.00  0.00     0.170 HD
BRANCH  12  15
HETATM   15  C7  UNL     1      27.521   6.570  48.200  1.00  0.00    -0.004 C 
HETATM   16  C6  UNL     1      27.754   7.646  47.675  1.00  0.00    -0.077 C 
BRANCH  16  17
HETATM   17  C5  UNL     1      28.056   8.927  47.047  1.00  0.00     0.212 C 
BRANCH  17  18
HETATM   18  N1  UNL     1      29.350   9.345  47.427  1.00  0.00    -0.403 N 
BRANCH  18  19
HETATM   19  C2  UNL     1      30.320   9.550  46.419  1.00  0.00     0.113 C 
HETATM   20  C1  UNL     1      31.153   8.356  46.074  1.00  0.00     0.026 C 
ENDBRANCH  18  19
BRANCH  18  21
HETATM   21  C3  UNL     1      29.358  10.351  48.469  1.00  0.00     0.113 C 
HETATM   22  C4  UNL     1      30.646  10.328  49.224  1.00  0.00     0.026 C 
ENDBRANCH  18  21
ENDBRANCH  17  18
ENDBRANCH  16  17
ENDBRANCH  12  15
ENDBRANCH   1  11
BRANCH   8  23
HETATM   23  N5  UNL     1      26.748   0.513  51.688  1.00  0.00    -0.342 N 
HETATM   24  H17 UNL     1      27.193   0.078  50.838  1.00  0.00     0.167 HD
BRANCH  23  25
HETATM   25  C15 UNL     1      27.620   0.604  52.837  1.00  0.00     0.036 A 
HETATM   26  C16 UNL     1      28.332   1.670  53.222  1.00  0.00     0.068 A 
HETATM   27  C17 UNL     1      29.129   1.482  54.427  1.00  0.00     0.116 A 
HETATM   28  F1  UNL     1      29.909   2.451  54.959  1.00  0.00    -0.206 F 
HETATM   29  C18 UNL     1      28.859   0.230  54.757  1.00  0.00     0.041 A 
HETATM   30  C19 UNL     1      27.921  -0.431  53.831  1.00  0.00     0.158 A 
HETATM   31 CL1  UNL     1      28.807  -1.809  53.105  1.00  0.00    -0.114 Cl
ENDBRANCH  23  25
ENDBRANCH   8  23
TORSDOF 8
ENDMDL
MODEL 3
REMARK VINA RESULT:      -8.0      3.573      4.469
REMARK  8 active torsions:
REMARK  status: ('A' for Active; 'I' for Inactive)
REMARK    1  A    between atoms: C2_2  and  N1_3 
REMARK    2  A    between atoms: N1_3  and  C3_4 
REMARK    3  A    between atoms: N1_3  and  C5_6 
REMARK    4  A    between atoms: C5_6  and  C6_7 
REMARK    5  A    between atoms: C7_8  and  C8_9 
REMARK       I    between atoms: C8_9  and  N2_11 
REMARK    6  A    between atoms: N2_11  and  C9_12 
REMARK    7  A    between atoms: C14_19  and  N5_20 
REMARK    8  A    between atoms: N5_20  and  C15_21 
ROOT
HETATM    1  C9  UNL     1      24.950   3.733  50.863  1.00  0.00     0.036 A 
HETATM    2  C10 UNL     1      23.668   4.049  51.323  1.00  0.00     0.032 A 
HETATM    3  C11 UNL     1      22.942   3.167  52.129  1.00  0.00     0.035 A 
HETATM    4  C12 UNL     1      23.511   1.959  52.474  1.00  0.00     0.072 A 
HETATM    5  N3  UNL     1      22.927   1.014  53.246  1.00  0.00    -0.241 NA
HETATM    6  C13 UNL     1      23.521  -0.141  53.554  1.00  0.00     0.236 A 
HETATM    7  N4  UNL     1      24.761  -0.401  53.084  1.00  0.00    -0.224 NA
HETATM    8  C14 UNL     1      25.402   0.494  52.309  1.00  0.00     0.141 A 
HETATM    9  C20 UNL     1      24.776   1.681  52.003  1.00  0.00     0.041 A 
HETATM   10  C21 UNL     1      25.516   2.525  51.209  1.00  0.00     0.047 A 
ENDROOT
BRANCH   1  11
HETATM   11  N2  UNL     1      25.448   4.814  50.060  1.00  0.00    -0.316 N 
HETATM   12  C8  UNL     1      26.559   4.997  49.187  1.00  0.00     0.301 C 
HETATM   13  O1  UNL     1      27.441   4.175  48.899  1.00  0.00    -0.258 OA
HETATM   14  H13 UNL     1      24.744   5.554  50.260  1.00  0.00     0.170 HD
BRANCH  12  15
HETATM   15  C7  UNL     1      26.619   6.323  48.587  1.00  0.00    -0.004 C 
HETATM   16  C6  UNL     1      26.665   7.425  48.066  1.00  0.00    -0.077 C 
BRANCH  16  17
HETATM   17  C5  UNL     1      26.723   8.732  47.420  1.00  0.00     0.212 C 
BRANCH  17  18
HETATM   18  N1  UNL     1      26.758   9.742  48.406  1.00  0.00    -0.403 N 
BRANCH  18  19
HETATM   19  C2  UNL     1      28.010  10.121  48.943  1.00  0.00     0.113 C 
HETATM   20  C1  UNL     1      28.384  11.558  48.758  1.00  0.00     0.026 C 
ENDBRANCH  18  19
BRANCH  18  21
HETATM   21  C3  UNL     1      25.869  10.853  48.139  1.00  0.00     0.113 C 
HETATM   22  C4  UNL     1      24.506  10.369  47.766  1.00  0.00     0.026 C 
ENDBRANCH  18  21
ENDBRANCH  17  18
ENDBRANCH  16  17
ENDBRANCH  12  15
ENDBRANCH   1  11
BRANCH   8  23
HETATM   23  N5  UNL     1      26.713   0.098  51.852  1.00  0.00    -0.342 N 
HETATM   24  H17 UNL     1      27.146  -0.290  50.973  1.00  0.00     0.167 HD
BRANCH  23  25
HETATM   25  C15 UNL     1      27.649   0.314  52.931  1.00  0.00     0.036 A 
HETATM   26  C16 UNL     1      28.264   1.462  53.244  1.00  0.00     0.068 A 
HETATM   27  C17 UNL     1      29.161   1.394  54.390  1.00  0.00     0.116 A 
HETATM   28  F1  UNL     1      29.863   2.456  54.846  1.00  0.00    -0.206 F 
HETATM   29  C18 UNL     1      29.058   0.128  54.761  1.00  0.00     0.041 A 
HETATM   30  C19 UNL     1      28.135  -0.656  53.919  1.00  0.00     0.158 A 
HETATM   31 CL1  UNL     1      29.115  -1.945  53.153  1.00  0.00    -0.114 Cl
ENDBRANCH  23  25
ENDBRANCH   8  23
TORSDOF 8
ENDMDL
MODEL 4
REMARK VINA RESULT:      -7.9      3.137      4.978
REMARK  8 active torsions:
REMARK  status: ('A' for Active; 'I' for Inactive)
REMARK    1  A    between atoms: C2_2  and  N1_3 
REMARK    2  A    between atoms: N1_3  and  C3_4 
REMARK    3  A    between atoms: N1_3  and  C5_6 
REMARK    4  A    between atoms: C5_6  and  C6_7 
REMARK    5  A    between atoms: C7_8  and  C8_9 
REMARK       I    between atoms: C8_9  and  N2_11 
REMARK    6  A    between atoms: N2_11  and  C9_12 
REMARK    7  A    between atoms: C14_19  and  N5_20 
REMARK    8  A    between atoms: N5_20  and  C15_21 
ROOT
HETATM    1  C9  UNL     1      25.903   2.546  51.139  1.00  0.00     0.036 A 
HETATM    2  C10 UNL     1      26.806   1.543  51.501  1.00  0.00     0.032 A 
HETATM    3  C11 UNL     1      26.420   0.469  52.309  1.00  0.00     0.035 A 
HETATM    4  C12 UNL     1      25.117   0.406  52.754  1.00  0.00     0.072 A 
HETATM    5  N3  UNL     1      24.607  -0.573  53.536  1.00  0.00    -0.241 NA
HETATM    6  C13 UNL     1      23.335  -0.591  53.941  1.00  0.00     0.236 A 
HETATM    7  N4  UNL     1      22.500   0.403  53.565  1.00  0.00    -0.224 NA
HETATM    8  C14 UNL     1      22.939   1.410  52.787  1.00  0.00     0.141 A 
HETATM    9  C20 UNL     1      24.254   1.411  52.378  1.00  0.00     0.041 A 
HETATM   10  C21 UNL     1      24.600   2.481  51.586  1.00  0.00     0.047 A 
ENDROOT
BRANCH   1  11
HETATM   11  N2  UNL     1      26.571   3.515  50.317  1.00  0.00    -0.316 N 
HETATM   12  C8  UNL     1      26.157   4.504  49.377  1.00  0.00     0.301 C 
HETATM   13  O1  UNL     1      25.001   4.773  49.019  1.00  0.00    -0.258 OA
HETATM   14  H13 UNL     1      27.566   3.340  50.568  1.00  0.00     0.170 HD
BRANCH  12  15
HETATM   15  C7  UNL     1      27.260   5.259  48.799  1.00  0.00    -0.004 C 
HETATM   16  C6  UNL     1      28.171   5.908  48.312  1.00  0.00    -0.077 C 
BRANCH  16  17
HETATM   17  C5  UNL     1      29.243   6.699  47.719  1.00  0.00     0.212 C 
BRANCH  17  18
HETATM   18  N1  UNL     1      29.652   7.696  48.631  1.00  0.00    -0.403 N 
BRANCH  18  19
HETATM   19  C2  UNL     1      31.031   7.827  48.917  1.00  0.00     0.113 C 
HETATM   20  C1  UNL     1      31.688   6.614  49.495  1.00  0.00     0.026 C 
ENDBRANCH  18  19
BRANCH  18  21
HETATM   21  C3  UNL     1      28.958   8.957  48.472  1.00  0.00     0.113 C 
HETATM   22  C4  UNL     1      28.222   9.323  49.719  1.00  0.00     0.026 C 
ENDBRANCH  18  21
ENDBRANCH  17  18
ENDBRANCH  16  17
ENDBRANCH  12  15
ENDBRANCH   1  11
BRANCH   8  23
HETATM   23  N5  UNL     1      21.963   2.423  52.466  1.00  0.00    -0.342 N 
HETATM   24  H17 UNL     1      21.806   3.444  52.671  1.00  0.00     0.167 HD
BRANCH  23  25
HETATM   25  C15 UNL     1      20.946   1.820  51.634  1.00  0.00     0.036 A 
HETATM   26  C16 UNL     1      20.013   0.940  52.018  1.00  0.00     0.068 A 
HETATM   27  C17 UNL     1      19.109   0.495  50.966  1.00  0.00     0.116 A 
HETATM   28  F1  UNL     1      18.108  -0.390  51.173  1.00  0.00    -0.206 F 
HETATM   29  C18 UNL     1      19.550   1.158  49.909  1.00  0.00     0.041 A 
HETATM   30  C19 UNL     1      20.705   2.026  50.202  1.00  0.00     0.158 A 
HETATM   31 CL1  UNL     1      22.066   1.418  49.207  1.00  0.00    -0.114 Cl
ENDBRANCH  23  25
ENDBRANCH   8  23
TORSDOF 8
ENDMDL
MODEL 5
REMARK VINA RESULT:      -7.9      3.034      4.576
REMARK  8 active torsions:
REMARK  status: ('A' for Active; 'I' for Inactive)
REMARK    1  A    between atoms: C2_2  and  N1_3 
REMARK    2  A    between atoms: N1_3  and  C3_4 
REMARK    3  A    between atoms: N1_3  and  C5_6 
REMARK    4  A    between atoms: C5_6  and  C6_7 
REMARK    5  A    between atoms: C7_8  and  C8_9 
REMARK       I    between atoms: C8_9  and  N2_11 
REMARK    6  A    between atoms: N2_11  and  C9_12 
REMARK    7  A    between atoms: C14_19  and  N5_20 
REMARK    8  A    between atoms: N5_20  and  C15_21 
ROOT
HETATM    1  C9  UNL     1      26.021   2.395  51.201  1.00  0.00     0.036 A 
HETATM    2  C10 UNL     1      26.847   1.361  51.651  1.00  0.00     0.032 A 
HETATM    3  C11 UNL     1      26.362   0.344  52.477  1.00  0.00     0.035 A 
HETATM    4  C12 UNL     1      25.035   0.367  52.852  1.00  0.00     0.072 A 
HETATM    5  N3  UNL     1      24.431  -0.551  53.642  1.00  0.00    -0.241 NA
HETATM    6  C13 UNL     1      23.141  -0.485  53.975  1.00  0.00     0.236 A 
HETATM    7  N4  UNL     1      22.382   0.535  53.516  1.00  0.00    -0.224 NA
HETATM    8  C14 UNL     1      22.917   1.484  52.725  1.00  0.00     0.141 A 
HETATM    9  C20 UNL     1      24.249   1.400  52.390  1.00  0.00     0.041 A 
HETATM   10  C21 UNL     1      24.695   2.416  51.577  1.00  0.00     0.047 A 
ENDROOT
BRANCH   1  11
HETATM   11  N2  UNL     1      26.784   3.292  50.381  1.00  0.00    -0.316 N 
HETATM   12  C8  UNL     1      26.474   4.280  49.401  1.00  0.00     0.301 C 
HETATM   13  O1  UNL     1      25.353   4.618  48.993  1.00  0.00    -0.258 OA
HETATM   14  H13 UNL     1      27.755   3.056  50.673  1.00  0.00     0.170 HD
BRANCH  12  15
HETATM   15  C7  UNL     1      27.646   4.942  48.847  1.00  0.00    -0.004 C 
HETATM   16  C6  UNL     1      28.617   5.505  48.367  1.00  0.00    -0.077 C 
BRANCH  16  17
HETATM   17  C5  UNL     1      29.764   6.181  47.772  1.00  0.00     0.212 C 
BRANCH  17  18
HETATM   18  N1  UNL     1      30.953   5.534  48.175  1.00  0.00    -0.403 N 
BRANCH  18  19
HETATM   19  C2  UNL     1      31.876   5.132  47.182  1.00  0.00     0.113 C 
HETATM   20  C1  UNL     1      31.870   3.674  46.848  1.00  0.00     0.026 C 
ENDBRANCH  18  19
BRANCH  18  21
HETATM   21  C3  UNL     1      31.565   6.113  49.353  1.00  0.00     0.113 C 
HETATM   22  C4  UNL     1      31.516   7.604  49.302  1.00  0.00     0.026 C 
ENDBRANCH  18  21
ENDBRANCH  17  18
ENDBRANCH  16  17
ENDBRANCH  12  15
ENDBRANCH   1  11
BRANCH   8  23
HETATM   23  N5  UNL     1      22.015   2.533  52.311  1.00  0.00    -0.342 N 
HETATM   24  H17 UNL     1      21.622   3.424  52.713  1.00  0.00     0.167 HD
BRANCH  23  25
HETATM   25  C15 UNL     1      21.556   2.229  50.975  1.00  0.00     0.036 A 
HETATM   26  C16 UNL     1      21.385   3.094  49.968  1.00  0.00     0.068 A 
HETATM   27  C17 UNL     1      20.911   2.510  48.721  1.00  0.00     0.116 A 
HETATM   28  F1  UNL     1      20.683   3.234  47.602  1.00  0.00    -0.206 F 
HETATM   29  C18 UNL     1      20.800   1.228  49.028  1.00  0.00     0.041 A 
HETATM   30  C19 UNL     1      21.178   0.924  50.421  1.00  0.00     0.158 A 
HETATM   31 CL1  UNL     1      19.712   0.268  51.215  1.00  0.00    -0.114 Cl
ENDBRANCH  23  25
ENDBRANCH   8  23
TORSDOF 8
ENDMDL
MODEL 6
REMARK VINA RESULT:      -7.7      2.286      2.906
REMARK  8 active torsions:
REMARK  status: ('A' for Active; 'I' for Inactive)
REMARK    1  A    between atoms: C2_2  and  N1_3 
REMARK    2  A    between atoms: N1_3  and  C3_4 
REMARK    3  A    between atoms: N1_3  and  C5_6 
REMARK    4  A    between atoms: C5_6  and  C6_7 
REMARK    5  A    between atoms: C7_8  and  C8_9 
REMARK       I    between atoms: C8_9  and  N2_11 
REMARK    6  A    between atoms: N2_11  and  C9_12 
REMARK    7  A    between atoms: C14_19  and  N5_20 
REMARK    8  A    between atoms: N5_20  and  C15_21 
ROOT
HETATM    1  C9  UNL     1      25.102   5.102  49.500  1.00  0.00     0.036 A 
HETATM    2  C10 UNL     1      24.016   5.120  48.621  1.00  0.00     0.032 A 
HETATM    3  C11 UNL     1      22.809   4.488  48.935  1.00  0.00     0.035 A 
HETATM    4  C12 UNL     1      22.696   3.834  50.143  1.00  0.00     0.072 A 
HETATM    5  N3  UNL     1      21.592   3.184  50.578  1.00  0.00    -0.241 NA
HETATM    6  C13 UNL     1      21.531   2.566  51.759  1.00  0.00     0.236 A 
HETATM    7  N4  UNL     1      22.609   2.574  52.575  1.00  0.00    -0.224 NA
HETATM    8  C14 UNL     1      23.741   3.201  52.207  1.00  0.00     0.141 A 
HETATM    9  C20 UNL     1      23.786   3.836  50.986  1.00  0.00     0.041 A 
HETATM   10  C21 UNL     1      24.987   4.446  50.708  1.00  0.00     0.047 A 
ENDROOT
BRANCH   1  11
HETATM   11  N2  UNL     1      26.200   5.821  48.917  1.00  0.00    -0.316 N 
HETATM   12  C8  UNL     1      27.528   5.491  48.519  1.00  0.00     0.301 C 
HETATM   13  O1  UNL     1      28.093   4.391  48.601  1.00  0.00    -0.258 OA
HETATM   14  H13 UNL     1      25.789   6.773  48.823  1.00  0.00     0.170 HD
BRANCH  12  15
HETATM   15  C7  UNL     1      28.265   6.614  47.956  1.00  0.00    -0.004 C 
HETATM   16  C6  UNL     1      28.864   7.566  47.484  1.00  0.00    -0.077 C 
BRANCH  16  17
HETATM   17  C5  UNL     1      29.559   8.714  46.912  1.00  0.00     0.212 C 
BRANCH  17  18
HETATM   18  N1  UNL     1      30.488   9.217  47.849  1.00  0.00    -0.403 N 
BRANCH  18  19
HETATM   19  C2  UNL     1      29.998   9.848  49.016  1.00  0.00     0.113 C 
HETATM   20  C1  UNL     1      29.484  11.240  48.829  1.00  0.00     0.026 C 
ENDBRANCH  18  19
BRANCH  18  21
HETATM   21  C3  UNL     1      31.620   8.344  48.079  1.00  0.00     0.113 C 
HETATM   22  C4  UNL     1      31.826   8.108  49.539  1.00  0.00     0.026 C 
ENDBRANCH  18  21
ENDBRANCH  17  18
ENDBRANCH  16  17
ENDBRANCH  12  15
ENDBRANCH   1  11
BRANCH   8  23
HETATM   23  N5  UNL     1      24.831   3.128  53.151  1.00  0.00    -0.342 N 
HETATM   24  H17 UNL     1      25.196   3.693  53.962  1.00  0.00     0.167 HD
BRANCH  23  25
HETATM   25  C15 UNL     1      25.598   1.939  52.860  1.00  0.00     0.036 A 
HETATM   26  C16 UNL     1      25.197   0.670  53.003  1.00  0.00     0.068 A 
HETATM   27  C17 UNL     1      26.180  -0.338  52.630  1.00  0.00     0.116 A 
HETATM   28  F1  UNL     1      25.947  -1.668  52.710  1.00  0.00    -0.206 F 
HETATM   29  C18 UNL     1      27.214   0.395  52.249  1.00  0.00     0.041 A 
HETATM   30  C19 UNL     1      26.970   1.846  52.349  1.00  0.00     0.158 A 
HETATM   31 CL1  UNL     1      28.160   2.483  53.527  1.00  0.00    -0.114 Cl
ENDBRANCH  23  25
ENDBRANCH   8  23
TORSDOF 8
ENDMDL
MODEL 7
REMARK VINA RESULT:      -7.6      2.765      3.594
REMARK  8 active torsions:
REMARK  status: ('A' for Active; 'I' for Inactive)
REMARK    1  A    between atoms: C2_2  and  N1_3 
REMARK    2  A    between atoms: N1_3  and  C3_4 
REMARK    3  A    between atoms: N1_3  and  C5_6 
REMARK    4  A    between atoms: C5_6  and  C6_7 
REMARK    5  A    between atoms: C7_8  and  C8_9 
REMARK       I    between atoms: C8_9  and  N2_11 
REMARK    6  A    between atoms: N2_11  and  C9_12 
REMARK    7  A    between atoms: C14_19  and  N5_20 
REMARK    8  A    between atoms: N5_20  and  C15_21 
ROOT
HETATM    1  C9  UNL     1      26.060   5.542  49.644  1.00  0.00     0.036 A 
HETATM    2  C10 UNL     1      25.722   6.840  50.038  1.00  0.00     0.032 A 
HETATM    3  C11 UNL     1      24.437   7.157  50.488  1.00  0.00     0.035 A 
HETATM    4  C12 UNL     1      23.486   6.160  50.541  1.00  0.00     0.072 A 
HETATM    5  N3  UNL     1      22.209   6.321  50.956  1.00  0.00    -0.241 NA
HETATM    6  C13 UNL     1      21.325   5.322  50.991  1.00  0.00     0.236 A 
HETATM    7  N4  UNL     1      21.699   4.084  50.598  1.00  0.00    -0.224 NA
HETATM    8  C14 UNL     1      22.954   3.850  50.173  1.00  0.00     0.141 A 
HETATM    9  C20 UNL     1      23.854   4.892  50.145  1.00  0.00     0.041 A 
HETATM   10  C21 UNL     1      25.108   4.547  49.697  1.00  0.00     0.047 A 
ENDROOT
BRANCH   1  11
HETATM   11  N2  UNL     1      27.434   5.513  49.228  1.00  0.00    -0.316 N 
HETATM   12  C8  UNL     1      28.207   6.190  48.239  1.00  0.00     0.301 C 
HETATM   13  O1  UNL     1      27.821   7.045  47.429  1.00  0.00    -0.258 OA
HETATM   14  H13 UNL     1      27.825   4.799  49.876  1.00  0.00     0.170 HD
BRANCH  12  15
HETATM   15  C7  UNL     1      29.608   5.795  48.223  1.00  0.00    -0.004 C 
HETATM   16  C6  UNL     1      30.788   5.484  48.204  1.00  0.00    -0.077 C 
BRANCH  16  17
HETATM   17  C5  UNL     1      32.203   5.134  48.170  1.00  0.00     0.212 C 
BRANCH  17  18
HETATM   18  N1  UNL     1      32.507   4.522  46.934  1.00  0.00    -0.403 N 
BRANCH  18  19
HETATM   19  C2  UNL     1      31.841   3.324  46.589  1.00  0.00     0.113 C 
HETATM   20  C1  UNL     1      32.622   2.066  46.809  1.00  0.00     0.026 C 
ENDBRANCH  18  19
BRANCH  18  21
HETATM   21  C3  UNL     1      32.649   5.457  45.837  1.00  0.00     0.113 C 
HETATM   22  C4  UNL     1      33.971   5.293  45.163  1.00  0.00     0.026 C 
ENDBRANCH  18  21
ENDBRANCH  17  18
ENDBRANCH  16  17
ENDBRANCH  12  15
ENDBRANCH   1  11
BRANCH   8  23
HETATM   23  N5  UNL     1      23.233   2.494  49.762  1.00  0.00    -0.342 N 
HETATM   24  H17 UNL     1      23.516   1.992  48.880  1.00  0.00     0.167 HD
BRANCH  23  25
HETATM   25  C15 UNL     1      23.063   1.633  50.910  1.00  0.00     0.036 A 
HETATM   26  C16 UNL     1      22.000   0.868  51.190  1.00  0.00     0.068 A 
HETATM   27  C17 UNL     1      22.099   0.095  52.421  1.00  0.00     0.116 A 
HETATM   28  F1  UNL     1      21.121  -0.730  52.859  1.00  0.00    -0.206 F 
HETATM   29  C18 UNL     1      23.292   0.436  52.880  1.00  0.00     0.041 A 
HETATM   30  C19 UNL     1      23.998   1.401  52.016  1.00  0.00     0.158 A 
HETATM   31 CL1  UNL     1      24.243   2.880  52.998  1.00  0.00    -0.114 Cl
ENDBRANCH  23  25
ENDBRANCH   8  23
TORSDOF 8
ENDMDL
MODEL 8
REMARK VINA RESULT:      -7.6      3.425      9.016
REMARK  8 active torsions:
REMARK  status: ('A' for Active; 'I' for Inactive)
REMARK    1  A    between atoms: C2_2  and  N1_3 
REMARK    2  A    between atoms: N1_3  and  C3_4 
REMARK    3  A    between atoms: N1_3  and  C5_6 
REMARK    4  A    between atoms: C5_6  and  C6_7 
REMARK    5  A    between atoms: C7_8  and  C8_9 
REMARK       I    between atoms: C8_9  and  N2_11 
REMARK    6  A    between atoms: N2_11  and  C9_12 
REMARK    7  A    between atoms: C14_19  and  N5_20 
REMARK    8  A    between atoms: N5_20  and  C15_21 
ROOT
HETATM    1  C9  UNL     1      28.654   5.816  48.445  1.00  0.00     0.036 A 
HETATM    2  C10 UNL     1      27.940   6.722  47.656  1.00  0.00     0.032 A 
HETATM    3  C11 UNL     1      28.590   7.672  46.862  1.00  0.00     0.035 A 
HETATM    4  C12 UNL     1      29.968   7.708  46.862  1.00  0.00     0.072 A 
HETATM    5  N3  UNL     1      30.726   8.568  46.142  1.00  0.00    -0.241 NA
HETATM    6  C13 UNL     1      32.060   8.562  46.175  1.00  0.00     0.236 A 
HETATM    7  N4  UNL     1      32.706   7.667  46.955  1.00  0.00    -0.224 NA
HETATM    8  C14 UNL     1      32.016   6.782  47.698  1.00  0.00     0.141 A 
HETATM    9  C20 UNL     1      30.640   6.800  47.650  1.00  0.00     0.041 A 
HETATM   10  C21 UNL     1      30.033   5.855  48.443  1.00  0.00     0.047 A 
ENDROOT
BRANCH   1  11
HETATM   11  N2  UNL     1      27.734   4.971  49.151  1.00  0.00    -0.316 N 
HETATM   12  C8  UNL     1      26.315   4.884  49.256  1.00  0.00     0.301 C 
HETATM   13  O1  UNL     1      25.468   5.601  48.703  1.00  0.00    -0.258 OA
HETATM   14  H13 UNL     1      28.389   4.334  49.651  1.00  0.00     0.170 HD
BRANCH  12  15
HETATM   15  C7  UNL     1      25.858   3.810  50.127  1.00  0.00    -0.004 C 
HETATM   16  C6  UNL     1      25.459   2.922  50.862  1.00  0.00    -0.077 C 
BRANCH  16  17
HETATM   17  C5  UNL     1      24.966   1.876  51.751  1.00  0.00     0.212 C 
BRANCH  17  18
HETATM   18  N1  UNL     1      26.051   1.304  52.452  1.00  0.00    -0.403 N 
BRANCH  18  19
HETATM   19  C2  UNL     1      26.627   2.032  53.519  1.00  0.00     0.113 C 
HETATM   20  C1  UNL     1      28.102   2.263  53.419  1.00  0.00     0.026 C 
ENDBRANCH  18  19
BRANCH  18  21
HETATM   21  C3  UNL     1      25.897  -0.111  52.716  1.00  0.00     0.113 C 
HETATM   22  C4  UNL     1      24.562  -0.401  53.317  1.00  0.00     0.026 C 
ENDBRANCH  18  21
ENDBRANCH  17  18
ENDBRANCH  16  17
ENDBRANCH  12  15
ENDBRANCH   1  11
BRANCH   8  23
HETATM   23  N5  UNL     1      32.813   5.887  48.504  1.00  0.00    -0.342 N 
HETATM   24  H17 UNL     1      33.053   5.765  49.522  1.00  0.00     0.167 HD
BRANCH  23  25
HETATM   25  C15 UNL     1      33.423   4.915  47.627  1.00  0.00     0.036 A 
HETATM   26  C16 UNL     1      34.439   5.124  46.780  1.00  0.00     0.068 A 
HETATM   27  C17 UNL     1      34.858   3.959  46.013  1.00  0.00     0.116 A 
HETATM   28  F1  UNL     1      35.867   3.986  45.113  1.00  0.00    -0.206 F 
HETATM   29  C18 UNL     1      34.032   3.019  46.444  1.00  0.00     0.041 A 
HETATM   30  C19 UNL     1      33.080   3.499  47.463  1.00  0.00     0.158 A 
HETATM   31 CL1  UNL     1      31.442   3.291  46.766  1.00  0.00    -0.114 Cl
ENDBRANCH  23  25
ENDBRANCH   8  23
TORSDOF 8
ENDMDL
MODEL 9
REMARK VINA RESULT:      -7.5      5.962     11.337
REMARK  8 active torsions:
REMARK  status: ('A' for Active; 'I' for Inactive)
REMARK    1  A    between atoms: C2_2  and  N1_3 
REMARK    2  A    between atoms: N1_3  and  C3_4 
REMARK    3  A    between atoms: N1_3  and  C5_6 
REMARK    4  A    between atoms: C5_6  and  C6_7 
REMARK    5  A    between atoms: C7_8  and  C8_9 
REMARK       I    between atoms: C8_9  and  N2_11 
REMARK    6  A    between atoms: N2_11  and  C9_12 
REMARK    7  A    between atoms: C14_19  and  N5_20 
REMARK    8  A    between atoms: N5_20  and  C15_21 
ROOT
HETATM    1  C9  UNL     1      21.502  -0.715  53.599  1.00  0.00     0.036 A 
HETATM    2  C10 UNL     1      21.769  -1.405  54.785  1.00  0.00     0.032 A 
HETATM    3  C11 UNL     1      23.055  -1.449  55.332  1.00  0.00     0.035 A 
HETATM    4  C12 UNL     1      24.078  -0.793  54.682  1.00  0.00     0.072 A 
HETATM    5  N3  UNL     1      25.365  -0.749  55.097  1.00  0.00    -0.241 NA
HETATM    6  C13 UNL     1      26.320  -0.098  54.432  1.00  0.00     0.236 A 
HETATM    7  N4  UNL     1      26.014   0.555  53.288  1.00  0.00    -0.224 NA
HETATM    8  C14 UNL     1      24.754   0.553  52.816  1.00  0.00     0.141 A 
HETATM    9  C20 UNL     1      23.779  -0.122  53.516  1.00  0.00     0.041 A 
HETATM   10  C21 UNL     1      22.528  -0.060  52.950  1.00  0.00     0.047 A 
ENDROOT
BRANCH   1  11
HETATM   11  N2  UNL     1      20.110  -0.845  53.275  1.00  0.00    -0.316 N 
HETATM   12  C8  UNL     1      19.219  -0.205  52.364  1.00  0.00     0.301 C 
HETATM   13  O1  UNL     1      19.476   0.708  51.566  1.00  0.00    -0.258 OA
HETATM   14  H13 UNL     1      19.822  -1.606  53.924  1.00  0.00     0.170 HD
BRANCH  12  15
HETATM   15  C7  UNL     1      17.859  -0.723  52.417  1.00  0.00    -0.004 C 
HETATM   16  C6  UNL     1      16.723  -1.168  52.444  1.00  0.00    -0.077 C 
BRANCH  16  17
HETATM   17  C5  UNL     1      15.368  -1.707  52.453  1.00  0.00     0.212 C 
BRANCH  17  18
HETATM   18  N1  UNL     1      15.404  -3.077  52.114  1.00  0.00    -0.403 N 
BRANCH  18  19
HETATM   19  C2  UNL     1      15.458  -4.031  53.156  1.00  0.00     0.113 C 
HETATM   20  C1  UNL     1      16.815  -4.592  53.446  1.00  0.00     0.026 C 
ENDBRANCH  18  19
BRANCH  18  21
HETATM   21  C3  UNL     1      14.515  -3.435  51.028  1.00  0.00     0.113 C 
HETATM   22  C4  UNL     1      13.658  -2.278  50.635  1.00  0.00     0.026 C 
ENDBRANCH  18  21
ENDBRANCH  17  18
ENDBRANCH  16  17
ENDBRANCH  12  15
ENDBRANCH   1  11
BRANCH   8  23
HETATM   23  N5  UNL     1      24.549   1.268  51.578  1.00  0.00    -0.342 N 
HETATM   24  H17 UNL     1      24.624   1.072  50.546  1.00  0.00     0.167 HD
BRANCH  23  25
HETATM   25  C15 UNL     1      24.128   2.612  51.900  1.00  0.00     0.036 A 
HETATM   26  C16 UNL     1      24.300   3.250  53.064  1.00  0.00     0.068 A 
HETATM   27  C17 UNL     1      23.774   4.608  53.111  1.00  0.00     0.116 A 
HETATM   28  F1  UNL     1      23.860   5.399  54.205  1.00  0.00    -0.206 F 
HETATM   29  C18 UNL     1      23.267   4.763  51.899  1.00  0.00     0.041 A 
HETATM   30  C19 UNL     1      23.427   3.573  51.042  1.00  0.00     0.158 A 
HETATM   31 CL1  UNL     1      21.774   3.014  50.633  1.00  0.00    -0.114 Cl
ENDBRANCH  23  25
ENDBRANCH   8  23
TORSDOF 8
ENDMDL
