MODEL 1
REMARK VINA RESULT:      -8.4      0.000      0.000
REMARK  0 active torsions:
REMARK  status: ('A' for Active; 'I' for Inactive)
ROOT
HETATM    1  C1  UNL     1      23.316   5.482  47.781  1.00  0.00     0.026 C 
HETATM    2  C2  UNL     1      23.473   4.984  48.962  1.00  0.00    -0.011 C 
HETATM    3  C3  UNL     1      24.184   5.641  50.030  1.00  0.00     0.014 C 
HETATM    4  C4  UNL     1      24.160   4.885  51.104  1.00  0.00     0.132 C 
HETATM    5  N1  UNL     1      24.378   4.435  52.417  1.00  0.00    -0.383 N 
HETATM    6  C5  UNL     1      23.993   3.047  52.346  1.00  0.00     0.012 C 
HETATM    7  C6  UNL     1      22.961   2.671  53.146  1.00  0.00     0.033 C 
HETATM    8  C7  UNL     1      23.368   1.288  52.997  1.00  0.00     0.073 A 
HETATM    9  C8  UNL     1      23.623   0.042  52.939  1.00  0.00    -0.005 A 
HETATM   10  C9  UNL     1      23.628   0.729  51.560  1.00  0.00     0.085 A 
HETATM   11  C10 UNL     1      22.215   1.002  51.205  1.00  0.00     0.049 C 
HETATM   12  C11 UNL     1      21.024   0.549  51.895  1.00  0.00     0.097 C 
HETATM   13  N2  UNL     1      20.092   0.184  52.419  1.00  0.00    -0.192 NA
HETATM   14  C12 UNL     1      22.291   1.742  50.119  1.00  0.00     0.124 C 
HETATM   15  N3  UNL     1      22.247   2.538  48.956  1.00  0.00    -0.284 N 
HETATM   16  C13 UNL     1      22.817   3.706  48.917  1.00  0.00     0.111 A 
HETATM   17 BR1  UNL     1      21.867   2.926  47.461  1.00  0.00     0.019 Br
HETATM   18  C14 UNL     1      24.542   1.911  51.414  1.00  0.00     0.077 C 
HETATM   19  C15 UNL     1      25.749   1.512  52.328  1.00  0.00     0.040 C 
HETATM   20  C16 UNL     1      26.332   0.203  52.020  1.00  0.00     0.057 C 
HETATM   21  C17 UNL     1      27.355  -0.088  53.129  1.00  0.00     0.170 C 
HETATM   22  O1  UNL     1      28.393   0.841  53.051  1.00  0.00    -0.391 OA
HETATM   23  C18 UNL     1      27.983   2.134  53.154  1.00  0.00     0.170 C 
HETATM   24  C19 UNL     1      26.814   2.540  52.288  1.00  0.00     0.057 C 
HETATM   25  N4  UNL     1      24.959   1.491  53.582  1.00  0.00    -0.396 N 
HETATM   26  H5  UNL     1      24.702   4.826  53.355  1.00  0.00     0.160 HD
HETATM   27  H19 UNL     1      25.871   1.639  54.262  1.00  0.00     0.155 HD
ENDROOT
TORSDOF 0
ENDMDL
MODEL 2
REMARK VINA RESULT:      -8.1      7.985     10.612
REMARK  0 active torsions:
REMARK  status: ('A' for Active; 'I' for Inactive)
ROOT
HETATM    1  C1  UNL     1      33.716   3.980  45.701  1.00  0.00     0.026 C 
HETATM    2  C2  UNL     1      33.029   4.695  46.528  1.00  0.00    -0.011 C 
HETATM    3  C3  UNL     1      32.497   4.205  47.775  1.00  0.00     0.014 C 
HETATM    4  C4  UNL     1      31.858   5.173  48.391  1.00  0.00     0.132 C 
HETATM    5  N1  UNL     1      31.112   5.867  49.358  1.00  0.00    -0.383 N 
HETATM    6  C5  UNL     1      30.749   7.081  48.668  1.00  0.00     0.012 C 
HETATM    7  C6  UNL     1      31.204   8.238  49.218  1.00  0.00     0.033 C 
HETATM    8  C7  UNL     1      30.211   8.972  48.457  1.00  0.00     0.073 A 
HETATM    9  C8  UNL     1      29.390   9.724  47.840  1.00  0.00    -0.005 A 
HETATM   10  C9  UNL     1      30.088   8.704  46.921  1.00  0.00     0.085 A 
HETATM   11  C10 UNL     1      31.483   9.171  46.734  1.00  0.00     0.049 C 
HETATM   12  C11 UNL     1      32.058  10.434  47.151  1.00  0.00     0.097 C 
HETATM   13  N2  UNL     1      32.508  11.425  47.458  1.00  0.00    -0.192 NA
HETATM   14  C12 UNL     1      32.074   8.180  46.100  1.00  0.00     0.124 C 
HETATM   15  N3  UNL     1      32.812   7.189  45.422  1.00  0.00    -0.284 N 
HETATM   16  C13 UNL     1      32.939   5.991  45.913  1.00  0.00     0.111 A 
HETATM   17 BR1  UNL     1      33.708   6.564  44.267  1.00  0.00     0.019 Br
HETATM   18  C14 UNL     1      29.967   7.262  47.321  1.00  0.00     0.077 C 
HETATM   19  C15 UNL     1      28.534   7.212  47.950  1.00  0.00     0.040 C 
HETATM   20  C16 UNL     1      27.475   7.733  47.080  1.00  0.00     0.057 C 
HETATM   21  C17 UNL     1      26.198   7.779  47.934  1.00  0.00     0.170 C 
HETATM   22  O1  UNL     1      25.830   6.479  48.279  1.00  0.00    -0.391 OA
HETATM   23  C18 UNL     1      26.791   5.796  48.957  1.00  0.00     0.170 C 
HETATM   24  C19 UNL     1      28.183   5.838  48.374  1.00  0.00     0.057 C 
HETATM   25  N4  UNL     1      28.850   8.139  49.063  1.00  0.00    -0.396 N 
HETATM   26  H5  UNL     1      30.798   5.744  50.370  1.00  0.00     0.160 HD
HETATM   27  H19 UNL     1      27.996   7.766  49.732  1.00  0.00     0.155 HD
ENDROOT
TORSDOF 0
ENDMDL
MODEL 3
REMARK VINA RESULT:      -7.7      7.174      9.794
REMARK  0 active torsions:
REMARK  status: ('A' for Active; 'I' for Inactive)
ROOT
HETATM    1  C1  UNL     1      24.874   7.379  50.382  1.00  0.00     0.026 C 
HETATM    2  C2  UNL     1      26.052   7.818  50.086  1.00  0.00    -0.011 C 
HETATM    3  C3  UNL     1      26.542   9.126  50.445  1.00  0.00     0.014 C 
HETATM    4  C4  UNL     1      27.775   9.267  50.012  1.00  0.00     0.132 C 
HETATM    5  N1  UNL     1      29.033   9.832  49.749  1.00  0.00    -0.383 N 
HETATM    6  C5  UNL     1      29.595   8.921  48.781  1.00  0.00     0.012 C 
HETATM    7  C6  UNL     1      30.743   8.294  49.148  1.00  0.00     0.033 C 
HETATM    8  C7  UNL     1      31.001   7.983  47.756  1.00  0.00     0.073 A 
HETATM    9  C8  UNL     1      31.332   7.648  46.573  1.00  0.00    -0.005 A 
HETATM   10  C9  UNL     1      29.862   7.329  46.905  1.00  0.00     0.085 A 
HETATM   11  C10 UNL     1      29.865   6.157  47.814  1.00  0.00     0.049 C 
HETATM   12  C11 UNL     1      30.993   5.323  48.180  1.00  0.00     0.097 C 
HETATM   13  N2  UNL     1      31.864   4.658  48.455  1.00  0.00    -0.192 NA
HETATM   14  C12 UNL     1      28.613   6.046  48.204  1.00  0.00     0.124 C 
HETATM   15  N3  UNL     1      27.308   5.828  48.690  1.00  0.00    -0.284 N 
HETATM   16  C13 UNL     1      26.675   6.748  49.358  1.00  0.00     0.111 A 
HETATM   17 BR1  UNL     1      25.959   5.029  48.957  1.00  0.00     0.019 Br
HETATM   18  C14 UNL     1      29.028   8.482  47.386  1.00  0.00     0.077 C 
HETATM   19  C15 UNL     1      29.625   9.682  46.577  1.00  0.00     0.040 C 
HETATM   20  C16 UNL     1      29.663   9.473  45.126  1.00  0.00     0.057 C 
HETATM   21  C17 UNL     1      30.447  10.656  44.538  1.00  0.00     0.170 C 
HETATM   22  O1  UNL     1      29.729  11.833  44.754  1.00  0.00    -0.391 OA
HETATM   23  C18 UNL     1      29.466  12.084  46.065  1.00  0.00     0.170 C 
HETATM   24  C19 UNL     1      28.898  10.938  46.867  1.00  0.00     0.057 C 
HETATM   25  N4  UNL     1      30.972   9.594  47.190  1.00  0.00    -0.396 N 
HETATM   26  H5  UNL     1      29.621  10.663  50.065  1.00  0.00     0.160 HD
HETATM   27  H19 UNL     1      31.248  10.681  46.952  1.00  0.00     0.155 HD
ENDROOT
TORSDOF 0
ENDMDL
MODEL 4
REMARK VINA RESULT:      -7.6      8.853     10.429
REMARK  0 active torsions:
REMARK  status: ('A' for Active; 'I' for Inactive)
ROOT
HETATM    1  C1  UNL     1      33.533  11.050  44.762  1.00  0.00     0.026 C 
HETATM    2  C2  UNL     1      33.366  10.207  45.726  1.00  0.00    -0.011 C 
HETATM    3  C3  UNL     1      34.396   9.833  46.663  1.00  0.00     0.014 C 
HETATM    4  C4  UNL     1      33.913   8.968  47.526  1.00  0.00     0.132 C 
HETATM    5  N1  UNL     1      33.830   8.075  48.607  1.00  0.00    -0.383 N 
HETATM    6  C5  UNL     1      32.578   7.401  48.368  1.00  0.00     0.012 C 
HETATM    7  C6  UNL     1      31.631   7.542  49.333  1.00  0.00     0.033 C 
HETATM    8  C7  UNL     1      30.938   6.385  48.801  1.00  0.00     0.073 A 
HETATM    9  C8  UNL     1      30.240   5.389  48.424  1.00  0.00    -0.005 A 
HETATM   10  C9  UNL     1      30.643   6.322  47.266  1.00  0.00     0.085 A 
HETATM   11  C10 UNL     1      29.811   7.544  47.382  1.00  0.00     0.049 C 
HETATM   12  C11 UNL     1      28.690   7.771  48.273  1.00  0.00     0.097 C 
HETATM   13  N2  UNL     1      27.804   7.949  48.952  1.00  0.00    -0.192 NA
HETATM   14  C12 UNL     1      30.320   8.368  46.491  1.00  0.00     0.124 C 
HETATM   15  N3  UNL     1      30.777   9.334  45.571  1.00  0.00    -0.284 N 
HETATM   16  C13 UNL     1      32.000   9.775  45.610  1.00  0.00     0.111 A 
HETATM   17 BR1  UNL     1      30.690  10.352  44.353  1.00  0.00     0.019 Br
HETATM   18  C14 UNL     1      32.113   6.586  47.111  1.00  0.00     0.077 C 
HETATM   19  C15 UNL     1      32.743   5.222  47.551  1.00  0.00     0.040 C 
HETATM   20  C16 UNL     1      32.217   4.056  46.836  1.00  0.00     0.057 C 
HETATM   21  C17 UNL     1      32.805   2.819  47.533  1.00  0.00     0.170 C 
HETATM   22  O1  UNL     1      34.189   2.808  47.356  1.00  0.00    -0.391 OA
HETATM   23  C18 UNL     1      34.813   3.920  47.828  1.00  0.00     0.170 C 
HETATM   24  C19 UNL     1      34.218   5.247  47.423  1.00  0.00     0.057 C 
HETATM   25  N4  UNL     1      32.244   5.294  48.946  1.00  0.00    -0.396 N 
HETATM   26  H5  UNL     1      34.391   7.813  49.476  1.00  0.00     0.160 HD
HETATM   27  H19 UNL     1      33.036   4.574  49.359  1.00  0.00     0.155 HD
ENDROOT
TORSDOF 0
ENDMDL
MODEL 5
REMARK VINA RESULT:      -7.6      8.402     10.505
REMARK  0 active torsions:
REMARK  status: ('A' for Active; 'I' for Inactive)
ROOT
HETATM    1  C1  UNL     1      34.067   4.748  45.071  1.00  0.00     0.026 C 
HETATM    2  C2  UNL     1      33.082   5.566  45.234  1.00  0.00    -0.011 C 
HETATM    3  C3  UNL     1      32.809   6.688  44.371  1.00  0.00     0.014 C 
HETATM    4  C4  UNL     1      31.737   7.319  44.794  1.00  0.00     0.132 C 
HETATM    5  N1  UNL     1      30.694   8.255  44.879  1.00  0.00    -0.383 N 
HETATM    6  C5  UNL     1      30.153   8.011  46.194  1.00  0.00     0.012 C 
HETATM    7  C6  UNL     1      28.852   7.620  46.241  1.00  0.00     0.033 C 
HETATM    8  C7  UNL     1      28.807   7.992  47.641  1.00  0.00     0.073 A 
HETATM    9  C8  UNL     1      28.645   8.275  48.872  1.00  0.00    -0.005 A 
HETATM   10  C9  UNL     1      29.929   7.468  48.598  1.00  0.00     0.085 A 
HETATM   11  C10 UNL     1      29.513   6.074  48.312  1.00  0.00     0.049 C 
HETATM   12  C11 UNL     1      28.191   5.497  48.450  1.00  0.00     0.097 C 
HETATM   13  N2  UNL     1      27.166   5.037  48.573  1.00  0.00    -0.192 NA
HETATM   14  C12 UNL     1      30.619   5.482  47.912  1.00  0.00     0.124 C 
HETATM   15  N3  UNL     1      31.735   4.743  47.469  1.00  0.00    -0.284 N 
HETATM   16  C13 UNL     1      32.403   5.101  46.412  1.00  0.00     0.111 A 
HETATM   17 BR1  UNL     1      32.816   3.577  47.478  1.00  0.00     0.019 Br
HETATM   18  C14 UNL     1      30.873   8.052  47.587  1.00  0.00     0.077 C 
HETATM   19  C15 UNL     1      30.699   9.590  47.821  1.00  0.00     0.040 C 
HETATM   20  C16 UNL     1      30.896  10.016  49.210  1.00  0.00     0.057 C 
HETATM   21  C17 UNL     1      30.497  11.498  49.270  1.00  0.00     0.170 C 
HETATM   22  O1  UNL     1      31.385  12.243  48.492  1.00  0.00    -0.391 OA
HETATM   23  C18 UNL     1      31.440  11.852  47.191  1.00  0.00     0.170 C 
HETATM   24  C19 UNL     1      31.599  10.371  46.941  1.00  0.00     0.057 C 
HETATM   25  N4  UNL     1      29.270   9.620  47.424  1.00  0.00    -0.396 N 
HETATM   26  H5  UNL     1      30.238   9.006  44.274  1.00  0.00     0.160 HD
HETATM   27  H19 UNL     1      29.273  10.739  47.173  1.00  0.00     0.155 HD
ENDROOT
TORSDOF 0
ENDMDL
MODEL 6
REMARK VINA RESULT:      -7.6      4.144      6.375
REMARK  0 active torsions:
REMARK  status: ('A' for Active; 'I' for Inactive)
ROOT
HETATM    1  C1  UNL     1      14.600   0.882  51.568  1.00  0.00     0.026 C 
HETATM    2  C2  UNL     1      15.780   1.406  51.600  1.00  0.00    -0.011 C 
HETATM    3  C3  UNL     1      16.062   2.785  51.288  1.00  0.00     0.014 C 
HETATM    4  C4  UNL     1      17.349   3.012  51.422  1.00  0.00     0.132 C 
HETATM    5  N1  UNL     1      18.587   3.676  51.436  1.00  0.00    -0.383 N 
HETATM    6  C5  UNL     1      19.531   2.590  51.535  1.00  0.00     0.012 C 
HETATM    7  C6  UNL     1      20.324   2.587  52.638  1.00  0.00     0.033 C 
HETATM    8  C7  UNL     1      21.234   1.683  51.963  1.00  0.00     0.073 A 
HETATM    9  C8  UNL     1      22.102   0.888  51.479  1.00  0.00    -0.005 A 
HETATM   10  C9  UNL     1      20.655   0.400  51.280  1.00  0.00     0.085 A 
HETATM   11  C10 UNL     1      20.170  -0.076  52.598  1.00  0.00     0.049 C 
HETATM   12  C11 UNL     1      20.940  -0.253  53.813  1.00  0.00     0.097 C 
HETATM   13  N2  UNL     1      21.538  -0.410  54.759  1.00  0.00    -0.192 NA
HETATM   14  C12 UNL     1      18.888  -0.305  52.408  1.00  0.00     0.124 C 
HETATM   15  N3  UNL     1      17.509  -0.586  52.326  1.00  0.00    -0.284 N 
HETATM   16  C13 UNL     1      16.654   0.332  51.984  1.00  0.00     0.111 A 
HETATM   17 BR1  UNL     1      16.186  -1.464  52.413  1.00  0.00     0.019 Br
HETATM   18  C14 UNL     1      19.725   1.355  50.587  1.00  0.00     0.077 C 
HETATM   19  C15 UNL     1      20.680   2.070  49.573  1.00  0.00     0.040 C 
HETATM   20  C16 UNL     1      21.432   1.158  48.706  1.00  0.00     0.057 C 
HETATM   21  C17 UNL     1      22.438   2.025  47.933  1.00  0.00     0.170 C 
HETATM   22  O1  UNL     1      21.742   2.894  47.093  1.00  0.00    -0.391 OA
HETATM   23  C18 UNL     1      20.866   3.706  47.743  1.00  0.00     0.170 C 
HETATM   24  C19 UNL     1      19.941   3.039  48.733  1.00  0.00     0.057 C 
HETATM   25  N4  UNL     1      21.538   2.685  50.615  1.00  0.00    -0.396 N 
HETATM   26  H5  UNL     1      18.961   4.675  51.415  1.00  0.00     0.160 HD
HETATM   27  H19 UNL     1      21.926   3.518  49.928  1.00  0.00     0.155 HD
ENDROOT
TORSDOF 0
ENDMDL
MODEL 7
REMARK VINA RESULT:      -7.5      7.647      9.416
REMARK  0 active torsions:
REMARK  status: ('A' for Active; 'I' for Inactive)
ROOT
HETATM    1  C1  UNL     1      29.405  13.794  46.660  1.00  0.00     0.026 C 
HETATM    2  C2  UNL     1      29.369  12.695  47.336  1.00  0.00    -0.011 C 
HETATM    3  C3  UNL     1      30.093  12.475  48.564  1.00  0.00     0.014 C 
HETATM    4  C4  UNL     1      29.841  11.266  49.012  1.00  0.00     0.132 C 
HETATM    5  N1  UNL     1      29.862  10.119  49.823  1.00  0.00    -0.383 N 
HETATM    6  C5  UNL     1      29.241   9.125  48.983  1.00  0.00     0.012 C 
HETATM    7  C6  UNL     1      28.093   8.573  49.459  1.00  0.00     0.033 C 
HETATM    8  C7  UNL     1      28.256   7.471  48.531  1.00  0.00     0.073 A 
HETATM    9  C8  UNL     1      28.286   6.458  47.761  1.00  0.00    -0.005 A 
HETATM   10  C9  UNL     1      28.533   7.788  47.024  1.00  0.00     0.085 A 
HETATM   11  C10 UNL     1      27.227   8.485  46.937  1.00  0.00     0.049 C 
HETATM   12  C11 UNL     1      25.920   7.965  47.284  1.00  0.00     0.097 C 
HETATM   13  N2  UNL     1      24.895   7.559  47.536  1.00  0.00    -0.192 NA
HETATM   14  C12 UNL     1      27.528   9.678  46.469  1.00  0.00     0.124 C 
HETATM   15  N3  UNL     1      27.727  10.983  45.973  1.00  0.00    -0.284 N 
HETATM   16  C13 UNL     1      28.500  11.827  46.590  1.00  0.00     0.111 A 
HETATM   17 BR1  UNL     1      27.553  12.215  44.984  1.00  0.00     0.019 Br
HETATM   18  C14 UNL     1      29.654   8.637  47.550  1.00  0.00     0.077 C 
HETATM   19  C15 UNL     1      30.686   7.562  48.030  1.00  0.00     0.040 C 
HETATM   20  C16 UNL     1      31.048   6.575  47.008  1.00  0.00     0.057 C 
HETATM   21  C17 UNL     1      31.903   5.512  47.717  1.00  0.00     0.170 C 
HETATM   22  O1  UNL     1      33.094   6.096  48.149  1.00  0.00    -0.391 OA
HETATM   23  C18 UNL     1      32.916   7.152  48.988  1.00  0.00     0.170 C 
HETATM   24  C19 UNL     1      31.919   8.197  48.550  1.00  0.00     0.057 C 
HETATM   25  N4  UNL     1      29.801   6.989  49.073  1.00  0.00    -0.396 N 
HETATM   26  H5  UNL     1      30.169   9.836  50.804  1.00  0.00     0.160 HD
HETATM   27  H19 UNL     1      30.663   6.543  49.684  1.00  0.00     0.155 HD
ENDROOT
TORSDOF 0
ENDMDL
MODEL 8
REMARK VINA RESULT:      -7.4      3.133      5.276
REMARK  0 active torsions:
REMARK  status: ('A' for Active; 'I' for Inactive)
ROOT
HETATM    1  C1  UNL     1      19.289   6.750  49.130  1.00  0.00     0.026 C 
HETATM    2  C2  UNL     1      19.731   5.541  49.240  1.00  0.00    -0.011 C 
HETATM    3  C3  UNL     1      19.114   4.394  48.621  1.00  0.00     0.014 C 
HETATM    4  C4  UNL     1      19.803   3.314  48.911  1.00  0.00     0.132 C 
HETATM    5  N1  UNL     1      20.208   1.970  48.961  1.00  0.00    -0.383 N 
HETATM    6  C5  UNL     1      21.191   1.972  50.015  1.00  0.00     0.012 C 
HETATM    7  C6  UNL     1      22.449   1.597  49.660  1.00  0.00     0.033 C 
HETATM    8  C7  UNL     1      22.756   1.357  51.056  1.00  0.00     0.073 A 
HETATM    9  C8  UNL     1      23.146   1.118  52.244  1.00  0.00    -0.005 A 
HETATM   10  C9  UNL     1      22.422   2.470  52.104  1.00  0.00     0.085 A 
HETATM   11  C10 UNL     1      23.355   3.393  51.412  1.00  0.00     0.049 C 
HETATM   12  C11 UNL     1      24.751   3.167  51.094  1.00  0.00     0.097 C 
HETATM   13  N2  UNL     1      25.844   3.005  50.859  1.00  0.00    -0.192 NA
HETATM   14  C12 UNL     1      22.627   4.460  51.160  1.00  0.00     0.124 C 
HETATM   15  N3  UNL     1      21.950   5.654  50.837  1.00  0.00    -0.284 N 
HETATM   16  C13 UNL     1      20.891   5.644  50.081  1.00  0.00     0.111 A 
HETATM   17 BR1  UNL     1      21.659   7.217  50.832  1.00  0.00     0.019 Br
HETATM   18  C14 UNL     1      21.044   2.424  51.510  1.00  0.00     0.077 C 
HETATM   19  C15 UNL     1      20.498   1.058  52.046  1.00  0.00     0.040 C 
HETATM   20  C16 UNL     1      20.580   0.904  53.501  1.00  0.00     0.057 C 
HETATM   21  C17 UNL     1      20.186  -0.549  53.807  1.00  0.00     0.170 C 
HETATM   22  O1  UNL     1      18.850  -0.745  53.457  1.00  0.00    -0.391 OA
HETATM   23  C18 UNL     1      18.577  -0.477  52.152  1.00  0.00     0.170 C 
HETATM   24  C19 UNL     1      19.101   0.832  51.611  1.00  0.00     0.057 C 
HETATM   25  N4  UNL     1      21.505   0.230  51.339  1.00  0.00    -0.396 N 
HETATM   26  H5  UNL     1      20.006   1.053  48.455  1.00  0.00     0.160 HD
HETATM   27  H19 UNL     1      20.868  -0.723  51.362  1.00  0.00     0.155 HD
ENDROOT
TORSDOF 0
ENDMDL
MODEL 9
REMARK VINA RESULT:      -7.4      3.294      5.185
REMARK  0 active torsions:
REMARK  status: ('A' for Active; 'I' for Inactive)
ROOT
HETATM    1  C1  UNL     1      26.997   8.490  45.740  1.00  0.00     0.026 C 
HETATM    2  C2  UNL     1      26.600   8.102  46.906  1.00  0.00    -0.011 C 
HETATM    3  C3  UNL     1      27.478   7.870  48.025  1.00  0.00     0.014 C 
HETATM    4  C4  UNL     1      26.772   7.495  49.068  1.00  0.00     0.132 C 
HETATM    5  N1  UNL     1      26.441   7.084  50.369  1.00  0.00    -0.383 N 
HETATM    6  C5  UNL     1      25.070   6.658  50.229  1.00  0.00     0.012 C 
HETATM    7  C6  UNL     1      24.156   7.334  50.975  1.00  0.00     0.033 C 
HETATM    8  C7  UNL     1      23.219   6.243  50.788  1.00  0.00     0.073 A 
HETATM    9  C8  UNL     1      22.312   5.356  50.690  1.00  0.00    -0.005 A 
HETATM   10  C9  UNL     1      22.965   5.706  49.340  1.00  0.00     0.085 A 
HETATM   11  C10 UNL     1      22.454   7.039  48.942  1.00  0.00     0.049 C 
HETATM   12  C11 UNL     1      21.395   7.805  49.569  1.00  0.00     0.097 C 
HETATM   13  N2  UNL     1      20.558   8.400  50.042  1.00  0.00    -0.192 NA
HETATM   14  C12 UNL     1      23.175   7.362  47.889  1.00  0.00     0.124 C 
HETATM   15  N3  UNL     1      23.883   7.815  46.757  1.00  0.00    -0.284 N 
HETATM   16  C13 UNL     1      25.175   7.964  46.786  1.00  0.00     0.111 A 
HETATM   17 BR1  UNL     1      24.085   8.327  45.266  1.00  0.00     0.019 Br
HETATM   18  C14 UNL     1      24.460   5.572  49.276  1.00  0.00     0.077 C 
HETATM   19  C15 UNL     1      24.724   4.351  50.219  1.00  0.00     0.040 C 
HETATM   20  C16 UNL     1      23.953   3.151  49.883  1.00  0.00     0.057 C 
HETATM   21  C17 UNL     1      24.200   2.145  51.019  1.00  0.00     0.170 C 
HETATM   22  O1  UNL     1      25.544   1.772  51.017  1.00  0.00    -0.391 OA
HETATM   23  C18 UNL     1      26.405   2.816  51.154  1.00  0.00     0.170 C 
HETATM   24  C19 UNL     1      26.164   4.008  50.260  1.00  0.00     0.057 C 
HETATM   25  N4  UNL     1      24.215   5.019  51.441  1.00  0.00    -0.396 N 
HETATM   26  H5  UNL     1      26.893   7.032  51.334  1.00  0.00     0.160 HD
HETATM   27  H19 UNL     1      24.794   4.340  52.160  1.00  0.00     0.155 HD
ENDROOT
TORSDOF 0
ENDMDL
