MODEL 1
REMARK VINA RESULT:      -8.5      0.000      0.000
REMARK  2 active torsions:
REMARK  status: ('A' for Active; 'I' for Inactive)
REMARK    1  A    between atoms: C15_15  and  C16_16 
REMARK    2  A    between atoms: C16_16  and  O1_17 
ROOT
HETATM    1  C1  UNL     1      29.002  -1.387  52.911  1.00  0.00     0.048 C 
HETATM    2  C2  UNL     1      27.776  -0.511  52.968  1.00  0.00    -0.063 C 
HETATM    3  C3  UNL     1      28.020   0.766  53.094  1.00  0.00     0.015 C 
HETATM    4  C4  UNL     1      27.401   2.083  53.185  1.00  0.00     0.167 C 
HETATM    5  C5  UNL     1      26.079   1.975  53.810  1.00  0.00     0.005 C 
HETATM    6  C6  UNL     1      25.114   1.175  54.245  1.00  0.00    -0.019 C 
HETATM    7  C7  UNL     1      24.517  -0.177  54.198  1.00  0.00     0.034 C 
HETATM    8  C8  UNL     1      25.365  -1.074  53.388  1.00  0.00    -0.017 C 
HETATM    9  C9  UNL     1      26.559  -1.293  52.867  1.00  0.00     0.003 C 
HETATM   10  C10 UNL     1      23.107  -0.157  53.640  1.00  0.00     0.039 C 
HETATM   11  C11 UNL     1      22.952   0.581  52.393  1.00  0.00    -0.029 C 
HETATM   12  C12 UNL     1      22.320   1.589  51.805  1.00  0.00    -0.027 C 
HETATM   13  C13 UNL     1      21.325   2.666  52.020  1.00  0.00     0.054 C 
HETATM   14  C14 UNL     1      21.957   3.962  51.777  1.00  0.00    -0.016 C 
HETATM   15  C15 UNL     1      23.007   4.723  51.499  1.00  0.00    -0.037 C 
HETATM   16  C17 UNL     1      24.433   4.205  51.311  1.00  0.00     0.203 C 
HETATM   17  O2  UNL     1      24.907   4.491  50.077  1.00  0.00    -0.387 OA
HETATM   18  C18 UNL     1      26.166   4.197  49.751  1.00  0.00     0.170 C 
HETATM   19  C19 UNL     1      26.719   2.831  49.718  1.00  0.00     0.052 C 
HETATM   20  C20 UNL     1      26.747   2.024  50.958  1.00  0.00     0.171 C 
HETATM   21  O3  UNL     1      27.363   2.741  51.965  1.00  0.00    -0.378 OA
ENDROOT
BRANCH  15  22
HETATM   22  C16 UNL     1      23.138   6.219  51.333  1.00  0.00     0.200 C 
BRANCH  22  23
HETATM   23  O1  UNL     1      24.241   6.585  52.108  1.00  0.00    -0.397 OA
HETATM   24  H20 UNL     1      24.250   6.119  52.989  1.00  0.00     0.209 HD
ENDBRANCH  22  23
ENDBRANCH  15  22
TORSDOF 2
ENDMDL
MODEL 2
REMARK VINA RESULT:      -8.4      2.917      5.195
REMARK  2 active torsions:
REMARK  status: ('A' for Active; 'I' for Inactive)
REMARK    1  A    between atoms: C15_15  and  C16_16 
REMARK    2  A    between atoms: C16_16  and  O1_17 
ROOT
HETATM    1  C1  UNL     1      26.683   4.519  49.221  1.00  0.00     0.048 C 
HETATM    2  C2  UNL     1      25.827   3.765  50.207  1.00  0.00    -0.063 C 
HETATM    3  C3  UNL     1      24.601   4.202  50.316  1.00  0.00     0.015 C 
HETATM    4  C4  UNL     1      23.323   3.981  50.983  1.00  0.00     0.167 C 
HETATM    5  C5  UNL     1      23.543   3.395  52.309  1.00  0.00     0.005 C 
HETATM    6  C6  UNL     1      24.406   2.856  53.160  1.00  0.00    -0.019 C 
HETATM    7  C7  UNL     1      25.719   2.199  53.335  1.00  0.00     0.034 C 
HETATM    8  C8  UNL     1      26.446   2.175  52.050  1.00  0.00    -0.017 C 
HETATM    9  C9  UNL     1      26.567   2.689  50.840  1.00  0.00     0.003 C 
HETATM   10  C10 UNL     1      25.581   0.789  53.876  1.00  0.00     0.039 C 
HETATM   11  C11 UNL     1      24.612  -0.045  53.175  1.00  0.00    -0.029 C 
HETATM   12  C12 UNL     1      23.505  -0.763  53.312  1.00  0.00    -0.027 C 
HETATM   13  C13 UNL     1      22.485  -1.214  54.287  1.00  0.00     0.054 C 
HETATM   14  C14 UNL     1      21.170  -0.729  53.869  1.00  0.00    -0.016 C 
HETATM   15  C15 UNL     1      20.376  -0.028  53.070  1.00  0.00    -0.037 C 
HETATM   16  C17 UNL     1      20.857   0.836  51.905  1.00  0.00     0.203 C 
HETATM   17  O2  UNL     1      20.337   0.418  50.728  1.00  0.00    -0.387 OA
HETATM   18  C18 UNL     1      20.571   1.099  49.606  1.00  0.00     0.170 C 
HETATM   19  C19 UNL     1      21.907   1.302  49.019  1.00  0.00     0.052 C 
HETATM   20  C20 UNL     1      22.941   2.026  49.790  1.00  0.00     0.171 C 
HETATM   21  O3  UNL     1      22.439   3.241  50.212  1.00  0.00    -0.378 OA
ENDROOT
BRANCH  15  22
HETATM   22  C16 UNL     1      18.878   0.163  53.072  1.00  0.00     0.200 C 
BRANCH  22  23
HETATM   23  O1  UNL     1      18.370  -0.884  53.845  1.00  0.00    -0.397 OA
HETATM   24  H20 UNL     1      17.491  -1.209  53.504  1.00  0.00     0.209 HD
ENDBRANCH  22  23
ENDBRANCH  15  22
TORSDOF 2
ENDMDL
MODEL 3
REMARK VINA RESULT:      -8.0      2.445      6.365
REMARK  2 active torsions:
REMARK  status: ('A' for Active; 'I' for Inactive)
REMARK    1  A    between atoms: C15_15  and  C16_16 
REMARK    2  A    between atoms: C16_16  and  O1_17 
ROOT
HETATM    1  C1  UNL     1      19.152   4.645  49.394  1.00  0.00     0.048 C 
HETATM    2  C2  UNL     1      19.793   3.489  50.122  1.00  0.00    -0.063 C 
HETATM    3  C3  UNL     1      20.990   3.174  49.706  1.00  0.00     0.015 C 
HETATM    4  C4  UNL     1      22.117   2.276  49.923  1.00  0.00     0.167 C 
HETATM    5  C5  UNL     1      21.642   0.991  50.447  1.00  0.00     0.005 C 
HETATM    6  C6  UNL     1      20.623   0.293  50.930  1.00  0.00    -0.019 C 
HETATM    7  C7  UNL     1      19.282   0.336  51.552  1.00  0.00     0.034 C 
HETATM    8  C8  UNL     1      18.802   1.730  51.617  1.00  0.00    -0.017 C 
HETATM    9  C9  UNL     1      18.919   2.962  51.153  1.00  0.00     0.003 C 
HETATM   10  C10 UNL     1      19.279  -0.277  52.939  1.00  0.00     0.039 C 
HETATM   11  C11 UNL     1      20.336   0.201  53.822  1.00  0.00    -0.029 C 
HETATM   12  C12 UNL     1      21.379  -0.165  54.557  1.00  0.00    -0.027 C 
HETATM   13  C13 UNL     1      22.190  -1.328  54.986  1.00  0.00     0.054 C 
HETATM   14  C14 UNL     1      23.573  -1.140  54.546  1.00  0.00    -0.016 C 
HETATM   15  C15 UNL     1      24.519  -0.473  53.898  1.00  0.00    -0.037 C 
HETATM   16  C17 UNL     1      24.284   0.794  53.076  1.00  0.00     0.203 C 
HETATM   17  O2  UNL     1      24.997   1.838  53.556  1.00  0.00    -0.387 OA
HETATM   18  C18 UNL     1      24.992   3.010  52.920  1.00  0.00     0.170 C 
HETATM   19  C19 UNL     1      23.792   3.839  52.715  1.00  0.00     0.052 C 
HETATM   20  C20 UNL     1      22.655   3.301  51.936  1.00  0.00     0.171 C 
HETATM   21  O3  UNL     1      23.106   2.842  50.715  1.00  0.00    -0.378 OA
ENDROOT
BRANCH  15  22
HETATM   22  C16 UNL     1      25.996  -0.743  53.738  1.00  0.00     0.200 C 
BRANCH  22  23
HETATM   23  O1  UNL     1      26.580  -0.349  54.945  1.00  0.00    -0.397 OA
HETATM   24  H20 UNL     1      27.503   0.003  54.816  1.00  0.00     0.209 HD
ENDBRANCH  22  23
ENDBRANCH  15  22
TORSDOF 2
ENDMDL
MODEL 4
REMARK VINA RESULT:      -7.6      2.081      5.725
REMARK  2 active torsions:
REMARK  status: ('A' for Active; 'I' for Inactive)
REMARK    1  A    between atoms: C15_15  and  C16_16 
REMARK    2  A    between atoms: C16_16  and  O1_17 
ROOT
HETATM    1  C1  UNL     1      17.897   3.030  51.572  1.00  0.00     0.048 C 
HETATM    2  C2  UNL     1      19.371   2.771  51.386  1.00  0.00    -0.063 C 
HETATM    3  C3  UNL     1      19.850   3.134  50.226  1.00  0.00     0.015 C 
HETATM    4  C4  UNL     1      21.062   3.209  49.420  1.00  0.00     0.167 C 
HETATM    5  C5  UNL     1      21.977   2.123  49.787  1.00  0.00     0.005 C 
HETATM    6  C6  UNL     1      22.253   1.134  50.627  1.00  0.00    -0.019 C 
HETATM    7  C7  UNL     1      22.009   0.544  51.961  1.00  0.00     0.034 C 
HETATM    8  C8  UNL     1      20.963   1.310  52.667  1.00  0.00    -0.017 C 
HETATM    9  C9  UNL     1      19.956   2.159  52.564  1.00  0.00     0.003 C 
HETATM   10  C10 UNL     1      23.271   0.497  52.801  1.00  0.00     0.039 C 
HETATM   11  C11 UNL     1      24.017   1.747  52.857  1.00  0.00    -0.029 C 
HETATM   12  C12 UNL     1      25.189   2.319  52.606  1.00  0.00    -0.027 C 
HETATM   13  C13 UNL     1      26.556   2.070  52.092  1.00  0.00     0.054 C 
HETATM   14  C14 UNL     1      26.791   2.911  50.919  1.00  0.00    -0.016 C 
HETATM   15  C15 UNL     1      26.396   3.783  50.001  1.00  0.00    -0.037 C 
HETATM   16  C17 UNL     1      24.978   4.340  49.882  1.00  0.00     0.203 C 
HETATM   17  O2  UNL     1      24.959   5.686  50.014  1.00  0.00    -0.387 OA
HETATM   18  C18 UNL     1      23.824   6.366  49.854  1.00  0.00     0.170 C 
HETATM   19  C19 UNL     1      22.629   6.200  50.700  1.00  0.00     0.052 C 
HETATM   20  C20 UNL     1      21.950   4.887  50.757  1.00  0.00     0.171 C 
HETATM   21  O3  UNL     1      21.665   4.456  49.476  1.00  0.00    -0.378 OA
ENDROOT
BRANCH  15  22
HETATM   22  C16 UNL     1      27.138   4.424  48.851  1.00  0.00     0.200 C 
BRANCH  22  23
HETATM   23  O1  UNL     1      27.573   5.661  49.332  1.00  0.00    -0.397 OA
HETATM   24  H20 UNL     1      27.893   6.255  48.598  1.00  0.00     0.209 HD
ENDBRANCH  22  23
ENDBRANCH  15  22
TORSDOF 2
ENDMDL
MODEL 5
REMARK VINA RESULT:      -7.2      2.465      4.391
REMARK  2 active torsions:
REMARK  status: ('A' for Active; 'I' for Inactive)
REMARK    1  A    between atoms: C15_15  and  C16_16 
REMARK    2  A    between atoms: C16_16  and  O1_17 
ROOT
HETATM    1  C1  UNL     1      22.241  -0.992  53.236  1.00  0.00     0.048 C 
HETATM    2  C2  UNL     1      22.301   0.315  52.486  1.00  0.00    -0.063 C 
HETATM    3  C3  UNL     1      23.043   1.234  53.043  1.00  0.00     0.015 C 
HETATM    4  C4  UNL     1      23.544   2.595  52.899  1.00  0.00     0.167 C 
HETATM    5  C5  UNL     1      22.574   3.411  52.160  1.00  0.00     0.005 C 
HETATM    6  C6  UNL     1      21.457   3.440  51.446  1.00  0.00    -0.019 C 
HETATM    7  C7  UNL     1      20.492   2.669  50.633  1.00  0.00     0.034 C 
HETATM    8  C8  UNL     1      20.844   1.236  50.659  1.00  0.00    -0.017 C 
HETATM    9  C9  UNL     1      21.501   0.270  51.276  1.00  0.00     0.003 C 
HETATM   10  C10 UNL     1      20.436   3.161  49.200  1.00  0.00     0.039 C 
HETATM   11  C11 UNL     1      21.733   3.317  48.554  1.00  0.00    -0.029 C 
HETATM   12  C12 UNL     1      22.544   4.178  47.952  1.00  0.00    -0.027 C 
HETATM   13  C13 UNL     1      22.685   5.588  47.521  1.00  0.00     0.054 C 
HETATM   14  C14 UNL     1      23.841   6.184  48.189  1.00  0.00    -0.016 C 
HETATM   15  C15 UNL     1      24.850   6.145  49.050  1.00  0.00    -0.037 C 
HETATM   16  C17 UNL     1      25.164   4.965  49.969  1.00  0.00     0.203 C 
HETATM   17  O2  UNL     1      26.398   4.466  49.732  1.00  0.00    -0.387 OA
HETATM   18  C18 UNL     1      26.890   3.487  50.493  1.00  0.00     0.170 C 
HETATM   19  C19 UNL     1      26.296   2.144  50.605  1.00  0.00     0.052 C 
HETATM   20  C20 UNL     1      24.921   1.994  51.129  1.00  0.00     0.171 C 
HETATM   21  O3  UNL     1      24.813   2.642  52.343  1.00  0.00    -0.378 OA
ENDROOT
BRANCH  15  22
HETATM   22  C16 UNL     1      25.897   7.174  49.405  1.00  0.00     0.200 C 
BRANCH  22  23
HETATM   23  O1  UNL     1      26.000   7.136  50.798  1.00  0.00    -0.397 OA
HETATM   24  H20 UNL     1      25.287   7.673  51.240  1.00  0.00     0.209 HD
ENDBRANCH  22  23
ENDBRANCH  15  22
TORSDOF 2
ENDMDL
MODEL 6
REMARK VINA RESULT:      -7.1      2.859      5.035
REMARK  2 active torsions:
REMARK  status: ('A' for Active; 'I' for Inactive)
REMARK    1  A    between atoms: C15_15  and  C16_16 
REMARK    2  A    between atoms: C16_16  and  O1_17 
ROOT
HETATM    1  C1  UNL     1      27.265   5.026  48.680  1.00  0.00     0.048 C 
HETATM    2  C2  UNL     1      26.098   4.515  49.487  1.00  0.00    -0.063 C 
HETATM    3  C3  UNL     1      25.116   5.364  49.630  1.00  0.00     0.015 C 
HETATM    4  C4  UNL     1      23.788   5.547  50.203  1.00  0.00     0.167 C 
HETATM    5  C5  UNL     1      23.644   4.727  51.410  1.00  0.00     0.005 C 
HETATM    6  C6  UNL     1      24.159   3.778  52.180  1.00  0.00    -0.019 C 
HETATM    7  C7  UNL     1      25.112   2.652  52.280  1.00  0.00     0.034 C 
HETATM    8  C8  UNL     1      25.901   2.548  51.037  1.00  0.00    -0.017 C 
HETATM    9  C9  UNL     1      26.323   3.155  49.942  1.00  0.00     0.003 C 
HETATM   10  C10 UNL     1      24.410   1.336  52.557  1.00  0.00     0.039 C 
HETATM   11  C11 UNL     1      23.276   1.051  51.686  1.00  0.00    -0.029 C 
HETATM   12  C12 UNL     1      21.974   0.796  51.656  1.00  0.00    -0.027 C 
HETATM   13  C13 UNL     1      20.769   0.625  52.500  1.00  0.00     0.054 C 
HETATM   14  C14 UNL     1      19.774   1.632  52.130  1.00  0.00    -0.016 C 
HETATM   15  C15 UNL     1      19.378   2.695  51.442  1.00  0.00    -0.037 C 
HETATM   16  C17 UNL     1      20.257   3.477  50.466  1.00  0.00     0.203 C 
HETATM   17  O2  UNL     1      19.739   3.472  49.217  1.00  0.00    -0.387 OA
HETATM   18  C18 UNL     1      20.316   4.175  48.242  1.00  0.00     0.170 C 
HETATM   19  C19 UNL     1      21.684   3.940  47.747  1.00  0.00     0.052 C 
HETATM   20  C20 UNL     1      22.831   4.090  48.669  1.00  0.00     0.171 C 
HETATM   21  O3  UNL     1      22.774   5.325  49.283  1.00  0.00    -0.378 OA
ENDROOT
BRANCH  15  22
HETATM   22  C16 UNL     1      18.064   3.439  51.427  1.00  0.00     0.200 C 
BRANCH  22  23
HETATM   23  O1  UNL     1      17.086   2.473  51.677  1.00  0.00    -0.397 OA
HETATM   24  H20 UNL     1      16.165   2.836  51.560  1.00  0.00     0.209 HD
ENDBRANCH  22  23
ENDBRANCH  15  22
TORSDOF 2
ENDMDL
MODEL 7
REMARK VINA RESULT:      -6.9      2.986      5.858
REMARK  2 active torsions:
REMARK  status: ('A' for Active; 'I' for Inactive)
REMARK    1  A    between atoms: C15_15  and  C16_16 
REMARK    2  A    between atoms: C16_16  and  O1_17 
ROOT
HETATM    1  C1  UNL     1      17.796  -1.208  53.465  1.00  0.00     0.048 C 
HETATM    2  C2  UNL     1      19.037  -0.558  52.906  1.00  0.00    -0.063 C 
HETATM    3  C3  UNL     1      18.924  -0.126  51.679  1.00  0.00     0.015 C 
HETATM    4  C4  UNL     1      19.625   0.558  50.599  1.00  0.00     0.167 C 
HETATM    5  C5  UNL     1      21.064   0.287  50.682  1.00  0.00     0.005 C 
HETATM    6  C6  UNL     1      22.061  -0.232  51.387  1.00  0.00    -0.019 C 
HETATM    7  C7  UNL     1      22.529  -0.684  52.715  1.00  0.00     0.034 C 
HETATM    8  C8  UNL     1      21.423  -0.613  53.690  1.00  0.00    -0.017 C 
HETATM    9  C9  UNL     1      20.116  -0.552  53.875  1.00  0.00     0.003 C 
HETATM   10  C10 UNL     1      23.707   0.133  53.211  1.00  0.00     0.039 C 
HETATM   11  C11 UNL     1      23.530   1.577  53.127  1.00  0.00    -0.029 C 
HETATM   12  C12 UNL     1      24.022   2.699  52.615  1.00  0.00    -0.027 C 
HETATM   13  C13 UNL     1      25.102   3.253  51.766  1.00  0.00     0.054 C 
HETATM   14  C14 UNL     1      24.511   3.918  50.605  1.00  0.00    -0.016 C 
HETATM   15  C15 UNL     1      23.476   4.264  49.850  1.00  0.00    -0.037 C 
HETATM   16  C17 UNL     1      22.029   3.846  50.111  1.00  0.00     0.203 C 
HETATM   17  O2  UNL     1      21.228   4.919  50.297  1.00  0.00    -0.387 OA
HETATM   18  C18 UNL     1      19.913   4.763  50.453  1.00  0.00     0.170 C 
HETATM   19  C19 UNL     1      19.289   4.022  51.564  1.00  0.00     0.052 C 
HETATM   20  C20 UNL     1      19.580   2.582  51.737  1.00  0.00     0.171 C 
HETATM   21  O3  UNL     1      19.340   1.915  50.552  1.00  0.00    -0.378 OA
ENDROOT
BRANCH  15  22
HETATM   22  C16 UNL     1      23.398   5.074  48.578  1.00  0.00     0.200 C 
BRANCH  22  23
HETATM   23  O1  UNL     1      22.564   4.348  47.724  1.00  0.00    -0.397 OA
HETATM   24  H20 UNL     1      21.649   4.235  48.102  1.00  0.00     0.209 HD
ENDBRANCH  22  23
ENDBRANCH  15  22
TORSDOF 2
ENDMDL
MODEL 8
REMARK VINA RESULT:      -6.8      8.007      9.892
REMARK  2 active torsions:
REMARK  status: ('A' for Active; 'I' for Inactive)
REMARK    1  A    between atoms: C15_15  and  C16_16 
REMARK    2  A    between atoms: C16_16  and  O1_17 
ROOT
HETATM    1  C1  UNL     1      34.749   4.595  46.649  1.00  0.00     0.048 C 
HETATM    2  C2  UNL     1      33.620   5.462  47.148  1.00  0.00    -0.063 C 
HETATM    3  C3  UNL     1      33.993   6.491  47.861  1.00  0.00     0.015 C 
HETATM    4  C4  UNL     1      33.513   7.663  48.584  1.00  0.00     0.167 C 
HETATM    5  C5  UNL     1      32.169   7.410  49.114  1.00  0.00     0.005 C 
HETATM    6  C6  UNL     1      31.115   6.606  49.141  1.00  0.00    -0.019 C 
HETATM    7  C7  UNL     1      30.381   5.512  48.471  1.00  0.00     0.034 C 
HETATM    8  C8  UNL     1      31.152   5.025  47.310  1.00  0.00    -0.017 C 
HETATM    9  C9  UNL     1      32.331   4.955  46.718  1.00  0.00     0.003 C 
HETATM   10  C10 UNL     1      28.997   5.944  48.026  1.00  0.00     0.039 C 
HETATM   11  C11 UNL     1      28.955   7.198  47.285  1.00  0.00    -0.029 C 
HETATM   12  C12 UNL     1      28.449   8.425  47.264  1.00  0.00    -0.027 C 
HETATM   13  C13 UNL     1      27.567   9.367  47.991  1.00  0.00     0.054 C 
HETATM   14  C14 UNL     1      28.338  10.548  48.378  1.00  0.00    -0.016 C 
HETATM   15  C15 UNL     1      29.470  11.234  48.470  1.00  0.00    -0.037 C 
HETATM   16  C17 UNL     1      30.838  10.721  48.022  1.00  0.00     0.203 C 
HETATM   17  O2  UNL     1      31.374  11.508  47.062  1.00  0.00    -0.387 OA
HETATM   18  C18 UNL     1      32.604  11.273  46.603  1.00  0.00     0.170 C 
HETATM   19  C19 UNL     1      33.011  10.038  45.910  1.00  0.00     0.052 C 
HETATM   20  C20 UNL     1      32.919   8.740  46.614  1.00  0.00     0.171 C 
HETATM   21  O3  UNL     1      33.578   8.822  47.825  1.00  0.00    -0.378 OA
ENDROOT
BRANCH  15  22
HETATM   22  C16 UNL     1      29.761  12.605  49.033  1.00  0.00     0.200 C 
BRANCH  22  23
HETATM   23  O1  UNL     1      28.606  12.977  49.725  1.00  0.00    -0.397 OA
HETATM   24  H20 UNL     1      28.816  13.464  50.569  1.00  0.00     0.209 HD
ENDBRANCH  22  23
ENDBRANCH  15  22
TORSDOF 2
ENDMDL
MODEL 9
REMARK VINA RESULT:      -6.7      6.242      9.489
REMARK  2 active torsions:
REMARK  status: ('A' for Active; 'I' for Inactive)
REMARK    1  A    between atoms: C15_15  and  C16_16 
REMARK    2  A    between atoms: C16_16  and  O1_17 
ROOT
HETATM    1  C1  UNL     1      32.841  11.622  46.526  1.00  0.00     0.048 C 
HETATM    2  C2  UNL     1      31.948  10.603  47.189  1.00  0.00    -0.063 C 
HETATM    3  C3  UNL     1      31.096  11.096  48.047  1.00  0.00     0.015 C 
HETATM    4  C4  UNL     1      30.012  10.758  48.962  1.00  0.00     0.167 C 
HETATM    5  C5  UNL     1      30.200   9.400  49.484  1.00  0.00     0.005 C 
HETATM    6  C6  UNL     1      30.878   8.263  49.412  1.00  0.00    -0.019 C 
HETATM    7  C7  UNL     1      31.764   7.404  48.597  1.00  0.00     0.034 C 
HETATM    8  C8  UNL     1      32.137   8.103  47.351  1.00  0.00    -0.017 C 
HETATM    9  C9  UNL     1      32.236   9.260  46.721  1.00  0.00     0.003 C 
HETATM   10  C10 UNL     1      31.118   6.072  48.267  1.00  0.00     0.039 C 
HETATM   11  C11 UNL     1      29.763   6.162  47.738  1.00  0.00    -0.029 C 
HETATM   12  C12 UNL     1      28.502   5.795  47.928  1.00  0.00    -0.027 C 
HETATM   13  C13 UNL     1      27.600   5.032  48.822  1.00  0.00     0.054 C 
HETATM   14  C14 UNL     1      26.588   5.934  49.371  1.00  0.00    -0.016 C 
HETATM   15  C15 UNL     1      26.052   7.137  49.539  1.00  0.00    -0.037 C 
HETATM   16  C17 UNL     1      26.632   8.434  48.974  1.00  0.00     0.203 C 
HETATM   17  O2  UNL     1      25.762   9.044  48.138  1.00  0.00    -0.387 OA
HETATM   18  C18 UNL     1      26.051  10.235  47.612  1.00  0.00     0.170 C 
HETATM   19  C19 UNL     1      27.193  10.494  46.719  1.00  0.00     0.052 C 
HETATM   20  C20 UNL     1      28.571  10.266  47.208  1.00  0.00     0.171 C 
HETATM   21  O3  UNL     1      28.759  10.943  48.397  1.00  0.00    -0.378 OA
ENDROOT
BRANCH  15  22
HETATM   22  C16 UNL     1      24.831   7.585  50.305  1.00  0.00     0.200 C 
BRANCH  22  23
HETATM   23  O1  UNL     1      24.878   6.895  51.519  1.00  0.00    -0.397 OA
HETATM   24  H20 UNL     1      25.037   7.506  52.290  1.00  0.00     0.209 HD
ENDBRANCH  22  23
ENDBRANCH  15  22
TORSDOF 2
ENDMDL
