MODEL 1
REMARK VINA RESULT:      -7.3      0.000      0.000
REMARK  7 active torsions:
REMARK  status: ('A' for Active; 'I' for Inactive)
REMARK    1  A    between atoms: C3_3  and  N1_4 
REMARK    2  A    between atoms: N1_4  and  C4_5 
REMARK    3  A    between atoms: C4_5  and  C5_6 
REMARK    4  A    between atoms: C10_14  and  C11_15 
REMARK    5  A    between atoms: C11_15  and  C12_16 
REMARK    6  A    between atoms: C12_16  and  C13_17 
REMARK    7  A    between atoms: C13_17  and  C14_18 
ROOT
HETATM    1  C1  UNL     1      22.985   3.034  52.704  1.00  0.00     0.030 C 
HETATM    2  C2  UNL     1      22.067   2.464  51.955  1.00  0.00     0.029 A 
HETATM    3  C3  UNL     1      21.618   3.169  50.864  1.00  0.00     0.137 A 
HETATM    4  N2  UNL     1      20.684   2.534  50.141  1.00  0.00    -0.224 NA
HETATM    5  C9  UNL     1      20.228   1.312  50.460  1.00  0.00     0.235 A 
HETATM    6  N3  UNL     1      20.708   0.683  51.534  1.00  0.00    -0.241 NA
HETATM    7  C10 UNL     1      21.640   1.219  52.326  1.00  0.00     0.071 A 
ENDROOT
BRANCH   7   8
HETATM    8  C11 UNL     1      22.119   0.602  53.392  1.00  0.00     0.032 C 
BRANCH   8   9
HETATM    9  C12 UNL     1      23.057  -0.499  53.409  1.00  0.00     0.003 C 
BRANCH   9  10
HETATM   10  C13 UNL     1      24.230  -0.612  53.969  1.00  0.00     0.010 C 
BRANCH  10  11
HETATM   11  C14 UNL     1      25.438   0.129  53.563  1.00  0.00    -0.023 A 
HETATM   12  C15 UNL     1      25.579   0.505  52.291  1.00  0.00     0.012 A 
HETATM   13  C16 UNL     1      26.840   1.217  52.111  1.00  0.00     0.036 A 
HETATM   14  C17 UNL     1      27.436   1.251  53.317  1.00  0.00     0.082 A 
HETATM   15  O1  UNL     1      28.380   1.511  54.330  1.00  0.00    -0.327 OA
HETATM   16  C19 UNL     1      26.577   0.575  54.361  1.00  0.00     0.214 A 
HETATM   17  C18 UNL     1      28.668   0.235  54.957  1.00  0.00     0.346 C 
HETATM   18  O2  UNL     1      27.404  -0.408  54.887  1.00  0.00    -0.350 OA
ENDBRANCH  10  11
ENDBRANCH   9  10
ENDBRANCH   8   9
ENDBRANCH   7   8
BRANCH   3  19
HETATM   19  N1  UNL     1      22.111   4.459  50.541  1.00  0.00    -0.369 N 
HETATM   20  H3  UNL     1      21.977   5.206  51.285  1.00  0.00     0.161 HD
BRANCH  19  21
HETATM   21  C4  UNL     1      22.757   4.802  49.311  1.00  0.00     0.167 C 
BRANCH  21  22
HETATM   22  C5  UNL     1      24.163   4.567  49.315  1.00  0.00     0.000 A 
HETATM   23  C6  UNL     1      25.069   3.603  49.600  1.00  0.00     0.017 A 
HETATM   24  C7  UNL     1      26.416   3.769  49.465  1.00  0.00     0.008 A 
HETATM   25  C8  UNL     1      26.807   5.120  48.969  1.00  0.00     0.050 A 
HETATM   26  S1  UNL     1      25.201   5.973  48.761  1.00  0.00    -0.105 SA
ENDBRANCH  21  22
ENDBRANCH  19  21
ENDBRANCH   3  19
TORSDOF 7
ENDMDL
MODEL 2
REMARK VINA RESULT:      -7.3      2.396      3.302
REMARK  7 active torsions:
REMARK  status: ('A' for Active; 'I' for Inactive)
REMARK    1  A    between atoms: C3_3  and  N1_4 
REMARK    2  A    between atoms: N1_4  and  C4_5 
REMARK    3  A    between atoms: C4_5  and  C5_6 
REMARK    4  A    between atoms: C10_14  and  C11_15 
REMARK    5  A    between atoms: C11_15  and  C12_16 
REMARK    6  A    between atoms: C12_16  and  C13_17 
REMARK    7  A    between atoms: C13_17  and  C14_18 
ROOT
HETATM    1  C1  UNL     1      23.142   1.623  52.776  1.00  0.00     0.030 C 
HETATM    2  C2  UNL     1      22.300   0.707  53.200  1.00  0.00     0.029 A 
HETATM    3  C3  UNL     1      20.961   1.020  53.166  1.00  0.00     0.137 A 
HETATM    4  N2  UNL     1      20.154   0.046  53.611  1.00  0.00    -0.224 NA
HETATM    5  C9  UNL     1      20.618  -1.135  54.051  1.00  0.00     0.235 A 
HETATM    6  N3  UNL     1      21.930  -1.373  54.058  1.00  0.00    -0.241 NA
HETATM    7  C10 UNL     1      22.827  -0.476  53.638  1.00  0.00     0.071 A 
ENDROOT
BRANCH   7   8
HETATM    8  C11 UNL     1      24.128  -0.705  53.641  1.00  0.00     0.032 C 
BRANCH   8   9
HETATM    9  C12 UNL     1      24.982  -0.840  54.801  1.00  0.00     0.003 C 
BRANCH   9  10
HETATM   10  C13 UNL     1      25.875  -0.032  55.302  1.00  0.00     0.010 C 
BRANCH  10  11
HETATM   11  C14 UNL     1      27.054   0.482  54.581  1.00  0.00    -0.023 A 
HETATM   12  C15 UNL     1      26.954   1.617  53.887  1.00  0.00     0.012 A 
HETATM   13  C16 UNL     1      28.230   1.936  53.254  1.00  0.00     0.036 A 
HETATM   14  C17 UNL     1      29.084   0.955  53.599  1.00  0.00     0.082 A 
HETATM   15  O1  UNL     1      30.261   0.186  53.695  1.00  0.00    -0.327 OA
HETATM   16  C19 UNL     1      28.411  -0.053  54.501  1.00  0.00     0.214 A 
HETATM   17  C18 UNL     1      29.896  -1.166  53.318  1.00  0.00     0.346 C 
HETATM   18  O2  UNL     1      28.577  -1.259  53.833  1.00  0.00    -0.350 OA
ENDBRANCH  10  11
ENDBRANCH   9  10
ENDBRANCH   8   9
ENDBRANCH   7   8
BRANCH   3  19
HETATM   19  N1  UNL     1      20.488   2.271  52.695  1.00  0.00    -0.369 N 
HETATM   20  H3  UNL     1      20.665   3.103  53.334  1.00  0.00     0.161 HD
BRANCH  19  21
HETATM   21  C4  UNL     1      19.807   2.472  51.453  1.00  0.00     0.167 C 
BRANCH  21  22
HETATM   22  C5  UNL     1      20.603   2.179  50.307  1.00  0.00     0.000 A 
HETATM   23  C6  UNL     1      20.927   1.154  49.484  1.00  0.00     0.017 A 
HETATM   24  C7  UNL     1      21.777   1.277  48.425  1.00  0.00     0.008 A 
HETATM   25  C8  UNL     1      22.324   2.654  48.251  1.00  0.00     0.050 A 
HETATM   26  S1  UNL     1      21.551   3.590  49.622  1.00  0.00    -0.105 SA
ENDBRANCH  21  22
ENDBRANCH  19  21
ENDBRANCH   3  19
TORSDOF 7
ENDMDL
MODEL 3
REMARK VINA RESULT:      -7.2      4.384      6.748
REMARK  7 active torsions:
REMARK  status: ('A' for Active; 'I' for Inactive)
REMARK    1  A    between atoms: C3_3  and  N1_4 
REMARK    2  A    between atoms: N1_4  and  C4_5 
REMARK    3  A    between atoms: C4_5  and  C5_6 
REMARK    4  A    between atoms: C10_14  and  C11_15 
REMARK    5  A    between atoms: C11_15  and  C12_16 
REMARK    6  A    between atoms: C12_16  and  C13_17 
REMARK    7  A    between atoms: C13_17  and  C14_18 
ROOT
HETATM    1  C1  UNL     1      21.181  -1.239  54.481  1.00  0.00     0.030 C 
HETATM    2  C2  UNL     1      20.963  -0.608  53.348  1.00  0.00     0.029 A 
HETATM    3  C3  UNL     1      19.660  -0.520  52.918  1.00  0.00     0.137 A 
HETATM    4  N2  UNL     1      19.504   0.134  51.757  1.00  0.00    -0.224 NA
HETATM    5  C9  UNL     1      20.536   0.658  51.076  1.00  0.00     0.235 A 
HETATM    6  N3  UNL     1      21.776   0.535  51.551  1.00  0.00    -0.241 NA
HETATM    7  C10 UNL     1      22.050  -0.095  52.696  1.00  0.00     0.071 A 
ENDROOT
BRANCH   7   8
HETATM    8  C11 UNL     1      23.277  -0.221  53.172  1.00  0.00     0.032 C 
BRANCH   8   9
HETATM    9  C12 UNL     1      24.308   0.793  53.192  1.00  0.00     0.003 C 
BRANCH   9  10
HETATM   10  C13 UNL     1      25.390   0.925  52.476  1.00  0.00     0.010 C 
BRANCH  10  11
HETATM   11  C14 UNL     1      26.757   1.036  53.018  1.00  0.00    -0.023 A 
HETATM   12  C15 UNL     1      27.385   2.212  52.973  1.00  0.00     0.012 A 
HETATM   13  C16 UNL     1      28.718   2.096  53.556  1.00  0.00     0.036 A 
HETATM   14  C17 UNL     1      28.853   0.816  53.948  1.00  0.00     0.082 A 
HETATM   15  O1  UNL     1      29.412  -0.361  54.485  1.00  0.00    -0.327 OA
HETATM   16  C19 UNL     1      27.597   0.028  53.658  1.00  0.00     0.214 A 
HETATM   17  C18 UNL     1      29.277  -1.380  53.461  1.00  0.00     0.346 C 
HETATM   18  O2  UNL     1      28.039  -1.023  52.866  1.00  0.00    -0.350 OA
ENDBRANCH  10  11
ENDBRANCH   9  10
ENDBRANCH   8   9
ENDBRANCH   7   8
BRANCH   3  19
HETATM   19  N1  UNL     1      18.582  -1.076  53.651  1.00  0.00    -0.369 N 
HETATM   20  H3  UNL     1      18.790  -1.327  54.663  1.00  0.00     0.161 HD
BRANCH  19  21
HETATM   21  C4  UNL     1      17.272  -1.315  53.125  1.00  0.00     0.167 C 
BRANCH  21  22
HETATM   22  C5  UNL     1      16.870  -2.681  53.183  1.00  0.00     0.000 A 
HETATM   23  C6  UNL     1      17.277  -3.880  53.662  1.00  0.00     0.017 A 
HETATM   24  C7  UNL     1      16.569  -5.035  53.507  1.00  0.00     0.008 A 
HETATM   25  C8  UNL     1      15.293  -4.860  52.756  1.00  0.00     0.050 A 
HETATM   26  S1  UNL     1      15.273  -3.070  52.371  1.00  0.00    -0.105 SA
ENDBRANCH  21  22
ENDBRANCH  19  21
ENDBRANCH   3  19
TORSDOF 7
ENDMDL
MODEL 4
REMARK VINA RESULT:      -7.2      2.351      4.614
REMARK  7 active torsions:
REMARK  status: ('A' for Active; 'I' for Inactive)
REMARK    1  A    between atoms: C3_3  and  N1_4 
REMARK    2  A    between atoms: N1_4  and  C4_5 
REMARK    3  A    between atoms: C4_5  and  C5_6 
REMARK    4  A    between atoms: C10_14  and  C11_15 
REMARK    5  A    between atoms: C11_15  and  C12_16 
REMARK    6  A    between atoms: C12_16  and  C13_17 
REMARK    7  A    between atoms: C13_17  and  C14_18 
ROOT
HETATM    1  C1  UNL     1      23.569   3.747  52.551  1.00  0.00     0.030 C 
HETATM    2  C2  UNL     1      23.187   3.480  51.321  1.00  0.00     0.029 A 
HETATM    3  C3  UNL     1      21.862   3.168  51.127  1.00  0.00     0.137 A 
HETATM    4  N2  UNL     1      21.537   2.905  49.853  1.00  0.00    -0.224 NA
HETATM    5  C9  UNL     1      22.433   2.946  48.853  1.00  0.00     0.235 A 
HETATM    6  N3  UNL     1      23.704   3.256  49.112  1.00  0.00    -0.241 NA
HETATM    7  C10 UNL     1      24.141   3.536  50.343  1.00  0.00     0.071 A 
ENDROOT
BRANCH   7   8
HETATM    8  C11 UNL     1      25.399   3.844  50.607  1.00  0.00     0.032 C 
BRANCH   8   9
HETATM    9  C12 UNL     1      26.510   2.926  50.727  1.00  0.00     0.003 C 
BRANCH   9  10
HETATM   10  C13 UNL     1      26.536   1.626  50.832  1.00  0.00     0.010 C 
BRANCH  10  11
HETATM   11  C14 UNL     1      26.540   0.878  52.102  1.00  0.00    -0.023 A 
HETATM   12  C15 UNL     1      25.381   0.507  52.648  1.00  0.00     0.012 A 
HETATM   13  C16 UNL     1      25.616  -0.214  53.895  1.00  0.00     0.036 A 
HETATM   14  C17 UNL     1      26.950  -0.258  54.065  1.00  0.00     0.082 A 
HETATM   15  O1  UNL     1      28.213  -0.530  54.627  1.00  0.00    -0.327 OA
HETATM   16  C19 UNL     1      27.663   0.419  52.916  1.00  0.00     0.214 A 
HETATM   17  C18 UNL     1      28.909   0.740  54.702  1.00  0.00     0.346 C 
HETATM   18  O2  UNL     1      28.436   1.393  53.534  1.00  0.00    -0.350 OA
ENDBRANCH  10  11
ENDBRANCH   9  10
ENDBRANCH   8   9
ENDBRANCH   7   8
BRANCH   3  19
HETATM   19  N1  UNL     1      20.929   3.131  52.194  1.00  0.00    -0.369 N 
HETATM   20  H3  UNL     1      20.920   3.983  52.830  1.00  0.00     0.161 HD
BRANCH  19  21
HETATM   21  C4  UNL     1      20.029   2.050  52.456  1.00  0.00     0.167 C 
BRANCH  21  22
HETATM   22  C5  UNL     1      20.634   0.950  53.132  1.00  0.00     0.000 A 
HETATM   23  C6  UNL     1      21.795   0.590  53.728  1.00  0.00     0.017 A 
HETATM   24  C7  UNL     1      22.002  -0.631  54.301  1.00  0.00     0.008 A 
HETATM   25  C8  UNL     1      20.826  -1.543  54.211  1.00  0.00     0.050 A 
HETATM   26  S1  UNL     1      19.580  -0.537  53.323  1.00  0.00    -0.105 SA
ENDBRANCH  21  22
ENDBRANCH  19  21
ENDBRANCH   3  19
TORSDOF 7
ENDMDL
MODEL 5
REMARK VINA RESULT:      -7.1      3.437      5.474
REMARK  7 active torsions:
REMARK  status: ('A' for Active; 'I' for Inactive)
REMARK    1  A    between atoms: C3_3  and  N1_4 
REMARK    2  A    between atoms: N1_4  and  C4_5 
REMARK    3  A    between atoms: C4_5  and  C5_6 
REMARK    4  A    between atoms: C10_14  and  C11_15 
REMARK    5  A    between atoms: C11_15  and  C12_16 
REMARK    6  A    between atoms: C12_16  and  C13_17 
REMARK    7  A    between atoms: C13_17  and  C14_18 
ROOT
HETATM    1  C1  UNL     1      24.091   2.177  53.015  1.00  0.00     0.030 C 
HETATM    2  C2  UNL     1      24.962   1.217  52.795  1.00  0.00     0.029 A 
HETATM    3  C3  UNL     1      26.106   1.550  52.109  1.00  0.00     0.137 A 
HETATM    4  N2  UNL     1      26.953   0.529  51.917  1.00  0.00    -0.224 NA
HETATM    5  C9  UNL     1      26.702  -0.714  52.360  1.00  0.00     0.235 A 
HETATM    6  N3  UNL     1      25.571  -0.969  53.019  1.00  0.00    -0.241 NA
HETATM    7  C10 UNL     1      24.655  -0.029  53.268  1.00  0.00     0.071 A 
ENDROOT
BRANCH   7   8
HETATM    8  C11 UNL     1      23.532  -0.274  53.921  1.00  0.00     0.032 C 
BRANCH   8   9
HETATM    9  C12 UNL     1      22.327  -0.864  53.382  1.00  0.00     0.003 C 
BRANCH   9  10
HETATM   10  C13 UNL     1      21.148  -0.350  53.163  1.00  0.00     0.010 C 
BRANCH  10  11
HETATM   11  C14 UNL     1      20.777   0.444  51.976  1.00  0.00    -0.023 A 
HETATM   12  C15 UNL     1      21.470   0.295  50.847  1.00  0.00     0.012 A 
HETATM   13  C16 UNL     1      20.939   1.173  49.809  1.00  0.00     0.036 A 
HETATM   14  C17 UNL     1      19.910   1.841  50.363  1.00  0.00     0.082 A 
HETATM   15  O1  UNL     1      18.824   2.725  50.515  1.00  0.00    -0.327 OA
HETATM   16  C19 UNL     1      19.701   1.414  51.797  1.00  0.00     0.214 A 
HETATM   17  C18 UNL     1      19.117   3.533  51.684  1.00  0.00     0.346 C 
HETATM   18  O2  UNL     1      19.792   2.600  52.513  1.00  0.00    -0.350 OA
ENDBRANCH  10  11
ENDBRANCH   9  10
ENDBRANCH   8   9
ENDBRANCH   7   8
BRANCH   3  19
HETATM   19  N1  UNL     1      26.356   2.868  51.650  1.00  0.00    -0.369 N 
HETATM   20  H3  UNL     1      26.434   3.614  52.404  1.00  0.00     0.161 HD
BRANCH  19  21
HETATM   21  C4  UNL     1      26.505   3.241  50.277  1.00  0.00     0.167 C 
BRANCH  21  22
HETATM   22  C5  UNL     1      25.297   3.695  49.670  1.00  0.00     0.000 A 
HETATM   23  C6  UNL     1      24.073   3.251  49.300  1.00  0.00     0.017 A 
HETATM   24  C7  UNL     1      23.130   4.041  48.713  1.00  0.00     0.008 A 
HETATM   25  C8  UNL     1      23.569   5.452  48.513  1.00  0.00     0.050 A 
HETATM   26  S1  UNL     1      25.270   5.464  49.190  1.00  0.00    -0.105 SA
ENDBRANCH  21  22
ENDBRANCH  19  21
ENDBRANCH   3  19
TORSDOF 7
ENDMDL
MODEL 6
REMARK VINA RESULT:      -7.0      2.963      4.541
REMARK  7 active torsions:
REMARK  status: ('A' for Active; 'I' for Inactive)
REMARK    1  A    between atoms: C3_3  and  N1_4 
REMARK    2  A    between atoms: N1_4  and  C4_5 
REMARK    3  A    between atoms: C4_5  and  C5_6 
REMARK    4  A    between atoms: C10_14  and  C11_15 
REMARK    5  A    between atoms: C11_15  and  C12_16 
REMARK    6  A    between atoms: C12_16  and  C13_17 
REMARK    7  A    between atoms: C13_17  and  C14_18 
ROOT
HETATM    1  C1  UNL     1      26.466   2.918  49.875  1.00  0.00     0.030 C 
HETATM    2  C2  UNL     1      25.867   4.079  50.021  1.00  0.00     0.029 A 
HETATM    3  C3  UNL     1      26.538   5.194  49.575  1.00  0.00     0.137 A 
HETATM    4  N2  UNL     1      25.875   6.346  49.753  1.00  0.00    -0.224 NA
HETATM    5  C9  UNL     1      24.658   6.402  50.318  1.00  0.00     0.235 A 
HETATM    6  N3  UNL     1      24.063   5.281  50.728  1.00  0.00    -0.241 NA
HETATM    7  C10 UNL     1      24.630   4.077  50.602  1.00  0.00     0.071 A 
ENDROOT
BRANCH   7   8
HETATM    8  C11 UNL     1      24.047   2.962  51.007  1.00  0.00     0.032 C 
BRANCH   8   9
HETATM    9  C12 UNL     1      23.888   2.512  52.372  1.00  0.00     0.003 C 
BRANCH   9  10
HETATM   10  C13 UNL     1      24.774   2.166  53.265  1.00  0.00     0.010 C 
BRANCH  10  11
HETATM   11  C14 UNL     1      25.773   1.094  53.097  1.00  0.00    -0.023 A 
HETATM   12  C15 UNL     1      25.405  -0.063  52.546  1.00  0.00     0.012 A 
HETATM   13  C16 UNL     1      26.542  -0.976  52.480  1.00  0.00     0.036 A 
HETATM   14  C17 UNL     1      27.591  -0.319  53.008  1.00  0.00     0.082 A 
HETATM   15  O1  UNL     1      28.895  -0.035  53.459  1.00  0.00    -0.327 OA
HETATM   16  C19 UNL     1      27.195   1.078  53.429  1.00  0.00     0.214 A 
HETATM   17  C18 UNL     1      28.763   0.423  54.829  1.00  0.00     0.346 C 
HETATM   18  O2  UNL     1      27.530   1.125  54.776  1.00  0.00    -0.350 OA
ENDBRANCH  10  11
ENDBRANCH   9  10
ENDBRANCH   8   9
ENDBRANCH   7   8
BRANCH   3  19
HETATM   19  N1  UNL     1      27.822   5.117  48.979  1.00  0.00    -0.369 N 
HETATM   20  H3  UNL     1      28.336   4.194  49.104  1.00  0.00     0.161 HD
BRANCH  19  21
HETATM   21  C4  UNL     1      28.447   6.174  48.245  1.00  0.00     0.167 C 
BRANCH  21  22
HETATM   22  C5  UNL     1      29.857   6.019  48.102  1.00  0.00     0.000 A 
HETATM   23  C6  UNL     1      30.781   5.120  47.688  1.00  0.00     0.017 A 
HETATM   24  C7  UNL     1      32.124   5.357  47.703  1.00  0.00     0.008 A 
HETATM   25  C8  UNL     1      32.489   6.708  48.219  1.00  0.00     0.050 A 
HETATM   26  S1  UNL     1      30.867   7.460  48.615  1.00  0.00    -0.105 SA
ENDBRANCH  21  22
ENDBRANCH  19  21
ENDBRANCH   3  19
TORSDOF 7
ENDMDL
MODEL 7
REMARK VINA RESULT:      -6.9      3.544      5.773
REMARK  7 active torsions:
REMARK  status: ('A' for Active; 'I' for Inactive)
REMARK    1  A    between atoms: C3_3  and  N1_4 
REMARK    2  A    between atoms: N1_4  and  C4_5 
REMARK    3  A    between atoms: C4_5  and  C5_6 
REMARK    4  A    between atoms: C10_14  and  C11_15 
REMARK    5  A    between atoms: C11_15  and  C12_16 
REMARK    6  A    between atoms: C12_16  and  C13_17 
REMARK    7  A    between atoms: C13_17  and  C14_18 
ROOT
HETATM    1  C1  UNL     1      28.097   5.337  48.275  1.00  0.00     0.030 C 
HETATM    2  C2  UNL     1      27.115   5.912  48.934  1.00  0.00     0.029 A 
HETATM    3  C3  UNL     1      27.110   7.287  48.983  1.00  0.00     0.137 A 
HETATM    4  N2  UNL     1      26.085   7.812  49.668  1.00  0.00    -0.224 NA
HETATM    5  C9  UNL     1      25.143   7.056  50.256  1.00  0.00     0.235 A 
HETATM    6  N3  UNL     1      25.208   5.726  50.170  1.00  0.00    -0.241 NA
HETATM    7  C10 UNL     1      26.185   5.095  49.513  1.00  0.00     0.071 A 
ENDROOT
BRANCH   7   8
HETATM    8  C11 UNL     1      26.256   3.778  49.423  1.00  0.00     0.032 C 
BRANCH   8   9
HETATM    9  C12 UNL     1      26.098   2.825  50.500  1.00  0.00     0.003 C 
BRANCH   9  10
HETATM   10  C13 UNL     1      26.869   2.549  51.515  1.00  0.00     0.010 C 
BRANCH  10  11
HETATM   11  C14 UNL     1      26.942   1.241  52.193  1.00  0.00    -0.023 A 
HETATM   12  C15 UNL     1      25.957   0.359  52.021  1.00  0.00     0.012 A 
HETATM   13  C16 UNL     1      26.229  -0.857  52.780  1.00  0.00     0.036 A 
HETATM   14  C17 UNL     1      27.406  -0.664  53.403  1.00  0.00     0.082 A 
HETATM   15  O1  UNL     1      28.540  -0.889  54.208  1.00  0.00    -0.327 OA
HETATM   16  C19 UNL     1      27.979   0.693  53.062  1.00  0.00     0.214 A 
HETATM   17  C18 UNL     1      28.626   0.239  55.116  1.00  0.00     0.346 C 
HETATM   18  O2  UNL     1      28.155   1.299  54.298  1.00  0.00    -0.350 OA
ENDBRANCH  10  11
ENDBRANCH   9  10
ENDBRANCH   8   9
ENDBRANCH   7   8
BRANCH   3  19
HETATM   19  N1  UNL     1      28.111   8.070  48.354  1.00  0.00    -0.369 N 
HETATM   20  H3  UNL     1      28.066   8.115  47.293  1.00  0.00     0.161 HD
BRANCH  19  21
HETATM   21  C4  UNL     1      29.147   8.778  49.043  1.00  0.00     0.167 C 
BRANCH  21  22
HETATM   22  C5  UNL     1      30.453   8.256  48.809  1.00  0.00     0.000 A 
HETATM   23  C6  UNL     1      31.567   7.870  49.475  1.00  0.00     0.017 A 
HETATM   24  C7  UNL     1      32.686   7.391  48.859  1.00  0.00     0.008 A 
HETATM   25  C8  UNL     1      32.573   7.330  47.373  1.00  0.00     0.050 A 
HETATM   26  S1  UNL     1      30.885   7.963  47.052  1.00  0.00    -0.105 SA
ENDBRANCH  21  22
ENDBRANCH  19  21
ENDBRANCH   3  19
TORSDOF 7
ENDMDL
MODEL 8
REMARK VINA RESULT:      -6.9      1.942      2.895
REMARK  7 active torsions:
REMARK  status: ('A' for Active; 'I' for Inactive)
REMARK    1  A    between atoms: C3_3  and  N1_4 
REMARK    2  A    between atoms: N1_4  and  C4_5 
REMARK    3  A    between atoms: C4_5  and  C5_6 
REMARK    4  A    between atoms: C10_14  and  C11_15 
REMARK    5  A    between atoms: C11_15  and  C12_16 
REMARK    6  A    between atoms: C12_16  and  C13_17 
REMARK    7  A    between atoms: C13_17  and  C14_18 
ROOT
HETATM    1  C1  UNL     1      25.027   3.133  49.757  1.00  0.00     0.030 C 
HETATM    2  C2  UNL     1      24.061   3.824  50.322  1.00  0.00     0.029 A 
HETATM    3  C3  UNL     1      23.875   5.116  49.889  1.00  0.00     0.137 A 
HETATM    4  N2  UNL     1      22.876   5.766  50.503  1.00  0.00    -0.224 NA
HETATM    5  C9  UNL     1      22.123   5.199  51.460  1.00  0.00     0.235 A 
HETATM    6  N3  UNL     1      22.358   3.941  51.833  1.00  0.00    -0.241 NA
HETATM    7  C10 UNL     1      23.326   3.198  51.290  1.00  0.00     0.071 A 
ENDROOT
BRANCH   7   8
HETATM    8  C11 UNL     1      23.565   1.950  51.655  1.00  0.00     0.032 C 
BRANCH   8   9
HETATM    9  C12 UNL     1      24.072   1.502  52.932  1.00  0.00     0.003 C 
BRANCH   9  10
HETATM   10  C13 UNL     1      24.996   0.628  53.226  1.00  0.00     0.010 C 
BRANCH  10  11
HETATM   11  C14 UNL     1      26.423   0.940  53.431  1.00  0.00    -0.023 A 
HETATM   12  C15 UNL     1      26.863   2.177  53.194  1.00  0.00     0.012 A 
HETATM   13  C16 UNL     1      28.296   2.262  53.456  1.00  0.00     0.036 A 
HETATM   14  C17 UNL     1      28.685   1.037  53.857  1.00  0.00     0.082 A 
HETATM   15  O1  UNL     1      29.501  -0.025  54.295  1.00  0.00    -0.327 OA
HETATM   16  C19 UNL     1      27.511   0.086  53.898  1.00  0.00     0.214 A 
HETATM   17  C18 UNL     1      29.275  -1.121  53.372  1.00  0.00     0.346 C 
HETATM   18  O2  UNL     1      27.899  -0.956  53.067  1.00  0.00    -0.350 OA
ENDBRANCH  10  11
ENDBRANCH   9  10
ENDBRANCH   8   9
ENDBRANCH   7   8
BRANCH   3  19
HETATM   19  N1  UNL     1      24.679   5.698  48.876  1.00  0.00    -0.369 N 
HETATM   20  H3  UNL     1      24.540   5.310  47.895  1.00  0.00     0.161 HD
BRANCH  19  21
HETATM   21  C4  UNL     1      25.635   6.740  49.090  1.00  0.00     0.167 C 
BRANCH  21  22
HETATM   22  C5  UNL     1      26.967   6.381  48.729  1.00  0.00     0.000 A 
HETATM   23  C6  UNL     1      27.753   5.293  48.553  1.00  0.00     0.017 A 
HETATM   24  C7  UNL     1      29.063   5.362  48.178  1.00  0.00     0.008 A 
HETATM   25  C8  UNL     1      29.557   6.754  47.976  1.00  0.00     0.050 A 
HETATM   26  S1  UNL     1      28.087   7.781  48.348  1.00  0.00    -0.105 SA
ENDBRANCH  21  22
ENDBRANCH  19  21
ENDBRANCH   3  19
TORSDOF 7
ENDMDL
MODEL 9
REMARK VINA RESULT:      -6.8      4.342      6.870
REMARK  7 active torsions:
REMARK  status: ('A' for Active; 'I' for Inactive)
REMARK    1  A    between atoms: C3_3  and  N1_4 
REMARK    2  A    between atoms: N1_4  and  C4_5 
REMARK    3  A    between atoms: C4_5  and  C5_6 
REMARK    4  A    between atoms: C10_14  and  C11_15 
REMARK    5  A    between atoms: C11_15  and  C12_16 
REMARK    6  A    between atoms: C12_16  and  C13_17 
REMARK    7  A    between atoms: C13_17  and  C14_18 
ROOT
HETATM    1  C1  UNL     1      20.082   0.466  52.102  1.00  0.00     0.030 C 
HETATM    2  C2  UNL     1      20.856  -0.140  52.974  1.00  0.00     0.029 A 
HETATM    3  C3  UNL     1      20.250  -0.982  53.877  1.00  0.00     0.137 A 
HETATM    4  N2  UNL     1      21.093  -1.569  54.739  1.00  0.00    -0.224 NA
HETATM    5  C9  UNL     1      22.418  -1.350  54.719  1.00  0.00     0.235 A 
HETATM    6  N3  UNL     1      22.941  -0.520  53.815  1.00  0.00    -0.241 NA
HETATM    7  C10 UNL     1      22.197   0.119  52.909  1.00  0.00     0.071 A 
ENDROOT
BRANCH   7   8
HETATM    8  C11 UNL     1      22.709   0.943  52.011  1.00  0.00     0.032 C 
BRANCH   8   9
HETATM    9  C12 UNL     1      23.870   1.789  52.172  1.00  0.00     0.003 C 
BRANCH   9  10
HETATM   10  C13 UNL     1      25.064   1.709  51.652  1.00  0.00     0.010 C 
BRANCH  10  11
HETATM   11  C14 UNL     1      26.262   1.209  52.351  1.00  0.00    -0.023 A 
HETATM   12  C15 UNL     1      27.312   2.016  52.509  1.00  0.00     0.012 A 
HETATM   13  C16 UNL     1      28.381   1.320  53.219  1.00  0.00     0.036 A 
HETATM   14  C17 UNL     1      27.926   0.080  53.475  1.00  0.00     0.082 A 
HETATM   15  O1  UNL     1      27.874  -1.252  53.932  1.00  0.00    -0.327 OA
HETATM   16  C19 UNL     1      26.516  -0.094  52.960  1.00  0.00     0.214 A 
HETATM   17  C18 UNL     1      27.490  -2.060  52.790  1.00  0.00     0.346 C 
HETATM   18  O2  UNL     1      26.607  -1.185  52.106  1.00  0.00    -0.350 OA
ENDBRANCH  10  11
ENDBRANCH   9  10
ENDBRANCH   8   9
ENDBRANCH   7   8
BRANCH   3  19
HETATM   19  N1  UNL     1      18.849  -1.203  53.883  1.00  0.00    -0.369 N 
HETATM   20  H3  UNL     1      18.243  -0.331  53.956  1.00  0.00     0.161 HD
BRANCH  19  21
HETATM   21  C4  UNL     1      18.224  -2.487  53.800  1.00  0.00     0.167 C 
BRANCH  21  22
HETATM   22  C5  UNL     1      16.992  -2.481  53.083  1.00  0.00     0.000 A 
HETATM   23  C6  UNL     1      16.210  -1.664  52.338  1.00  0.00     0.017 A 
HETATM   24  C7  UNL     1      15.026  -2.051  51.785  1.00  0.00     0.008 A 
HETATM   25  C8  UNL     1      14.663  -3.468  52.074  1.00  0.00     0.050 A 
HETATM   26  S1  UNL     1      16.061  -4.060  53.098  1.00  0.00    -0.105 SA
ENDBRANCH  21  22
ENDBRANCH  19  21
ENDBRANCH   3  19
TORSDOF 7
ENDMDL
