MODEL 1
REMARK VINA RESULT:      -8.3      0.000      0.000
REMARK  8 active torsions:
REMARK  status: ('A' for Active; 'I' for Inactive)
REMARK    1  A    between atoms: C2_2  and  N1_3 
REMARK    2  A    between atoms: C9_11  and  N3_12 
REMARK       I    between atoms: N3_12  and  C10_13 
REMARK    3  A    between atoms: C10_13  and  C11_15 
REMARK    4  A    between atoms: C11_15  and  C12_16 
REMARK    5  A    between atoms: C12_16  and  C13_17 
REMARK    6  A    between atoms: C13_17  and  O2_18 
REMARK    7  A    between atoms: C17_22  and  N4_23 
REMARK    8  A    between atoms: N4_23  and  C18_24 
ROOT
HETATM    1  N1  UNL     1      25.050   3.446  50.721  1.00  0.00    -0.261 NA
HETATM    2  C3  UNL     1      24.062   2.667  50.356  1.00  0.00     0.067 C 
HETATM    3  C4  UNL     1      23.452   2.922  49.032  1.00  0.00     0.028 C 
HETATM    4  C5  UNL     1      22.410   2.318  48.441  1.00  0.00    -0.023 C 
HETATM    5  C6  UNL     1      21.543   1.213  48.919  1.00  0.00     0.052 C 
HETATM    6  C7  UNL     1      20.786   1.528  50.178  1.00  0.00     0.146 C 
HETATM    7  C8  UNL     1      19.377   1.183  50.004  1.00  0.00     0.070 C 
HETATM    8  N2  UNL     1      18.240   0.913  49.845  1.00  0.00    -0.197 NA
HETATM    9  C9  UNL     1      21.316   0.795  51.353  1.00  0.00     0.030 C 
HETATM   10  C15 UNL     1      22.568   0.960  51.743  1.00  0.00     0.041 C 
HETATM   11  C16 UNL     1      23.795   1.679  51.425  1.00  0.00     0.010 C 
HETATM   12  C17 UNL     1      24.818   1.398  52.215  1.00  0.00     0.102 C 
ENDROOT
BRANCH   9  13
HETATM   13  N3  UNL     1      20.443  -0.052  52.016  1.00  0.00    -0.329 N 
HETATM   14  C10 UNL     1      19.976  -0.263  53.306  1.00  0.00     0.222 C 
HETATM   15  O1  UNL     1      20.418   0.490  54.203  1.00  0.00    -0.273 OA
HETATM   16  H9  UNL     1      20.001  -0.740  51.368  1.00  0.00     0.168 HD
BRANCH  14  17
HETATM   17  C11 UNL     1      19.013  -1.289  53.691  1.00  0.00     0.105 C 
BRANCH  17  18
HETATM   18  C12 UNL     1      17.758  -1.336  52.945  1.00  0.00     0.035 C 
BRANCH  18  19
HETATM   19  C13 UNL     1      16.848  -2.503  53.030  1.00  0.00     0.167 C 
BRANCH  19  20
HETATM   20  O2  UNL     1      17.274  -3.700  53.405  1.00  0.00    -0.396 OA
HETATM   21  C14 UNL     1      16.488  -4.661  53.900  1.00  0.00     0.201 C 
ENDBRANCH  19  20
ENDBRANCH  18  19
ENDBRANCH  17  18
ENDBRANCH  14  17
ENDBRANCH   9  13
BRANCH  12  22
HETATM   22  N4  UNL     1      26.082   2.009  52.041  1.00  0.00    -0.365 N 
HETATM   23  H21 UNL     1      26.306   2.839  51.413  1.00  0.00     0.165 HD
BRANCH  22  24
HETATM   24  C18 UNL     1      27.253   1.542  52.730  1.00  0.00     0.033 A 
HETATM   25  C19 UNL     1      28.151   2.333  53.447  1.00  0.00     0.029 A 
HETATM   26  C20 UNL     1      29.237   1.743  54.057  1.00  0.00     0.004 A 
HETATM   27  C21 UNL     1      29.491   0.384  53.997  1.00  0.00     0.019 A 
HETATM   28  C22 UNL     1      28.612  -0.420  53.290  1.00  0.00     0.013 A 
HETATM   29 BR1  UNL     1      28.942  -2.290  53.195  1.00  0.00    -0.051 Br
HETATM   30  C23 UNL     1      27.531   0.178  52.683  1.00  0.00     0.048 A 
ENDBRANCH  22  24
ENDBRANCH  12  22
BRANCH   1  31
HETATM   31  C2  UNL     1      25.432   4.455  49.802  1.00  0.00     0.107 C 
HETATM   32  C1  UNL     1      26.578   4.701  49.187  1.00  0.00     0.032 C 
ENDBRANCH   1  31
TORSDOF 8
ENDMDL
MODEL 2
REMARK VINA RESULT:      -8.2      3.523      5.494
REMARK  8 active torsions:
REMARK  status: ('A' for Active; 'I' for Inactive)
REMARK    1  A    between atoms: C2_2  and  N1_3 
REMARK    2  A    between atoms: C9_11  and  N3_12 
REMARK       I    between atoms: N3_12  and  C10_13 
REMARK    3  A    between atoms: C10_13  and  C11_15 
REMARK    4  A    between atoms: C11_15  and  C12_16 
REMARK    5  A    between atoms: C12_16  and  C13_17 
REMARK    6  A    between atoms: C13_17  and  O2_18 
REMARK    7  A    between atoms: C17_22  and  N4_23 
REMARK    8  A    between atoms: N4_23  and  C18_24 
ROOT
HETATM    1  N1  UNL     1      24.773   0.773  52.129  1.00  0.00    -0.261 NA
HETATM    2  C3  UNL     1      23.564   0.755  52.635  1.00  0.00     0.067 C 
HETATM    3  C4  UNL     1      23.323  -0.151  53.780  1.00  0.00     0.028 C 
HETATM    4  C5  UNL     1      22.185  -0.400  54.446  1.00  0.00    -0.023 C 
HETATM    5  C6  UNL     1      20.819   0.145  54.252  1.00  0.00     0.052 C 
HETATM    6  C7  UNL     1      20.224  -0.156  52.906  1.00  0.00     0.146 C 
HETATM    7  C8  UNL     1      18.875  -0.692  53.073  1.00  0.00     0.070 C 
HETATM    8  N2  UNL     1      17.793  -1.135  53.222  1.00  0.00    -0.197 NA
HETATM    9  C9  UNL     1      20.159   1.044  52.037  1.00  0.00     0.030 C 
HETATM   10  C15 UNL     1      21.259   1.697  51.705  1.00  0.00     0.041 C 
HETATM   11  C16 UNL     1      22.704   1.698  51.886  1.00  0.00     0.010 C 
HETATM   12  C17 UNL     1      23.334   2.696  51.287  1.00  0.00     0.102 C 
ENDROOT
BRANCH   9  13
HETATM   13  N3  UNL     1      18.907   1.433  51.590  1.00  0.00    -0.329 N 
HETATM   14  C10 UNL     1      18.108   2.567  51.590  1.00  0.00     0.222 C 
HETATM   15  O1  UNL     1      18.575   3.594  52.131  1.00  0.00    -0.273 OA
HETATM   16  H9  UNL     1      18.405   0.652  51.111  1.00  0.00     0.168 HD
BRANCH  14  17
HETATM   17  C11 UNL     1      16.773   2.652  51.009  1.00  0.00     0.105 C 
BRANCH  17  18
HETATM   18  C12 UNL     1      15.866   3.651  51.568  1.00  0.00     0.035 C 
BRANCH  18  19
HETATM   19  C13 UNL     1      15.057   3.375  52.779  1.00  0.00     0.167 C 
BRANCH  19  20
HETATM   20  O2  UNL     1      14.535   4.348  53.511  1.00  0.00    -0.396 OA
HETATM   21  C14 UNL     1      13.247   4.425  53.859  1.00  0.00     0.201 C 
ENDBRANCH  19  20
ENDBRANCH  18  19
ENDBRANCH  17  18
ENDBRANCH  14  17
ENDBRANCH   9  13
BRANCH  12  22
HETATM   22  N4  UNL     1      24.738   2.844  51.364  1.00  0.00    -0.365 N 
HETATM   23  H21 UNL     1      25.394   2.342  52.036  1.00  0.00     0.165 HD
BRANCH  22  24
HETATM   24  C18 UNL     1      25.457   3.735  50.497  1.00  0.00     0.033 A 
HETATM   25  C19 UNL     1      26.606   3.421  49.769  1.00  0.00     0.029 A 
HETATM   26  C20 UNL     1      27.191   4.385  48.977  1.00  0.00     0.004 A 
HETATM   27  C21 UNL     1      26.695   5.671  48.861  1.00  0.00     0.019 A 
HETATM   28  C22 UNL     1      25.556   6.005  49.576  1.00  0.00     0.013 A 
HETATM   29 BR1  UNL     1      24.858   7.767  49.431  1.00  0.00    -0.051 Br
HETATM   30  C23 UNL     1      24.978   5.036  50.365  1.00  0.00     0.048 A 
ENDBRANCH  22  24
ENDBRANCH  12  22
BRANCH   1  31
HETATM   31  C2  UNL     1      25.725  -0.082  52.738  1.00  0.00     0.107 C 
HETATM   32  C1  UNL     1      26.636  -0.895  52.226  1.00  0.00     0.032 C 
ENDBRANCH   1  31
TORSDOF 8
ENDMDL
MODEL 3
REMARK VINA RESULT:      -8.1      5.562     10.012
REMARK  8 active torsions:
REMARK  status: ('A' for Active; 'I' for Inactive)
REMARK    1  A    between atoms: C2_2  and  N1_3 
REMARK    2  A    between atoms: C9_11  and  N3_12 
REMARK       I    between atoms: N3_12  and  C10_13 
REMARK    3  A    between atoms: C10_13  and  C11_15 
REMARK    4  A    between atoms: C11_15  and  C12_16 
REMARK    5  A    between atoms: C12_16  and  C13_17 
REMARK    6  A    between atoms: C13_17  and  O2_18 
REMARK    7  A    between atoms: C17_22  and  N4_23 
REMARK    8  A    between atoms: N4_23  and  C18_24 
ROOT
HETATM    1  N1  UNL     1      24.120   4.460  50.016  1.00  0.00    -0.261 NA
HETATM    2  C3  UNL     1      25.139   5.263  49.829  1.00  0.00     0.067 C 
HETATM    3  C4  UNL     1      24.873   6.718  49.876  1.00  0.00     0.028 C 
HETATM    4  C5  UNL     1      25.710   7.746  49.671  1.00  0.00    -0.023 C 
HETATM    5  C6  UNL     1      27.155   7.756  49.336  1.00  0.00     0.052 C 
HETATM    6  C7  UNL     1      27.487   7.086  48.033  1.00  0.00     0.146 C 
HETATM    7  C8  UNL     1      28.347   7.958  47.237  1.00  0.00     0.070 C 
HETATM    8  N2  UNL     1      29.030   8.677  46.600  1.00  0.00    -0.197 NA
HETATM    9  C9  UNL     1      28.172   5.786  48.228  1.00  0.00     0.030 C 
HETATM   10  C15 UNL     1      27.585   4.806  48.892  1.00  0.00     0.041 C 
HETATM   11  C16 UNL     1      26.362   4.460  49.605  1.00  0.00     0.010 C 
HETATM   12  C17 UNL     1      26.354   3.245  50.128  1.00  0.00     0.102 C 
ENDROOT
BRANCH   9  13
HETATM   13  N3  UNL     1      29.437   5.649  47.677  1.00  0.00    -0.329 N 
HETATM   14  C10 UNL     1      30.750   5.516  48.105  1.00  0.00     0.222 C 
HETATM   15  O1  UNL     1      30.948   5.504  49.341  1.00  0.00    -0.273 OA
HETATM   16  H9  UNL     1      29.407   5.644  46.633  1.00  0.00     0.168 HD
BRANCH  14  17
HETATM   17  C11 UNL     1      31.908   5.388  47.228  1.00  0.00     0.105 C 
BRANCH  17  18
HETATM   18  C12 UNL     1      32.210   4.055  46.715  1.00  0.00     0.035 C 
BRANCH  18  19
HETATM   19  C13 UNL     1      32.897   3.039  47.546  1.00  0.00     0.167 C 
BRANCH  19  20
HETATM   20  O2  UNL     1      34.215   3.016  47.679  1.00  0.00    -0.396 OA
HETATM   21  C14 UNL     1      35.077   3.432  46.745  1.00  0.00     0.201 C 
ENDBRANCH  19  20
ENDBRANCH  18  19
ENDBRANCH  17  18
ENDBRANCH  14  17
ENDBRANCH   9  13
BRANCH  12  22
HETATM   22  N4  UNL     1      25.243   2.753  50.852  1.00  0.00    -0.365 N 
HETATM   23  H21 UNL     1      24.266   3.174  50.878  1.00  0.00     0.165 HD
BRANCH  22  24
HETATM   24  C18 UNL     1      25.329   1.576  51.669  1.00  0.00     0.033 A 
HETATM   25  C19 UNL     1      26.471   0.799  51.870  1.00  0.00     0.029 A 
HETATM   26  C20 UNL     1      26.402  -0.310  52.685  1.00  0.00     0.004 A 
HETATM   27  C21 UNL     1      25.242  -0.705  53.327  1.00  0.00     0.019 A 
HETATM   28  C22 UNL     1      24.096   0.052  53.142  1.00  0.00     0.013 A 
HETATM   29 BR1  UNL     1      22.491  -0.473  54.015  1.00  0.00    -0.051 Br
HETATM   30  C23 UNL     1      24.174   1.158  52.326  1.00  0.00     0.048 A 
ENDBRANCH  22  24
ENDBRANCH  12  22
BRANCH   1  31
HETATM   31  C2  UNL     1      22.865   5.076  50.244  1.00  0.00     0.107 C 
HETATM   32  C1  UNL     1      21.797   4.679  50.919  1.00  0.00     0.032 C 
ENDBRANCH   1  31
TORSDOF 8
ENDMDL
MODEL 4
REMARK VINA RESULT:      -8.0      5.492     10.070
REMARK  8 active torsions:
REMARK  status: ('A' for Active; 'I' for Inactive)
REMARK    1  A    between atoms: C2_2  and  N1_3 
REMARK    2  A    between atoms: C9_11  and  N3_12 
REMARK       I    between atoms: N3_12  and  C10_13 
REMARK    3  A    between atoms: C10_13  and  C11_15 
REMARK    4  A    between atoms: C11_15  and  C12_16 
REMARK    5  A    between atoms: C12_16  and  C13_17 
REMARK    6  A    between atoms: C13_17  and  O2_18 
REMARK    7  A    between atoms: C17_22  and  N4_23 
REMARK    8  A    between atoms: N4_23  and  C18_24 
ROOT
HETATM    1  N1  UNL     1      24.170   4.368  50.052  1.00  0.00    -0.261 NA
HETATM    2  C3  UNL     1      25.187   5.169  49.845  1.00  0.00     0.067 C 
HETATM    3  C4  UNL     1      24.916   6.624  49.858  1.00  0.00     0.028 C 
HETATM    4  C5  UNL     1      25.750   7.649  49.628  1.00  0.00    -0.023 C 
HETATM    5  C6  UNL     1      27.194   7.656  49.291  1.00  0.00     0.052 C 
HETATM    6  C7  UNL     1      27.528   6.956  48.004  1.00  0.00     0.146 C 
HETATM    7  C8  UNL     1      28.384   7.812  47.186  1.00  0.00     0.070 C 
HETATM    8  N2  UNL     1      29.064   8.517  46.531  1.00  0.00    -0.197 NA
HETATM    9  C9  UNL     1      28.217   5.662  48.228  1.00  0.00     0.030 C 
HETATM   10  C15 UNL     1      27.633   4.697  48.916  1.00  0.00     0.041 C 
HETATM   11  C16 UNL     1      26.412   4.365  49.639  1.00  0.00     0.010 C 
HETATM   12  C17 UNL     1      26.408   3.162  50.190  1.00  0.00     0.102 C 
ENDROOT
BRANCH   9  13
HETATM   13  N3  UNL     1      29.481   5.516  47.679  1.00  0.00    -0.329 N 
HETATM   14  C10 UNL     1      30.795   5.405  48.109  1.00  0.00     0.222 C 
HETATM   15  O1  UNL     1      30.996   5.432  49.344  1.00  0.00    -0.273 OA
HETATM   16  H9  UNL     1      29.449   5.479  46.636  1.00  0.00     0.168 HD
BRANCH  14  17
HETATM   17  C11 UNL     1      31.953   5.257  47.234  1.00  0.00     0.105 C 
BRANCH  17  18
HETATM   18  C12 UNL     1      32.585   3.941  47.184  1.00  0.00     0.035 C 
BRANCH  18  19
HETATM   19  C13 UNL     1      33.915   3.694  47.790  1.00  0.00     0.167 C 
BRANCH  19  20
HETATM   20  O2  UNL     1      34.980   3.415  47.054  1.00  0.00    -0.396 OA
HETATM   21  C14 UNL     1      35.059   3.610  45.733  1.00  0.00     0.201 C 
ENDBRANCH  19  20
ENDBRANCH  18  19
ENDBRANCH  17  18
ENDBRANCH  14  17
ENDBRANCH   9  13
BRANCH  12  22
HETATM   22  N4  UNL     1      25.299   2.685  50.927  1.00  0.00    -0.365 N 
HETATM   23  H21 UNL     1      24.310   3.079  50.913  1.00  0.00     0.165 HD
BRANCH  22  24
HETATM   24  C18 UNL     1      25.404   1.562  51.816  1.00  0.00     0.033 A 
HETATM   25  C19 UNL     1      24.338   0.885  52.410  1.00  0.00     0.029 A 
HETATM   26  C20 UNL     1      24.593  -0.179  53.248  1.00  0.00     0.004 A 
HETATM   27  C21 UNL     1      25.870  -0.623  53.539  1.00  0.00     0.019 A 
HETATM   28  C22 UNL     1      26.944   0.036  52.960  1.00  0.00     0.013 A 
HETATM   29 BR1  UNL     1      28.708  -0.556  53.348  1.00  0.00    -0.051 Br
HETATM   30  C23 UNL     1      26.680   1.098  52.126  1.00  0.00     0.048 A 
ENDBRANCH  22  24
ENDBRANCH  12  22
BRANCH   1  31
HETATM   31  C2  UNL     1      22.913   4.985  50.267  1.00  0.00     0.107 C 
HETATM   32  C1  UNL     1      21.965   4.767  51.165  1.00  0.00     0.032 C 
ENDBRANCH   1  31
TORSDOF 8
ENDMDL
MODEL 5
REMARK VINA RESULT:      -7.9      5.338      7.698
REMARK  8 active torsions:
REMARK  status: ('A' for Active; 'I' for Inactive)
REMARK    1  A    between atoms: C2_2  and  N1_3 
REMARK    2  A    between atoms: C9_11  and  N3_12 
REMARK       I    between atoms: N3_12  and  C10_13 
REMARK    3  A    between atoms: C10_13  and  C11_15 
REMARK    4  A    between atoms: C11_15  and  C12_16 
REMARK    5  A    between atoms: C12_16  and  C13_17 
REMARK    6  A    between atoms: C13_17  and  O2_18 
REMARK    7  A    between atoms: C17_22  and  N4_23 
REMARK    8  A    between atoms: N4_23  and  C18_24 
ROOT
HETATM    1  N1  UNL     1      28.461   7.746  48.066  1.00  0.00    -0.261 NA
HETATM    2  C3  UNL     1      27.415   6.967  48.198  1.00  0.00     0.067 C 
HETATM    3  C4  UNL     1      26.084   7.578  47.981  1.00  0.00     0.028 C 
HETATM    4  C5  UNL     1      24.865   7.032  48.100  1.00  0.00    -0.023 C 
HETATM    5  C6  UNL     1      24.461   5.657  48.482  1.00  0.00     0.052 C 
HETATM    6  C7  UNL     1      24.896   5.251  49.863  1.00  0.00     0.146 C 
HETATM    7  C8  UNL     1      23.762   4.681  50.587  1.00  0.00     0.070 C 
HETATM    8  N2  UNL     1      22.837   4.235  51.165  1.00  0.00    -0.197 NA
HETATM    9  C9  UNL     1      25.997   4.259  49.838  1.00  0.00     0.030 C 
HETATM   10  C15 UNL     1      27.153   4.546  49.266  1.00  0.00     0.041 C 
HETATM   11  C16 UNL     1      27.861   5.601  48.552  1.00  0.00     0.010 C 
HETATM   12  C17 UNL     1      29.085   5.281  48.168  1.00  0.00     0.102 C 
ENDROOT
BRANCH   9  13
HETATM   13  N3  UNL     1      25.759   3.036  50.445  1.00  0.00    -0.329 N 
HETATM   14  C10 UNL     1      26.361   2.201  51.376  1.00  0.00     0.222 C 
HETATM   15  O1  UNL     1      27.444   2.587  51.871  1.00  0.00    -0.273 OA
HETATM   16  H9  UNL     1      24.870   2.603  50.111  1.00  0.00     0.168 HD
BRANCH  14  17
HETATM   17  C11 UNL     1      25.829   0.918  51.819  1.00  0.00     0.105 C 
BRANCH  17  18
HETATM   18  C12 UNL     1      26.795  -0.133  52.127  1.00  0.00     0.035 C 
BRANCH  18  19
HETATM   19  C13 UNL     1      26.765  -0.863  53.417  1.00  0.00     0.167 C 
BRANCH  19  20
HETATM   20  O2  UNL     1      27.735  -0.745  54.311  1.00  0.00    -0.396 OA
HETATM   21  C14 UNL     1      28.446   0.369  54.514  1.00  0.00     0.201 C 
ENDBRANCH  19  20
ENDBRANCH  18  19
ENDBRANCH  17  18
ENDBRANCH  14  17
ENDBRANCH   9  13
BRANCH  12  22
HETATM   22  N4  UNL     1      29.907   6.191  47.464  1.00  0.00    -0.365 N 
HETATM   23  H21 UNL     1      29.597   6.873  46.708  1.00  0.00     0.165 HD
BRANCH  22  24
HETATM   24  C18 UNL     1      31.319   6.289  47.710  1.00  0.00     0.033 A 
HETATM   25  C19 UNL     1      32.014   7.452  48.044  1.00  0.00     0.029 A 
HETATM   26  C20 UNL     1      33.375   7.392  48.251  1.00  0.00     0.004 A 
HETATM   27  C21 UNL     1      34.105   6.222  48.144  1.00  0.00     0.019 A 
HETATM   28  C22 UNL     1      33.435   5.055  47.814  1.00  0.00     0.013 A 
HETATM   29 BR1  UNL     1      34.420   3.436  47.662  1.00  0.00    -0.051 Br
HETATM   30  C23 UNL     1      32.076   5.124  47.608  1.00  0.00     0.048 A 
ENDBRANCH  22  24
ENDBRANCH  12  22
BRANCH   1  31
HETATM   31  C2  UNL     1      28.203   9.097  47.726  1.00  0.00     0.107 C 
HETATM   32  C1  UNL     1      29.002  10.075  47.327  1.00  0.00     0.032 C 
ENDBRANCH   1  31
TORSDOF 8
ENDMDL
MODEL 6
REMARK VINA RESULT:      -7.8      5.529     10.084
REMARK  8 active torsions:
REMARK  status: ('A' for Active; 'I' for Inactive)
REMARK    1  A    between atoms: C2_2  and  N1_3 
REMARK    2  A    between atoms: C9_11  and  N3_12 
REMARK       I    between atoms: N3_12  and  C10_13 
REMARK    3  A    between atoms: C10_13  and  C11_15 
REMARK    4  A    between atoms: C11_15  and  C12_16 
REMARK    5  A    between atoms: C12_16  and  C13_17 
REMARK    6  A    between atoms: C13_17  and  O2_18 
REMARK    7  A    between atoms: C17_22  and  N4_23 
REMARK    8  A    between atoms: N4_23  and  C18_24 
ROOT
HETATM    1  N1  UNL     1      24.005   4.269  50.121  1.00  0.00    -0.261 NA
HETATM    2  C3  UNL     1      24.962   5.144  49.937  1.00  0.00     0.067 C 
HETATM    3  C4  UNL     1      24.598   6.576  50.031  1.00  0.00     0.028 C 
HETATM    4  C5  UNL     1      25.358   7.665  49.840  1.00  0.00    -0.023 C 
HETATM    5  C6  UNL     1      26.791   7.784  49.477  1.00  0.00     0.052 C 
HETATM    6  C7  UNL     1      27.141   7.174  48.149  1.00  0.00     0.146 C 
HETATM    7  C8  UNL     1      27.922   8.125  47.361  1.00  0.00     0.070 C 
HETATM    8  N2  UNL     1      28.540   8.906  46.731  1.00  0.00    -0.197 NA
HETATM    9  C9  UNL     1      27.917   5.919  48.292  1.00  0.00     0.030 C 
HETATM   10  C15 UNL     1      27.413   4.883  48.939  1.00  0.00     0.041 C 
HETATM   11  C16 UNL     1      26.232   4.434  49.666  1.00  0.00     0.010 C 
HETATM   12  C17 UNL     1      26.319   3.208  50.154  1.00  0.00     0.102 C 
ENDROOT
BRANCH   9  13
HETATM   13  N3  UNL     1      29.175   5.884  47.713  1.00  0.00    -0.329 N 
HETATM   14  C10 UNL     1      30.487   5.631  48.087  1.00  0.00     0.222 C 
HETATM   15  O1  UNL     1      30.691   5.334  49.286  1.00  0.00    -0.273 OA
HETATM   16  H9  UNL     1      29.141   6.118  46.696  1.00  0.00     0.168 HD
BRANCH  14  17
HETATM   17  C11 UNL     1      31.638   5.682  47.193  1.00  0.00     0.105 C 
BRANCH  17  18
HETATM   18  C12 UNL     1      32.561   6.802  47.360  1.00  0.00     0.035 C 
BRANCH  18  19
HETATM   19  C13 UNL     1      32.098   8.208  47.286  1.00  0.00     0.167 C 
BRANCH  19  20
HETATM   20  O2  UNL     1      32.089   9.000  48.348  1.00  0.00    -0.396 OA
HETATM   21  C14 UNL     1      31.159   8.967  49.308  1.00  0.00     0.201 C 
ENDBRANCH  19  20
ENDBRANCH  18  19
ENDBRANCH  17  18
ENDBRANCH  14  17
ENDBRANCH   9  13
BRANCH  12  22
HETATM   22  N4  UNL     1      25.260   2.621  50.885  1.00  0.00    -0.365 N 
HETATM   23  H21 UNL     1      24.249   2.953  50.917  1.00  0.00     0.165 HD
BRANCH  22  24
HETATM   24  C18 UNL     1      25.454   1.457  51.704  1.00  0.00     0.033 A 
HETATM   25  C19 UNL     1      26.654   0.763  51.869  1.00  0.00     0.029 A 
HETATM   26  C20 UNL     1      26.689  -0.343  52.690  1.00  0.00     0.004 A 
HETATM   27  C21 UNL     1      25.582  -0.814  53.372  1.00  0.00     0.019 A 
HETATM   28  C22 UNL     1      24.380  -0.140  53.222  1.00  0.00     0.013 A 
HETATM   29 BR1  UNL     1      22.845  -0.770  54.150  1.00  0.00    -0.051 Br
HETATM   30  C23 UNL     1      24.353   0.964  52.400  1.00  0.00     0.048 A 
ENDBRANCH  22  24
ENDBRANCH  12  22
BRANCH   1  31
HETATM   31  C2  UNL     1      22.715   4.790  50.392  1.00  0.00     0.107 C 
HETATM   32  C1  UNL     1      21.923   4.681  51.447  1.00  0.00     0.032 C 
ENDBRANCH   1  31
TORSDOF 8
ENDMDL
MODEL 7
REMARK VINA RESULT:      -7.8      5.178      9.782
REMARK  8 active torsions:
REMARK  status: ('A' for Active; 'I' for Inactive)
REMARK    1  A    between atoms: C2_2  and  N1_3 
REMARK    2  A    between atoms: C9_11  and  N3_12 
REMARK       I    between atoms: N3_12  and  C10_13 
REMARK    3  A    between atoms: C10_13  and  C11_15 
REMARK    4  A    between atoms: C11_15  and  C12_16 
REMARK    5  A    between atoms: C12_16  and  C13_17 
REMARK    6  A    between atoms: C13_17  and  O2_18 
REMARK    7  A    between atoms: C17_22  and  N4_23 
REMARK    8  A    between atoms: N4_23  and  C18_24 
ROOT
HETATM    1  N1  UNL     1      23.840   2.901  49.237  1.00  0.00    -0.261 NA
HETATM    2  C3  UNL     1      24.346   4.109  49.201  1.00  0.00     0.067 C 
HETATM    3  C4  UNL     1      23.468   5.198  48.714  1.00  0.00     0.028 C 
HETATM    4  C5  UNL     1      23.742   6.498  48.530  1.00  0.00    -0.023 C 
HETATM    5  C6  UNL     1      24.998   7.256  48.752  1.00  0.00     0.052 C 
HETATM    6  C7  UNL     1      26.156   6.783  47.920  1.00  0.00     0.146 C 
HETATM    7  C8  UNL     1      26.792   7.925  47.267  1.00  0.00     0.070 C 
HETATM    8  N2  UNL     1      27.287   8.854  46.737  1.00  0.00    -0.197 NA
HETATM    9  C9  UNL     1      27.173   6.064  48.725  1.00  0.00     0.030 C 
HETATM   10  C15 UNL     1      26.855   4.968  49.392  1.00  0.00     0.041 C 
HETATM   11  C16 UNL     1      25.745   4.071  49.683  1.00  0.00     0.010 C 
HETATM   12  C17 UNL     1      26.041   3.076  50.503  1.00  0.00     0.102 C 
ENDROOT
BRANCH   9  13
HETATM   13  N3  UNL     1      28.456   6.587  48.736  1.00  0.00    -0.329 N 
HETATM   14  C10 UNL     1      29.748   6.182  48.432  1.00  0.00     0.222 C 
HETATM   15  O1  UNL     1      29.895   5.011  48.016  1.00  0.00    -0.273 OA
HETATM   16  H9  UNL     1      28.470   7.577  49.069  1.00  0.00     0.168 HD
BRANCH  14  17
HETATM   17  C11 UNL     1      30.939   7.013  48.560  1.00  0.00     0.105 C 
BRANCH  17  18
HETATM   18  C12 UNL     1      30.754   8.363  49.086  1.00  0.00     0.035 C 
BRANCH  18  19
HETATM   19  C13 UNL     1      30.586   9.531  48.189  1.00  0.00     0.167 C 
BRANCH  19  20
HETATM   20  O2  UNL     1      31.260  10.657  48.370  1.00  0.00    -0.396 OA
HETATM   21  C14 UNL     1      30.786  11.725  49.022  1.00  0.00     0.201 C 
ENDBRANCH  19  20
ENDBRANCH  18  19
ENDBRANCH  17  18
ENDBRANCH  14  17
ENDBRANCH   9  13
BRANCH  12  22
HETATM   22  N4  UNL     1      25.076   2.116  50.888  1.00  0.00    -0.365 N 
HETATM   23  H21 UNL     1      24.111   1.979  50.461  1.00  0.00     0.165 HD
BRANCH  22  24
HETATM   24  C18 UNL     1      25.316   1.182  51.953  1.00  0.00     0.033 A 
HETATM   25  C19 UNL     1      24.347   0.631  52.792  1.00  0.00     0.029 A 
HETATM   26  C20 UNL     1      24.728  -0.256  53.776  1.00  0.00     0.004 A 
HETATM   27  C21 UNL     1      26.042  -0.637  53.983  1.00  0.00     0.019 A 
HETATM   28  C22 UNL     1      27.020  -0.101  53.160  1.00  0.00     0.013 A 
HETATM   29 BR1  UNL     1      28.832  -0.611  53.427  1.00  0.00    -0.051 Br
HETATM   30  C23 UNL     1      26.631   0.784  52.181  1.00  0.00     0.048 A 
ENDBRANCH  22  24
ENDBRANCH  12  22
BRANCH   1  31
HETATM   31  C2  UNL     1      22.498   2.766  48.802  1.00  0.00     0.107 C 
HETATM   32  C1  UNL     1      21.878   1.801  48.140  1.00  0.00     0.032 C 
ENDBRANCH   1  31
TORSDOF 8
ENDMDL
MODEL 8
REMARK VINA RESULT:      -7.6      4.197      6.646
REMARK  8 active torsions:
REMARK  status: ('A' for Active; 'I' for Inactive)
REMARK    1  A    between atoms: C2_2  and  N1_3 
REMARK    2  A    between atoms: C9_11  and  N3_12 
REMARK       I    between atoms: N3_12  and  C10_13 
REMARK    3  A    between atoms: C10_13  and  C11_15 
REMARK    4  A    between atoms: C11_15  and  C12_16 
REMARK    5  A    between atoms: C12_16  and  C13_17 
REMARK    6  A    between atoms: C13_17  and  O2_18 
REMARK    7  A    between atoms: C17_22  and  N4_23 
REMARK    8  A    between atoms: N4_23  and  C18_24 
ROOT
HETATM    1  N1  UNL     1      24.401   6.343  48.426  1.00  0.00    -0.261 NA
HETATM    2  C3  UNL     1      23.997   5.107  48.585  1.00  0.00     0.067 C 
HETATM    3  C4  UNL     1      22.737   4.715  47.915  1.00  0.00     0.028 C 
HETATM    4  C5  UNL     1      22.079   3.546  47.951  1.00  0.00    -0.023 C 
HETATM    5  C6  UNL     1      22.398   2.286  48.664  1.00  0.00     0.052 C 
HETATM    6  C7  UNL     1      22.452   2.424  50.160  1.00  0.00     0.146 C 
HETATM    7  C8  UNL     1      21.654   1.370  50.781  1.00  0.00     0.070 C 
HETATM    8  N2  UNL     1      20.997   0.522  51.269  1.00  0.00    -0.197 NA
HETATM    9  C9  UNL     1      23.838   2.348  50.682  1.00  0.00     0.030 C 
HETATM   10  C15 UNL     1      24.754   3.219  50.298  1.00  0.00     0.041 C 
HETATM   11  C16 UNL     1      24.960   4.382  49.444  1.00  0.00     0.010 C 
HETATM   12  C17 UNL     1      26.196   4.852  49.443  1.00  0.00     0.102 C 
ENDROOT
BRANCH   9  13
HETATM   13  N3  UNL     1      24.116   1.337  51.589  1.00  0.00    -0.329 N 
HETATM   14  C10 UNL     1      24.621   1.202  52.874  1.00  0.00     0.222 C 
HETATM   15  O1  UNL     1      24.945   2.252  53.473  1.00  0.00    -0.273 OA
HETATM   16  H9  UNL     1      23.886   0.395  51.203  1.00  0.00     0.168 HD
BRANCH  14  17
HETATM   17  C11 UNL     1      24.798  -0.064  53.576  1.00  0.00     0.105 C 
BRANCH  17  18
HETATM   18  C12 UNL     1      25.995  -0.839  53.259  1.00  0.00     0.035 C 
BRANCH  18  19
HETATM   19  C13 UNL     1      27.161  -0.225  52.580  1.00  0.00     0.167 C 
BRANCH  19  20
HETATM   20  O2  UNL     1      28.225   0.191  53.250  1.00  0.00    -0.396 OA
HETATM   21  C14 UNL     1      28.374   0.082  54.575  1.00  0.00     0.201 C 
ENDBRANCH  19  20
ENDBRANCH  18  19
ENDBRANCH  17  18
ENDBRANCH  14  17
ENDBRANCH   9  13
BRANCH  12  22
HETATM   22  N4  UNL     1      26.564   5.976  48.667  1.00  0.00    -0.365 N 
HETATM   23  H21 UNL     1      25.905   6.679  48.215  1.00  0.00     0.165 HD
BRANCH  22  24
HETATM   24  C18 UNL     1      27.938   6.296  48.396  1.00  0.00     0.033 A 
HETATM   25  C19 UNL     1      28.968   5.377  48.191  1.00  0.00     0.029 A 
HETATM   26  C20 UNL     1      30.244   5.834  47.942  1.00  0.00     0.004 A 
HETATM   27  C21 UNL     1      30.568   7.177  47.882  1.00  0.00     0.019 A 
HETATM   28  C22 UNL     1      29.560   8.107  48.083  1.00  0.00     0.013 A 
HETATM   29 BR1  UNL     1      29.984   9.959  48.005  1.00  0.00    -0.051 Br
HETATM   30  C23 UNL     1      28.289   7.643  48.332  1.00  0.00     0.048 A 
ENDBRANCH  22  24
ENDBRANCH  12  22
BRANCH   1  31
HETATM   31  C2  UNL     1      23.583   7.177  47.624  1.00  0.00     0.107 C 
HETATM   32  C1  UNL     1      23.869   7.997  46.625  1.00  0.00     0.032 C 
ENDBRANCH   1  31
TORSDOF 8
ENDMDL
MODEL 9
REMARK VINA RESULT:      -7.5      3.359      5.802
REMARK  8 active torsions:
REMARK  status: ('A' for Active; 'I' for Inactive)
REMARK    1  A    between atoms: C2_2  and  N1_3 
REMARK    2  A    between atoms: C9_11  and  N3_12 
REMARK       I    between atoms: N3_12  and  C10_13 
REMARK    3  A    between atoms: C10_13  and  C11_15 
REMARK    4  A    between atoms: C11_15  and  C12_16 
REMARK    5  A    between atoms: C12_16  and  C13_17 
REMARK    6  A    between atoms: C13_17  and  O2_18 
REMARK    7  A    between atoms: C17_22  and  N4_23 
REMARK    8  A    between atoms: N4_23  and  C18_24 
ROOT
HETATM    1  N1  UNL     1      24.791   0.829  52.026  1.00  0.00    -0.261 NA
HETATM    2  C3  UNL     1      23.591   0.804  52.551  1.00  0.00     0.067 C 
HETATM    3  C4  UNL     1      23.364  -0.129  53.678  1.00  0.00     0.028 C 
HETATM    4  C5  UNL     1      22.236  -0.389  54.356  1.00  0.00    -0.023 C 
HETATM    5  C6  UNL     1      20.870   0.167  54.199  1.00  0.00     0.052 C 
HETATM    6  C7  UNL     1      20.251  -0.098  52.855  1.00  0.00     0.146 C 
HETATM    7  C8  UNL     1      18.902  -0.631  53.032  1.00  0.00     0.070 C 
HETATM    8  N2  UNL     1      17.821  -1.073  53.188  1.00  0.00    -0.197 NA
HETATM    9  C9  UNL     1      20.178   1.123  52.018  1.00  0.00     0.030 C 
HETATM   10  C15 UNL     1      21.275   1.780  51.684  1.00  0.00     0.041 C 
HETATM   11  C16 UNL     1      22.724   1.770  51.840  1.00  0.00     0.010 C 
HETATM   12  C17 UNL     1      23.348   2.779  51.256  1.00  0.00     0.102 C 
ENDROOT
BRANCH   9  13
HETATM   13  N3  UNL     1      18.920   1.530  51.602  1.00  0.00    -0.329 N 
HETATM   14  C10 UNL     1      18.150   2.684  51.590  1.00  0.00     0.222 C 
HETATM   15  O1  UNL     1      18.663   3.716  52.077  1.00  0.00    -0.273 OA
HETATM   16  H9  UNL     1      18.382   0.746  51.170  1.00  0.00     0.168 HD
BRANCH  14  17
HETATM   17  C11 UNL     1      16.798   2.784  51.053  1.00  0.00     0.105 C 
BRANCH  17  18
HETATM   18  C12 UNL     1      16.662   2.863  49.601  1.00  0.00     0.035 C 
BRANCH  18  19
HETATM   19  C13 UNL     1      17.469   3.811  48.796  1.00  0.00     0.167 C 
BRANCH  19  20
HETATM   20  O2  UNL     1      16.942   4.902  48.261  1.00  0.00    -0.396 OA
HETATM   21  C14 UNL     1      17.653   5.919  47.763  1.00  0.00     0.201 C 
ENDBRANCH  19  20
ENDBRANCH  18  19
ENDBRANCH  17  18
ENDBRANCH  14  17
ENDBRANCH   9  13
BRANCH  12  22
HETATM   22  N4  UNL     1      24.754   2.918  51.313  1.00  0.00    -0.365 N 
HETATM   23  H21 UNL     1      25.417   2.408  51.972  1.00  0.00     0.165 HD
BRANCH  22  24
HETATM   24  C18 UNL     1      25.466   3.810  50.442  1.00  0.00     0.033 A 
HETATM   25  C19 UNL     1      26.638   3.513  49.745  1.00  0.00     0.029 A 
HETATM   26  C20 UNL     1      27.212   4.476  48.943  1.00  0.00     0.004 A 
HETATM   27  C21 UNL     1      26.682   5.744  48.787  1.00  0.00     0.019 A 
HETATM   28  C22 UNL     1      25.518   6.060  49.470  1.00  0.00     0.013 A 
HETATM   29 BR1  UNL     1      24.773   7.797  49.269  1.00  0.00    -0.051 Br
HETATM   30  C23 UNL     1      24.952   5.093  50.269  1.00  0.00     0.048 A 
ENDBRANCH  22  24
ENDBRANCH  12  22
BRANCH   1  31
HETATM   31  C2  UNL     1      25.749  -0.046  52.597  1.00  0.00     0.107 C 
HETATM   32  C1  UNL     1      27.073  -0.045  52.569  1.00  0.00     0.032 C 
ENDBRANCH   1  31
TORSDOF 8
ENDMDL
