MODEL 1
REMARK VINA RESULT:      -8.4      0.000      0.000
REMARK  7 active torsions:
REMARK  status: ('A' for Active; 'I' for Inactive)
REMARK    1  A    between atoms: C7_7  and  N1_8 
REMARK    2  A    between atoms: N1_8  and  C8_9 
REMARK    3  A    between atoms: C8_9  and  N2_10 
REMARK    4  A    between atoms: N2_10  and  C10_12 
REMARK    5  A    between atoms: C10_12  and  C11_13 
REMARK    6  A    between atoms: C12_14  and  C13_15 
REMARK       I    between atoms: C13_15  and  N3_17 
REMARK    7  A    between atoms: N3_17  and  C15_19 
ROOT
HETATM    1  C13 UNL     1      21.778   0.645  51.751  1.00  0.00     0.247 C 
HETATM    2  O1  UNL     1      20.565   0.425  51.815  1.00  0.00    -0.268 OA
HETATM    3  N3  UNL     1      22.466   0.482  52.992  1.00  0.00    -0.316 N 
HETATM    4  C14 UNL     1      21.843   0.100  54.240  1.00  0.00     0.159 C 
ENDROOT
BRANCH   1   5
HETATM    5  C12 UNL     1      22.539   1.040  50.572  1.00  0.00     0.072 C 
HETATM    6  C11 UNL     1      22.566   2.265  50.076  1.00  0.00     0.008 C 
BRANCH   6   7
HETATM    7  C10 UNL     1      21.910   3.522  50.491  1.00  0.00     0.301 C 
BRANCH   7   8
HETATM    8  N2  UNL     1      22.513   4.650  49.847  1.00  0.00     0.104 N 
HETATM    9  C9  UNL     1      21.497   5.423  49.132  1.00  0.00     0.312 C 
BRANCH   8  10
HETATM   10  C8  UNL     1      23.280   5.485  50.730  1.00  0.00     0.395 C 
BRANCH  10  11
HETATM   11  N1  UNL     1      24.635   4.964  50.941  1.00  0.00    -0.365 N 
HETATM   12  H8  UNL     1      24.895   4.317  51.724  1.00  0.00     0.161 HD
BRANCH  11  13
HETATM   13  C7  UNL     1      25.689   5.345  50.040  1.00  0.00     0.035 A 
HETATM   14  C2  UNL     1      26.551   4.433  49.474  1.00  0.00    -0.036 A 
HETATM   15  C1  UNL     1      26.337   3.022  49.847  1.00  0.00     0.050 C 
HETATM   16  C3  UNL     1      27.546   4.849  48.613  1.00  0.00     0.009 A 
HETATM   17  C4  UNL     1      27.669   6.192  48.323  1.00  0.00     0.001 A 
HETATM   18  C5  UNL     1      26.822   7.165  48.867  1.00  0.00     0.002 A 
HETATM   19  C6  UNL     1      25.844   6.700  49.722  1.00  0.00     0.029 A 
ENDBRANCH  11  13
ENDBRANCH  10  11
ENDBRANCH   8  10
ENDBRANCH   7   8
ENDBRANCH   6   7
ENDBRANCH   1   5
BRANCH   3  20
HETATM   20  C15 UNL     1      23.890   0.703  53.059  1.00  0.00     0.078 A 
HETATM   21  C16 UNL     1      24.860  -0.270  52.936  1.00  0.00     0.064 A 
HETATM   22  C17 UNL     1      26.190   0.103  53.025  1.00  0.00     0.063 A 
HETATM   23  C18 UNL     1      26.571   1.412  53.234  1.00  0.00     0.086 A 
HETATM   24  N5  UNL     1      27.023  -1.057  52.871  1.00  0.00    -0.364 N 
HETATM   25  C19 UNL     1      25.561   2.370  53.355  1.00  0.00     0.078 A 
HETATM   26  N4  UNL     1      27.891   1.917  53.344  1.00  0.00    -0.259 NA
HETATM   27  C20 UNL     1      24.221   2.039  53.270  1.00  0.00     0.145 A 
HETATM   28  F1  UNL     1      23.305   3.036  53.399  1.00  0.00    -0.204 F 
HETATM   29  C21 UNL     1      28.979   1.233  53.488  1.00  0.00     0.118 C 
HETATM   30  C22 UNL     1      29.240  -0.202  53.583  1.00  0.00     0.036 C 
HETATM   31  C23 UNL     1      28.380  -1.195  53.312  1.00  0.00     0.090 C 
HETATM   32  H26 UNL     1      26.568  -1.844  52.394  1.00  0.00     0.165 HD
ENDBRANCH   3  20
TORSDOF 7
ENDMDL
MODEL 2
REMARK VINA RESULT:      -8.3      1.511      2.106
REMARK  7 active torsions:
REMARK  status: ('A' for Active; 'I' for Inactive)
REMARK    1  A    between atoms: C7_7  and  N1_8 
REMARK    2  A    between atoms: N1_8  and  C8_9 
REMARK    3  A    between atoms: C8_9  and  N2_10 
REMARK    4  A    between atoms: N2_10  and  C10_12 
REMARK    5  A    between atoms: C10_12  and  C11_13 
REMARK    6  A    between atoms: C12_14  and  C13_15 
REMARK       I    between atoms: C13_15  and  N3_17 
REMARK    7  A    between atoms: N3_17  and  C15_19 
ROOT
HETATM    1  C13 UNL     1      21.394   2.070  50.649  1.00  0.00     0.247 C 
HETATM    2  O1  UNL     1      20.268   2.467  50.337  1.00  0.00    -0.268 OA
HETATM    3  N3  UNL     1      21.569   1.858  52.051  1.00  0.00    -0.316 N 
HETATM    4  C14 UNL     1      20.552   2.079  53.055  1.00  0.00     0.159 C 
ENDROOT
BRANCH   1   5
HETATM    5  C12 UNL     1      22.515   1.809  49.754  1.00  0.00     0.072 C 
HETATM    6  C11 UNL     1      22.852   2.578  48.734  1.00  0.00     0.008 C 
BRANCH   6   7
HETATM    7  C10 UNL     1      22.278   3.831  48.200  1.00  0.00     0.301 C 
BRANCH   7   8
HETATM    8  N2  UNL     1      23.194   4.920  48.356  1.00  0.00     0.104 N 
HETATM    9  C9  UNL     1      22.865   5.994  47.420  1.00  0.00     0.312 C 
BRANCH   8  10
HETATM   10  C8  UNL     1      23.291   5.412  49.703  1.00  0.00     0.395 C 
BRANCH  10  11
HETATM   11  N1  UNL     1      24.587   5.095  50.313  1.00  0.00    -0.365 N 
HETATM   12  H8  UNL     1      24.694   4.638  51.250  1.00  0.00     0.161 HD
BRANCH  11  13
HETATM   13  C7  UNL     1      25.800   5.418  49.609  1.00  0.00     0.035 A 
HETATM   14  C2  UNL     1      26.733   4.469  49.257  1.00  0.00    -0.036 A 
HETATM   15  C1  UNL     1      26.422   3.081  49.646  1.00  0.00     0.050 C 
HETATM   16  C3  UNL     1      27.880   4.830  48.581  1.00  0.00     0.009 A 
HETATM   17  C4  UNL     1      28.085   6.156  48.259  1.00  0.00     0.001 A 
HETATM   18  C5  UNL     1      27.172   7.165  48.591  1.00  0.00     0.002 A 
HETATM   19  C6  UNL     1      26.041   6.754  49.266  1.00  0.00     0.029 A 
ENDBRANCH  11  13
ENDBRANCH  10  11
ENDBRANCH   8  10
ENDBRANCH   7   8
ENDBRANCH   6   7
ENDBRANCH   1   5
BRANCH   3  20
HETATM   20  C15 UNL     1      22.838   1.388  52.555  1.00  0.00     0.078 A 
HETATM   21  C16 UNL     1      23.960   2.164  52.754  1.00  0.00     0.064 A 
HETATM   22  C17 UNL     1      25.106   1.561  53.244  1.00  0.00     0.063 A 
HETATM   23  C18 UNL     1      25.157   0.214  53.535  1.00  0.00     0.086 A 
HETATM   24  N5  UNL     1      26.144   2.546  53.373  1.00  0.00    -0.364 N 
HETATM   25  C19 UNL     1      24.002  -0.540  53.320  1.00  0.00     0.078 A 
HETATM   26  N4  UNL     1      26.264  -0.515  54.037  1.00  0.00    -0.259 NA
HETATM   27  C20 UNL     1      22.837   0.023  52.834  1.00  0.00     0.145 A 
HETATM   28  F1  UNL     1      21.758  -0.787  52.655  1.00  0.00    -0.204 F 
HETATM   29  C21 UNL     1      27.492  -0.117  54.115  1.00  0.00     0.118 C 
HETATM   30  C22 UNL     1      28.151   1.135  53.745  1.00  0.00     0.036 C 
HETATM   31  C23 UNL     1      27.555   2.292  53.423  1.00  0.00     0.090 C 
HETATM   32  H26 UNL     1      25.806   3.512  53.432  1.00  0.00     0.165 HD
ENDBRANCH   3  20
TORSDOF 7
ENDMDL
MODEL 3
REMARK VINA RESULT:      -7.9      4.820      8.385
REMARK  7 active torsions:
REMARK  status: ('A' for Active; 'I' for Inactive)
REMARK    1  A    between atoms: C7_7  and  N1_8 
REMARK    2  A    between atoms: N1_8  and  C8_9 
REMARK    3  A    between atoms: C8_9  and  N2_10 
REMARK    4  A    between atoms: N2_10  and  C10_12 
REMARK    5  A    between atoms: C10_12  and  C11_13 
REMARK    6  A    between atoms: C12_14  and  C13_15 
REMARK       I    between atoms: C13_15  and  N3_17 
REMARK    7  A    between atoms: N3_17  and  C15_19 
ROOT
HETATM    1  C13 UNL     1      28.028   6.779  47.843  1.00  0.00     0.247 C 
HETATM    2  O1  UNL     1      26.961   7.364  47.635  1.00  0.00    -0.268 OA
HETATM    3  N3  UNL     1      29.187   7.584  47.621  1.00  0.00    -0.316 N 
HETATM    4  C14 UNL     1      29.166   8.963  47.187  1.00  0.00     0.159 C 
ENDROOT
BRANCH   1   5
HETATM    5  C12 UNL     1      28.204   5.398  48.276  1.00  0.00     0.072 C 
HETATM    6  C11 UNL     1      27.300   4.703  48.944  1.00  0.00     0.008 C 
BRANCH   6   7
HETATM    7  C10 UNL     1      25.947   5.041  49.434  1.00  0.00     0.301 C 
BRANCH   7   8
HETATM    8  N2  UNL     1      25.502   4.087  50.404  1.00  0.00     0.104 N 
HETATM    9  C9  UNL     1      24.154   3.624  50.074  1.00  0.00     0.312 C 
BRANCH   8  10
HETATM   10  C8  UNL     1      26.402   2.982  50.592  1.00  0.00     0.395 C 
BRANCH  10  11
HETATM   11  N1  UNL     1      26.689   2.741  52.010  1.00  0.00    -0.365 N 
HETATM   12  H8  UNL     1      26.601   3.474  52.755  1.00  0.00     0.161 HD
BRANCH  11  13
HETATM   13  C7  UNL     1      27.117   1.435  52.435  1.00  0.00     0.035 A 
HETATM   14  C2  UNL     1      28.191   1.240  53.273  1.00  0.00    -0.036 A 
HETATM   15  C1  UNL     1      28.894   2.457  53.720  1.00  0.00     0.050 C 
HETATM   16  C3  UNL     1      28.562  -0.035  53.653  1.00  0.00     0.009 A 
HETATM   17  C4  UNL     1      27.842  -1.114  53.183  1.00  0.00     0.001 A 
HETATM   18  C5  UNL     1      26.742  -0.977  52.329  1.00  0.00     0.002 A 
HETATM   19  C6  UNL     1      26.411   0.316  51.978  1.00  0.00     0.029 A 
ENDBRANCH  11  13
ENDBRANCH  10  11
ENDBRANCH   8  10
ENDBRANCH   7   8
ENDBRANCH   6   7
ENDBRANCH   1   5
BRANCH   3  20
HETATM   20  C15 UNL     1      30.501   7.026  47.832  1.00  0.00     0.078 A 
HETATM   21  C16 UNL     1      31.094   6.053  47.055  1.00  0.00     0.064 A 
HETATM   22  C17 UNL     1      32.365   5.619  47.390  1.00  0.00     0.063 A 
HETATM   23  C18 UNL     1      33.051   6.128  48.473  1.00  0.00     0.086 A 
HETATM   24  N5  UNL     1      32.787   4.612  46.456  1.00  0.00    -0.364 N 
HETATM   25  C19 UNL     1      32.418   7.111  49.237  1.00  0.00     0.078 A 
HETATM   26  N4  UNL     1      34.348   5.768  48.917  1.00  0.00    -0.259 NA
HETATM   27  C20 UNL     1      31.150   7.573  48.936  1.00  0.00     0.145 A 
HETATM   28  F1  UNL     1      30.610   8.533  49.735  1.00  0.00    -0.204 F 
HETATM   29  C21 UNL     1      35.050   4.752  48.533  1.00  0.00     0.118 C 
HETATM   30  C22 UNL     1      34.794   3.678  47.575  1.00  0.00     0.036 C 
HETATM   31  C23 UNL     1      33.804   3.625  46.672  1.00  0.00     0.090 C 
HETATM   32  H26 UNL     1      32.290   4.633  45.559  1.00  0.00     0.165 HD
ENDBRANCH   3  20
TORSDOF 7
ENDMDL
MODEL 4
REMARK VINA RESULT:      -7.9      1.197      1.872
REMARK  7 active torsions:
REMARK  status: ('A' for Active; 'I' for Inactive)
REMARK    1  A    between atoms: C7_7  and  N1_8 
REMARK    2  A    between atoms: N1_8  and  C8_9 
REMARK    3  A    between atoms: C8_9  and  N2_10 
REMARK    4  A    between atoms: N2_10  and  C10_12 
REMARK    5  A    between atoms: C10_12  and  C11_13 
REMARK    6  A    between atoms: C12_14  and  C13_15 
REMARK       I    between atoms: C13_15  and  N3_17 
REMARK    7  A    between atoms: N3_17  and  C15_19 
ROOT
HETATM    1  C13 UNL     1      22.857   1.590  51.488  1.00  0.00     0.247 C 
HETATM    2  O1  UNL     1      21.626   1.585  51.395  1.00  0.00    -0.268 OA
HETATM    3  N3  UNL     1      23.354   0.978  52.679  1.00  0.00    -0.316 N 
HETATM    4  C14 UNL     1      22.531   0.396  53.716  1.00  0.00     0.159 C 
ENDROOT
BRANCH   1   5
HETATM    5  C12 UNL     1      23.809   2.140  50.531  1.00  0.00     0.072 C 
HETATM    6  C11 UNL     1      23.581   3.199  49.774  1.00  0.00     0.008 C 
BRANCH   6   7
HETATM    7  C10 UNL     1      22.414   4.096  49.643  1.00  0.00     0.301 C 
BRANCH   7   8
HETATM    8  N2  UNL     1      22.704   5.393  50.176  1.00  0.00     0.104 N 
HETATM    9  C9  UNL     1      22.112   5.536  51.505  1.00  0.00     0.312 C 
BRANCH   8  10
HETATM   10  C8  UNL     1      24.105   5.717  50.190  1.00  0.00     0.395 C 
BRANCH  10  11
HETATM   11  N1  UNL     1      24.562   6.238  48.897  1.00  0.00    -0.365 N 
HETATM   12  H8  UNL     1      23.919   6.627  48.166  1.00  0.00     0.161 HD
BRANCH  11  13
HETATM   13  C7  UNL     1      25.966   6.228  48.585  1.00  0.00     0.035 A 
HETATM   14  C2  UNL     1      26.614   7.308  48.029  1.00  0.00    -0.036 A 
HETATM   15  C1  UNL     1      25.781   8.496  47.763  1.00  0.00     0.050 C 
HETATM   16  C3  UNL     1      27.964   7.249  47.750  1.00  0.00     0.009 A 
HETATM   17  C4  UNL     1      28.662   6.093  48.035  1.00  0.00     0.001 A 
HETATM   18  C5  UNL     1      28.058   4.964  48.600  1.00  0.00     0.002 A 
HETATM   19  C6  UNL     1      26.707   5.072  48.861  1.00  0.00     0.029 A 
ENDBRANCH  11  13
ENDBRANCH  10  11
ENDBRANCH   8  10
ENDBRANCH   7   8
ENDBRANCH   6   7
ENDBRANCH   1   5
BRANCH   3  20
HETATM   20  C15 UNL     1      24.776   0.909  52.913  1.00  0.00     0.078 A 
HETATM   21  C16 UNL     1      25.573  -0.194  52.690  1.00  0.00     0.064 A 
HETATM   22  C17 UNL     1      26.927  -0.101  52.967  1.00  0.00     0.063 A 
HETATM   23  C18 UNL     1      27.497   1.055  53.457  1.00  0.00     0.086 A 
HETATM   24  N5  UNL     1      27.562  -1.354  52.665  1.00  0.00    -0.364 N 
HETATM   25  C19 UNL     1      26.657   2.151  53.671  1.00  0.00     0.078 A 
HETATM   26  N4  UNL     1      28.860   1.273  53.779  1.00  0.00    -0.259 NA
HETATM   27  C20 UNL     1      25.302   2.101  53.407  1.00  0.00     0.145 A 
HETATM   28  F1  UNL     1      24.560   3.216  53.645  1.00  0.00    -0.204 F 
HETATM   29  C21 UNL     1      29.790   0.380  53.883  1.00  0.00     0.118 C 
HETATM   30  C22 UNL     1      29.789  -1.073  53.721  1.00  0.00     0.036 C 
HETATM   31  C23 UNL     1      28.812  -1.822  53.189  1.00  0.00     0.090 C 
HETATM   32  H26 UNL     1      27.041  -1.944  52.007  1.00  0.00     0.165 HD
ENDBRANCH   3  20
TORSDOF 7
ENDMDL
MODEL 5
REMARK VINA RESULT:      -7.7      2.272      5.477
REMARK  7 active torsions:
REMARK  status: ('A' for Active; 'I' for Inactive)
REMARK    1  A    between atoms: C7_7  and  N1_8 
REMARK    2  A    between atoms: N1_8  and  C8_9 
REMARK    3  A    between atoms: C8_9  and  N2_10 
REMARK    4  A    between atoms: N2_10  and  C10_12 
REMARK    5  A    between atoms: C10_12  and  C11_13 
REMARK    6  A    between atoms: C12_14  and  C13_15 
REMARK       I    between atoms: C13_15  and  N3_17 
REMARK    7  A    between atoms: N3_17  and  C15_19 
ROOT
HETATM    1  C13 UNL     1      23.626   4.887  48.928  1.00  0.00     0.247 C 
HETATM    2  O1  UNL     1      23.545   5.846  48.155  1.00  0.00    -0.268 OA
HETATM    3  N3  UNL     1      24.661   5.012  49.905  1.00  0.00    -0.316 N 
HETATM    4  C14 UNL     1      25.562   6.137  50.017  1.00  0.00     0.159 C 
ENDROOT
BRANCH   1   5
HETATM    5  C12 UNL     1      22.795   3.690  48.934  1.00  0.00     0.072 C 
HETATM    6  C11 UNL     1      21.583   3.623  49.457  1.00  0.00     0.008 C 
BRANCH   6   7
HETATM    7  C10 UNL     1      20.739   4.623  50.144  1.00  0.00     0.301 C 
BRANCH   7   8
HETATM    8  N2  UNL     1      19.789   3.986  51.004  1.00  0.00     0.104 N 
HETATM    9  C9  UNL     1      18.920   3.102  50.228  1.00  0.00     0.312 C 
BRANCH   8  10
HETATM   10  C8  UNL     1      20.381   3.292  52.115  1.00  0.00     0.395 C 
BRANCH  10  11
HETATM   11  N1  UNL     1      19.840   1.937  52.269  1.00  0.00    -0.365 N 
HETATM   12  H8  UNL     1      18.870   1.661  51.984  1.00  0.00     0.161 HD
BRANCH  11  13
HETATM   13  C7  UNL     1      20.664   0.907  52.842  1.00  0.00     0.035 A 
HETATM   14  C2  UNL     1      21.508   0.123  52.089  1.00  0.00    -0.036 A 
HETATM   15  C1  UNL     1      21.525   0.396  50.640  1.00  0.00     0.050 C 
HETATM   16  C3  UNL     1      22.280  -0.853  52.688  1.00  0.00     0.009 A 
HETATM   17  C4  UNL     1      22.197  -1.036  54.053  1.00  0.00     0.001 A 
HETATM   18  C5  UNL     1      21.357  -0.270  54.870  1.00  0.00     0.002 A 
HETATM   19  C6  UNL     1      20.606   0.692  54.225  1.00  0.00     0.029 A 
ENDBRANCH  11  13
ENDBRANCH  10  11
ENDBRANCH   8  10
ENDBRANCH   7   8
ENDBRANCH   6   7
ENDBRANCH   1   5
BRANCH   3  20
HETATM   20  C15 UNL     1      24.863   3.964  50.877  1.00  0.00     0.078 A 
HETATM   21  C16 UNL     1      25.726   2.897  50.738  1.00  0.00     0.064 A 
HETATM   22  C17 UNL     1      25.805   1.970  51.764  1.00  0.00     0.063 A 
HETATM   23  C18 UNL     1      25.049   2.082  52.912  1.00  0.00     0.086 A 
HETATM   24  N5  UNL     1      26.756   0.952  51.414  1.00  0.00    -0.364 N 
HETATM   25  C19 UNL     1      24.185   3.175  53.015  1.00  0.00     0.078 A 
HETATM   26  N4  UNL     1      25.039   1.204  54.025  1.00  0.00    -0.259 NA
HETATM   27  C20 UNL     1      24.077   4.123  52.015  1.00  0.00     0.145 A 
HETATM   28  F1  UNL     1      23.210   5.155  52.201  1.00  0.00    -0.204 F 
HETATM   29  C21 UNL     1      25.566   0.025  54.093  1.00  0.00     0.118 C 
HETATM   30  C22 UNL     1      26.310  -0.784  53.129  1.00  0.00     0.036 C 
HETATM   31  C23 UNL     1      26.826  -0.371  51.962  1.00  0.00     0.090 C 
HETATM   32  H26 UNL     1      27.436   1.236  50.700  1.00  0.00     0.165 HD
ENDBRANCH   3  20
TORSDOF 7
ENDMDL
MODEL 6
REMARK VINA RESULT:      -7.5      1.582      2.624
REMARK  7 active torsions:
REMARK  status: ('A' for Active; 'I' for Inactive)
REMARK    1  A    between atoms: C7_7  and  N1_8 
REMARK    2  A    between atoms: N1_8  and  C8_9 
REMARK    3  A    between atoms: C8_9  and  N2_10 
REMARK    4  A    between atoms: N2_10  and  C10_12 
REMARK    5  A    between atoms: C10_12  and  C11_13 
REMARK    6  A    between atoms: C12_14  and  C13_15 
REMARK       I    between atoms: C13_15  and  N3_17 
REMARK    7  A    between atoms: N3_17  and  C15_19 
ROOT
HETATM    1  C13 UNL     1      21.989   1.673  51.337  1.00  0.00     0.247 C 
HETATM    2  O1  UNL     1      20.803   1.948  51.133  1.00  0.00    -0.268 OA
HETATM    3  N3  UNL     1      22.282   1.328  52.692  1.00  0.00    -0.316 N 
HETATM    4  C14 UNL     1      21.315   1.296  53.767  1.00  0.00     0.159 C 
ENDROOT
BRANCH   1   5
HETATM    5  C12 UNL     1      23.071   1.667  50.361  1.00  0.00     0.072 C 
HETATM    6  C11 UNL     1      23.764   2.735  50.006  1.00  0.00     0.008 C 
BRANCH   6   7
HETATM    7  C10 UNL     1      23.694   4.151  50.425  1.00  0.00     0.301 C 
BRANCH   7   8
HETATM    8  N2  UNL     1      25.003   4.675  50.672  1.00  0.00     0.104 N 
HETATM    9  C9  UNL     1      26.011   3.639  50.449  1.00  0.00     0.312 C 
BRANCH   8  10
HETATM   10  C8  UNL     1      25.304   5.867  49.927  1.00  0.00     0.395 C 
BRANCH  10  11
HETATM   11  N1  UNL     1      26.180   5.593  48.782  1.00  0.00    -0.365 N 
HETATM   12  H8  UNL     1      26.358   4.632  48.402  1.00  0.00     0.161 HD
BRANCH  11  13
HETATM   13  C7  UNL     1      26.847   6.684  48.123  1.00  0.00     0.035 A 
HETATM   14  C2  UNL     1      28.200   6.686  47.870  1.00  0.00    -0.036 A 
HETATM   15  C1  UNL     1      28.944   5.494  48.317  1.00  0.00     0.050 C 
HETATM   16  C3  UNL     1      28.793   7.757  47.233  1.00  0.00     0.009 A 
HETATM   17  C4  UNL     1      28.014   8.830  46.850  1.00  0.00     0.001 A 
HETATM   18  C5  UNL     1      26.634   8.884  47.080  1.00  0.00     0.002 A 
HETATM   19  C6  UNL     1      26.088   7.790  47.720  1.00  0.00     0.029 A 
ENDBRANCH  11  13
ENDBRANCH  10  11
ENDBRANCH   8  10
ENDBRANCH   7   8
ENDBRANCH   6   7
ENDBRANCH   1   5
BRANCH   3  20
HETATM   20  C15 UNL     1      23.631   0.978  53.070  1.00  0.00     0.078 A 
HETATM   21  C16 UNL     1      24.658   1.870  53.296  1.00  0.00     0.064 A 
HETATM   22  C17 UNL     1      25.901   1.375  53.651  1.00  0.00     0.063 A 
HETATM   23  C18 UNL     1      26.140   0.023  53.782  1.00  0.00     0.086 A 
HETATM   24  N5  UNL     1      26.815   2.468  53.837  1.00  0.00    -0.364 N 
HETATM   25  C19 UNL     1      25.076  -0.850  53.544  1.00  0.00     0.078 A 
HETATM   26  N4  UNL     1      27.362  -0.604  54.137  1.00  0.00    -0.259 NA
HETATM   27  C20 UNL     1      23.820  -0.397  53.189  1.00  0.00     0.145 A 
HETATM   28  F1  UNL     1      22.841  -1.318  52.976  1.00  0.00    -0.204 F 
HETATM   29  C21 UNL     1      28.532  -0.057  54.194  1.00  0.00     0.118 C 
HETATM   30  C22 UNL     1      29.002   1.302  53.936  1.00  0.00     0.036 C 
HETATM   31  C23 UNL     1      28.246   2.399  53.781  1.00  0.00     0.090 C 
HETATM   32  H26 UNL     1      26.363   3.369  54.025  1.00  0.00     0.165 HD
ENDBRANCH   3  20
TORSDOF 7
ENDMDL
MODEL 7
REMARK VINA RESULT:      -7.4      2.261      4.902
REMARK  7 active torsions:
REMARK  status: ('A' for Active; 'I' for Inactive)
REMARK    1  A    between atoms: C7_7  and  N1_8 
REMARK    2  A    between atoms: N1_8  and  C8_9 
REMARK    3  A    between atoms: C8_9  and  N2_10 
REMARK    4  A    between atoms: N2_10  and  C10_12 
REMARK    5  A    between atoms: C10_12  and  C11_13 
REMARK    6  A    between atoms: C12_14  and  C13_15 
REMARK       I    between atoms: C13_15  and  N3_17 
REMARK    7  A    between atoms: N3_17  and  C15_19 
ROOT
HETATM    1  C13 UNL     1      25.578   2.146  52.967  1.00  0.00     0.247 C 
HETATM    2  O1  UNL     1      26.757   2.455  52.774  1.00  0.00    -0.268 OA
HETATM    3  N3  UNL     1      25.278   0.780  52.676  1.00  0.00    -0.316 N 
HETATM    4  C14 UNL     1      26.233  -0.192  52.192  1.00  0.00     0.159 C 
ENDROOT
BRANCH   1   5
HETATM    5  C12 UNL     1      24.508   3.013  53.445  1.00  0.00     0.072 C 
HETATM    6  C11 UNL     1      24.007   4.028  52.762  1.00  0.00     0.008 C 
BRANCH   6   7
HETATM    7  C10 UNL     1      24.319   4.580  51.427  1.00  0.00     0.301 C 
BRANCH   7   8
HETATM    8  N2  UNL     1      24.257   3.559  50.425  1.00  0.00     0.104 N 
HETATM    9  C9  UNL     1      22.966   3.603  49.741  1.00  0.00     0.312 C 
BRANCH   8  10
HETATM   10  C8  UNL     1      25.347   3.594  49.489  1.00  0.00     0.395 C 
BRANCH  10  11
HETATM   11  N1  UNL     1      26.280   4.690  49.773  1.00  0.00    -0.365 N 
HETATM   12  H8  UNL     1      26.917   4.712  50.605  1.00  0.00     0.161 HD
BRANCH  11  13
HETATM   13  C7  UNL     1      26.349   5.813  48.876  1.00  0.00     0.035 A 
HETATM   14  C2  UNL     1      27.510   6.188  48.239  1.00  0.00    -0.036 A 
HETATM   15  C1  UNL     1      28.701   5.368  48.527  1.00  0.00     0.050 C 
HETATM   16  C3  UNL     1      27.523   7.273  47.386  1.00  0.00     0.009 A 
HETATM   17  C4  UNL     1      26.357   7.981  47.177  1.00  0.00     0.001 A 
HETATM   18  C5  UNL     1      25.147   7.647  47.797  1.00  0.00     0.002 A 
HETATM   19  C6  UNL     1      25.185   6.555  48.640  1.00  0.00     0.029 A 
ENDBRANCH  11  13
ENDBRANCH  10  11
ENDBRANCH   8  10
ENDBRANCH   7   8
ENDBRANCH   6   7
ENDBRANCH   1   5
BRANCH   3  20
HETATM   20  C15 UNL     1      23.936   0.282  52.863  1.00  0.00     0.078 A 
HETATM   21  C16 UNL     1      22.877   0.491  52.006  1.00  0.00     0.064 A 
HETATM   22  C17 UNL     1      21.645  -0.054  52.328  1.00  0.00     0.063 A 
HETATM   23  C18 UNL     1      21.449  -0.794  53.475  1.00  0.00     0.086 A 
HETATM   24  N5  UNL     1      20.692   0.284  51.307  1.00  0.00    -0.364 N 
HETATM   25  C19 UNL     1      22.546  -0.984  54.319  1.00  0.00     0.078 A 
HETATM   26  N4  UNL     1      20.244  -1.400  53.913  1.00  0.00    -0.259 NA
HETATM   27  C20 UNL     1      23.792  -0.458  54.034  1.00  0.00     0.145 A 
HETATM   28  F1  UNL     1      24.804  -0.693  54.912  1.00  0.00    -0.204 F 
HETATM   29  C21 UNL     1      19.056  -1.199  53.445  1.00  0.00     0.118 C 
HETATM   30  C22 UNL     1      18.544  -0.344  52.376  1.00  0.00     0.036 C 
HETATM   31  C23 UNL     1      19.266   0.300  51.447  1.00  0.00     0.090 C 
HETATM   32  H26 UNL     1      21.111   0.533  50.404  1.00  0.00     0.165 HD
ENDBRANCH   3  20
TORSDOF 7
ENDMDL
MODEL 8
REMARK VINA RESULT:      -7.2      3.017      6.506
REMARK  7 active torsions:
REMARK  status: ('A' for Active; 'I' for Inactive)
REMARK    1  A    between atoms: C7_7  and  N1_8 
REMARK    2  A    between atoms: N1_8  and  C8_9 
REMARK    3  A    between atoms: C8_9  and  N2_10 
REMARK    4  A    between atoms: N2_10  and  C10_12 
REMARK    5  A    between atoms: C10_12  and  C11_13 
REMARK    6  A    between atoms: C12_14  and  C13_15 
REMARK       I    between atoms: C13_15  and  N3_17 
REMARK    7  A    between atoms: N3_17  and  C15_19 
ROOT
HETATM    1  C13 UNL     1      23.019   4.129  49.052  1.00  0.00     0.247 C 
HETATM    2  O1  UNL     1      22.693   5.164  48.463  1.00  0.00    -0.268 OA
HETATM    3  N3  UNL     1      23.382   4.326  50.419  1.00  0.00    -0.316 N 
HETATM    4  C14 UNL     1      23.388   5.602  51.099  1.00  0.00     0.159 C 
ENDROOT
BRANCH   1   5
HETATM    5  C12 UNL     1      23.066   2.781  48.499  1.00  0.00     0.072 C 
HETATM    6  C11 UNL     1      22.006   2.098  48.103  1.00  0.00     0.008 C 
BRANCH   6   7
HETATM    7  C10 UNL     1      20.565   2.422  48.081  1.00  0.00     0.301 C 
BRANCH   7   8
HETATM    8  N2  UNL     1      20.024   2.432  49.407  1.00  0.00     0.104 N 
HETATM    9  C9  UNL     1      19.273   3.667  49.635  1.00  0.00     0.312 C 
BRANCH   8  10
HETATM   10  C8  UNL     1      19.234   1.274  49.724  1.00  0.00     0.395 C 
BRANCH  10  11
HETATM   11  N1  UNL     1      19.403   0.858  51.120  1.00  0.00    -0.365 N 
HETATM   12  H8  UNL     1      20.186   1.187  51.735  1.00  0.00     0.161 HD
BRANCH  11  13
HETATM   13  C7  UNL     1      18.459  -0.055  51.707  1.00  0.00     0.035 A 
HETATM   14  C2  UNL     1      18.716  -0.748  52.869  1.00  0.00    -0.036 A 
HETATM   15  C1  UNL     1      20.031  -0.505  53.490  1.00  0.00     0.050 C 
HETATM   16  C3  UNL     1      17.776  -1.612  53.393  1.00  0.00     0.009 A 
HETATM   17  C4  UNL     1      16.571  -1.774  52.740  1.00  0.00     0.001 A 
HETATM   18  C5  UNL     1      16.254  -1.097  51.556  1.00  0.00     0.002 A 
HETATM   19  C6  UNL     1      17.226  -0.245  51.072  1.00  0.00     0.029 A 
ENDBRANCH  11  13
ENDBRANCH  10  11
ENDBRANCH   8  10
ENDBRANCH   7   8
ENDBRANCH   6   7
ENDBRANCH   1   5
BRANCH   3  20
HETATM   20  C15 UNL     1      23.779   3.198  51.228  1.00  0.00     0.078 A 
HETATM   21  C16 UNL     1      25.035   2.627  51.246  1.00  0.00     0.064 A 
HETATM   22  C17 UNL     1      25.258   1.544  52.079  1.00  0.00     0.063 A 
HETATM   23  C18 UNL     1      24.267   1.021  52.884  1.00  0.00     0.086 A 
HETATM   24  N5  UNL     1      26.621   1.111  51.942  1.00  0.00    -0.364 N 
HETATM   25  C19 UNL     1      23.009   1.625  52.836  1.00  0.00     0.078 A 
HETATM   26  N4  UNL     1      24.372  -0.079  53.772  1.00  0.00    -0.259 NA
HETATM   27  C20 UNL     1      22.744   2.709  52.020  1.00  0.00     0.145 A 
HETATM   28  F1  UNL     1      21.489   3.234  52.038  1.00  0.00    -0.204 F 
HETATM   29  C21 UNL     1      25.337  -0.936  53.843  1.00  0.00     0.118 C 
HETATM   30  C22 UNL     1      26.586  -1.084  53.098  1.00  0.00     0.036 C 
HETATM   31  C23 UNL     1      27.139  -0.186  52.270  1.00  0.00     0.090 C 
HETATM   32  H26 UNL     1      27.257   1.825  51.570  1.00  0.00     0.165 HD
ENDBRANCH   3  20
TORSDOF 7
ENDMDL
MODEL 9
REMARK VINA RESULT:      -7.2      1.680      2.851
REMARK  7 active torsions:
REMARK  status: ('A' for Active; 'I' for Inactive)
REMARK    1  A    between atoms: C7_7  and  N1_8 
REMARK    2  A    between atoms: N1_8  and  C8_9 
REMARK    3  A    between atoms: C8_9  and  N2_10 
REMARK    4  A    between atoms: N2_10  and  C10_12 
REMARK    5  A    between atoms: C10_12  and  C11_13 
REMARK    6  A    between atoms: C12_14  and  C13_15 
REMARK       I    between atoms: C13_15  and  N3_17 
REMARK    7  A    between atoms: N3_17  and  C15_19 
ROOT
HETATM    1  C13 UNL     1      21.750   3.015  51.549  1.00  0.00     0.247 C 
HETATM    2  O1  UNL     1      20.776   3.212  50.816  1.00  0.00    -0.268 OA
HETATM    3  N3  UNL     1      22.353   1.731  51.383  1.00  0.00    -0.316 N 
HETATM    4  C14 UNL     1      21.900   0.716  50.457  1.00  0.00     0.159 C 
ENDROOT
BRANCH   1   5
HETATM    5  C12 UNL     1      22.315   3.935  52.528  1.00  0.00     0.072 C 
HETATM    6  C11 UNL     1      22.884   5.089  52.228  1.00  0.00     0.008 C 
BRANCH   6   7
HETATM    7  C10 UNL     1      23.123   5.776  50.941  1.00  0.00     0.301 C 
BRANCH   7   8
HETATM    8  N2  UNL     1      24.017   5.020  50.117  1.00  0.00     0.104 N 
HETATM    9  C9  UNL     1      23.450   4.856  48.778  1.00  0.00     0.312 C 
BRANCH   8  10
HETATM   10  C8  UNL     1      25.350   5.554  50.058  1.00  0.00     0.395 C 
BRANCH  10  11
HETATM   11  N1  UNL     1      25.595   6.285  48.810  1.00  0.00    -0.365 N 
HETATM   12  H8  UNL     1      24.837   6.723  48.233  1.00  0.00     0.161 HD
BRANCH  11  13
HETATM   13  C7  UNL     1      26.941   6.425  48.323  1.00  0.00     0.035 A 
HETATM   14  C2  UNL     1      27.363   7.519  47.602  1.00  0.00    -0.036 A 
HETATM   15  C1  UNL     1      26.347   8.557  47.348  1.00  0.00     0.050 C 
HETATM   16  C3  UNL     1      28.667   7.606  47.158  1.00  0.00     0.009 A 
HETATM   17  C4  UNL     1      29.548   6.584  47.446  1.00  0.00     0.001 A 
HETATM   18  C5  UNL     1      29.177   5.447  48.175  1.00  0.00     0.002 A 
HETATM   19  C6  UNL     1      27.863   5.406  48.596  1.00  0.00     0.029 A 
ENDBRANCH  11  13
ENDBRANCH  10  11
ENDBRANCH   8  10
ENDBRANCH   7   8
ENDBRANCH   6   7
ENDBRANCH   1   5
BRANCH   3  20
HETATM   20  C15 UNL     1      23.505   1.369  52.174  1.00  0.00     0.078 A 
HETATM   21  C16 UNL     1      24.731   2.000  52.141  1.00  0.00     0.064 A 
HETATM   22  C17 UNL     1      25.741   1.531  52.964  1.00  0.00     0.063 A 
HETATM   23  C18 UNL     1      25.557   0.457  53.809  1.00  0.00     0.086 A 
HETATM   24  N5  UNL     1      26.922   2.326  52.770  1.00  0.00    -0.364 N 
HETATM   25  C19 UNL     1      24.302  -0.157  53.815  1.00  0.00     0.078 A 
HETATM   26  N4  UNL     1      26.507  -0.115  54.693  1.00  0.00    -0.259 NA
HETATM   27  C20 UNL     1      23.267   0.281  53.010  1.00  0.00     0.145 A 
HETATM   28  F1  UNL     1      22.078  -0.376  53.080  1.00  0.00    -0.204 F 
HETATM   29  C21 UNL     1      27.780   0.113  54.725  1.00  0.00     0.118 C 
HETATM   30  C22 UNL     1      28.651   0.975  53.928  1.00  0.00     0.036 C 
HETATM   31  C23 UNL     1      28.268   1.938  53.077  1.00  0.00     0.090 C 
HETATM   32  H26 UNL     1      26.745   3.255  52.372  1.00  0.00     0.165 HD
ENDBRANCH   3  20
TORSDOF 7
ENDMDL
