MODEL 1
REMARK VINA RESULT:      -9.0      0.000      0.000
REMARK  6 active torsions:
REMARK  status: ('A' for Active; 'I' for Inactive)
REMARK    1  A    between atoms: C2_2  and  N1_3 
REMARK    2  A    between atoms: C2_2  and  C14_19 
REMARK    3  A    between atoms: N1_3  and  C3_4 
REMARK    4  A    between atoms: C3_4  and  C4_5 
REMARK    5  A    between atoms: C5_6  and  N2_7 
REMARK    6  A    between atoms: N2_7  and  O1_8 
ROOT
HETATM    1  C4  UNL     1      25.403   1.611  51.731  1.00  0.00     0.007 C 
HETATM    2  C5  UNL     1      26.415   2.488  51.539  1.00  0.00     0.156 C 
HETATM    3  N3  UNL     1      27.559   1.875  52.122  1.00  0.00    -0.222 NA
HETATM    4  C6  UNL     1      27.629   2.077  53.433  1.00  0.00     0.236 C 
HETATM    5  N4  UNL     1      28.821   1.348  53.599  1.00  0.00    -0.241 NA
HETATM    6  C7  UNL     1      28.802   0.048  53.451  1.00  0.00     0.068 A 
HETATM    7  C8  UNL     1      30.050  -0.660  53.629  1.00  0.00     0.032 A 
HETATM    8  C9  UNL     1      29.725  -1.930  53.405  1.00  0.00     0.003 A 
HETATM    9  C10 UNL     1      28.312  -2.045  53.093  1.00  0.00     0.014 A 
HETATM   10  C11 UNL     1      27.722  -0.834  53.117  1.00  0.00    -0.007 A 
HETATM   11  C12 UNL     1      26.300  -0.671  52.830  1.00  0.00     0.014 C 
HETATM   12  C13 UNL     1      25.513   0.249  52.320  1.00  0.00     0.013 C 
ENDROOT
BRANCH   1  13
HETATM   13  C3  UNL     1      24.038   2.065  51.240  1.00  0.00     0.157 C 
BRANCH  13  14
HETATM   14  N1  UNL     1      23.231   2.302  52.358  1.00  0.00    -0.410 N 
HETATM   15  H5  UNL     1      23.658   2.913  53.043  1.00  0.00     0.154 HD
BRANCH  14  16
HETATM   16  C2  UNL     1      21.844   2.468  52.261  1.00  0.00     0.106 C 
HETATM   17  C1  UNL     1      21.403   3.017  50.902  1.00  0.00     0.037 C 
BRANCH  16  18
HETATM   18  C14 UNL     1      20.956   1.356  52.590  1.00  0.00    -0.036 A 
HETATM   19  C15 UNL     1      21.094   0.384  53.548  1.00  0.00     0.010 A 
HETATM   20  C16 UNL     1      20.247  -0.645  53.862  1.00  0.00     0.019 A 
HETATM   21  C17 UNL     1      19.080  -0.747  53.130  1.00  0.00     0.011 A 
HETATM   22 BR1  UNL     1      17.830  -2.122  53.467  1.00  0.00    -0.051 Br
HETATM   23  C18 UNL     1      18.833   0.173  52.139  1.00  0.00     0.019 A 
HETATM   24  C19 UNL     1      19.748   1.195  51.880  1.00  0.00     0.010 A 
ENDBRANCH  16  18
ENDBRANCH  14  16
ENDBRANCH  13  14
ENDBRANCH   1  13
BRANCH   2  25
HETATM   25  N2  UNL     1      26.232   3.737  50.923  1.00  0.00    -0.251 N 
HETATM   26  H8  UNL     1      25.332   4.107  51.299  1.00  0.00     0.196 HD
BRANCH  25  27
HETATM   27  O1  UNL     1      27.238   4.071  50.064  1.00  0.00    -0.288 OA
HETATM   28  H9  UNL     1      27.318   5.057  50.014  1.00  0.00     0.244 HD
ENDBRANCH  25  27
ENDBRANCH   2  25
TORSDOF 6
ENDMDL
MODEL 2
REMARK VINA RESULT:      -8.8      1.600      2.176
REMARK  6 active torsions:
REMARK  status: ('A' for Active; 'I' for Inactive)
REMARK    1  A    between atoms: C2_2  and  N1_3 
REMARK    2  A    between atoms: C2_2  and  C14_19 
REMARK    3  A    between atoms: N1_3  and  C3_4 
REMARK    4  A    between atoms: C3_4  and  C4_5 
REMARK    5  A    between atoms: C5_6  and  N2_7 
REMARK    6  A    between atoms: N2_7  and  O1_8 
ROOT
HETATM    1  C4  UNL     1      24.572   1.210  52.338  1.00  0.00     0.007 C 
HETATM    2  C5  UNL     1      25.226   2.395  52.327  1.00  0.00     0.156 C 
HETATM    3  N3  UNL     1      26.530   2.108  52.818  1.00  0.00    -0.222 NA
HETATM    4  C6  UNL     1      26.578   2.091  54.145  1.00  0.00     0.236 C 
HETATM    5  N4  UNL     1      27.950   1.785  54.207  1.00  0.00    -0.241 NA
HETATM    6  C7  UNL     1      28.360   0.601  53.831  1.00  0.00     0.068 A 
HETATM    7  C8  UNL     1      29.779   0.331  53.910  1.00  0.00     0.032 A 
HETATM    8  C9  UNL     1      29.886  -0.915  53.457  1.00  0.00     0.003 A 
HETATM    9  C10 UNL     1      28.582  -1.440  53.097  1.00  0.00     0.014 A 
HETATM   10  C11 UNL     1      27.623  -0.519  53.322  1.00  0.00    -0.007 A 
HETATM   11  C12 UNL     1      26.219  -0.794  53.036  1.00  0.00     0.014 C 
HETATM   12  C13 UNL     1      25.151  -0.116  52.680  1.00  0.00     0.013 C 
ENDROOT
BRANCH   1  13
HETATM   13  C3  UNL     1      23.115   1.260  51.904  1.00  0.00     0.157 C 
BRANCH  13  14
HETATM   14  N1  UNL     1      22.318   1.080  53.039  1.00  0.00    -0.410 N 
HETATM   15  H5  UNL     1      21.815   1.913  53.317  1.00  0.00     0.154 HD
BRANCH  14  16
HETATM   16  C2  UNL     1      21.600  -0.100  53.273  1.00  0.00     0.106 C 
HETATM   17  C1  UNL     1      21.600  -0.514  54.747  1.00  0.00     0.037 C 
BRANCH  16  18
HETATM   18  C14 UNL     1      20.229  -0.223  52.786  1.00  0.00    -0.036 A 
HETATM   19  C15 UNL     1      19.633   0.368  51.701  1.00  0.00     0.010 A 
HETATM   20  C16 UNL     1      18.351   0.231  51.240  1.00  0.00     0.019 A 
HETATM   21  C17 UNL     1      17.514  -0.612  51.944  1.00  0.00     0.011 A 
HETATM   22 BR1  UNL     1      15.723  -0.884  51.409  1.00  0.00    -0.051 Br
HETATM   23  C18 UNL     1      18.002  -1.260  53.053  1.00  0.00     0.019 A 
HETATM   24  C19 UNL     1      19.323  -1.068  53.459  1.00  0.00     0.010 A 
ENDBRANCH  16  18
ENDBRANCH  14  16
ENDBRANCH  13  14
ENDBRANCH   1  13
BRANCH   2  25
HETATM   25  N2  UNL     1      24.613   3.598  51.938  1.00  0.00    -0.251 N 
HETATM   26  H8  UNL     1      24.659   3.612  50.896  1.00  0.00     0.196 HD
BRANCH  25  27
HETATM   27  O1  UNL     1      24.168   4.345  52.989  1.00  0.00    -0.288 OA
HETATM   28  H9  UNL     1      24.088   3.773  53.793  1.00  0.00     0.244 HD
ENDBRANCH  25  27
ENDBRANCH   2  25
TORSDOF 6
ENDMDL
MODEL 3
REMARK VINA RESULT:      -8.6      3.788      5.118
REMARK  6 active torsions:
REMARK  status: ('A' for Active; 'I' for Inactive)
REMARK    1  A    between atoms: C2_2  and  N1_3 
REMARK    2  A    between atoms: C2_2  and  C14_19 
REMARK    3  A    between atoms: N1_3  and  C3_4 
REMARK    4  A    between atoms: C3_4  and  C4_5 
REMARK    5  A    between atoms: C5_6  and  N2_7 
REMARK    6  A    between atoms: N2_7  and  O1_8 
ROOT
HETATM    1  C4  UNL     1      23.700   0.388  52.942  1.00  0.00     0.007 C 
HETATM    2  C5  UNL     1      23.858  -0.439  54.001  1.00  0.00     0.156 C 
HETATM    3  N3  UNL     1      25.244  -0.387  54.316  1.00  0.00    -0.222 NA
HETATM    4  C6  UNL     1      25.965  -1.210  53.563  1.00  0.00     0.236 C 
HETATM    5  N4  UNL     1      27.193  -0.863  54.156  1.00  0.00    -0.241 NA
HETATM    6  C7  UNL     1      27.693   0.327  53.943  1.00  0.00     0.068 A 
HETATM    7  C8  UNL     1      28.957   0.640  54.574  1.00  0.00     0.032 A 
HETATM    8  C9  UNL     1      29.194   1.892  54.194  1.00  0.00     0.003 A 
HETATM    9  C10 UNL     1      28.123   2.378  53.344  1.00  0.00     0.014 A 
HETATM   10  C11 UNL     1      27.185   1.425  53.175  1.00  0.00    -0.007 A 
HETATM   11  C12 UNL     1      25.995   1.661  52.364  1.00  0.00     0.014 C 
HETATM   12  C13 UNL     1      24.747   1.251  52.331  1.00  0.00     0.013 C 
ENDROOT
BRANCH   1  13
HETATM   13  C3  UNL     1      22.293   0.464  52.371  1.00  0.00     0.157 C 
BRANCH  13  14
HETATM   14  N1  UNL     1      21.789   1.744  52.626  1.00  0.00    -0.410 N 
HETATM   15  H5  UNL     1      22.190   2.181  53.447  1.00  0.00     0.154 HD
BRANCH  14  16
HETATM   16  C2  UNL     1      21.502   2.656  51.603  1.00  0.00     0.106 C 
HETATM   17  C1  UNL     1      20.352   3.603  51.955  1.00  0.00     0.037 C 
BRANCH  16  18
HETATM   18  C14 UNL     1      22.574   3.466  51.031  1.00  0.00    -0.036 A 
HETATM   19  C15 UNL     1      23.190   4.580  51.540  1.00  0.00     0.010 A 
HETATM   20  C16 UNL     1      24.208   5.324  51.005  1.00  0.00     0.019 A 
HETATM   21  C17 UNL     1      24.707   4.921  49.781  1.00  0.00     0.011 A 
HETATM   22 BR1  UNL     1      26.111   5.863  48.939  1.00  0.00    -0.051 Br
HETATM   23  C18 UNL     1      24.165   3.814  49.173  1.00  0.00     0.019 A 
HETATM   24  C19 UNL     1      23.128   3.109  49.784  1.00  0.00     0.010 A 
ENDBRANCH  16  18
ENDBRANCH  14  16
ENDBRANCH  13  14
ENDBRANCH   1  13
BRANCH   2  25
HETATM   25  N2  UNL     1      22.798  -1.181  54.551  1.00  0.00    -0.251 N 
HETATM   26  H8  UNL     1      22.026  -1.129  53.851  1.00  0.00     0.196 HD
BRANCH  25  27
HETATM   27  O1  UNL     1      23.087  -1.717  55.772  1.00  0.00    -0.288 OA
HETATM   28  H9  UNL     1      23.836  -2.359  55.684  1.00  0.00     0.244 HD
ENDBRANCH  25  27
ENDBRANCH   2  25
TORSDOF 6
ENDMDL
MODEL 4
REMARK VINA RESULT:      -8.6      3.788      6.437
REMARK  6 active torsions:
REMARK  status: ('A' for Active; 'I' for Inactive)
REMARK    1  A    between atoms: C2_2  and  N1_3 
REMARK    2  A    between atoms: C2_2  and  C14_19 
REMARK    3  A    between atoms: N1_3  and  C3_4 
REMARK    4  A    between atoms: C3_4  and  C4_5 
REMARK    5  A    between atoms: C5_6  and  N2_7 
REMARK    6  A    between atoms: N2_7  and  O1_8 
ROOT
HETATM    1  C4  UNL     1      23.804   2.940  50.362  1.00  0.00     0.007 C 
HETATM    2  C5  UNL     1      23.019   3.979  49.997  1.00  0.00     0.156 C 
HETATM    3  N3  UNL     1      23.919   5.014  49.616  1.00  0.00    -0.222 NA
HETATM    4  C6  UNL     1      24.359   5.710  50.659  1.00  0.00     0.236 C 
HETATM    5  N4  UNL     1      25.169   6.566  49.891  1.00  0.00    -0.241 NA
HETATM    6  C7  UNL     1      26.243   6.088  49.318  1.00  0.00     0.068 A 
HETATM    7  C8  UNL     1      27.046   7.004  48.538  1.00  0.00     0.032 A 
HETATM    8  C9  UNL     1      28.035   6.242  48.079  1.00  0.00     0.003 A 
HETATM    9  C10 UNL     1      27.883   4.876  48.546  1.00  0.00     0.014 A 
HETATM   10  C11 UNL     1      26.782   4.759  49.315  1.00  0.00    -0.007 A 
HETATM   11  C12 UNL     1      26.396   3.482  49.906  1.00  0.00     0.014 C 
HETATM   12  C13 UNL     1      25.287   2.875  50.264  1.00  0.00     0.013 C 
ENDROOT
BRANCH   1  13
HETATM   13  C3  UNL     1      23.070   1.710  50.873  1.00  0.00     0.157 C 
BRANCH  13  14
HETATM   14  N1  UNL     1      22.904   1.846  52.255  1.00  0.00    -0.410 N 
HETATM   15  H5  UNL     1      22.009   2.239  52.519  1.00  0.00     0.154 HD
BRANCH  14  16
HETATM   16  C2  UNL     1      23.377   0.893  53.166  1.00  0.00     0.106 C 
HETATM   17  C1  UNL     1      22.665  -0.456  53.038  1.00  0.00     0.037 C 
BRANCH  16  18
HETATM   18  C14 UNL     1      24.809   0.623  53.255  1.00  0.00    -0.036 A 
HETATM   19  C15 UNL     1      25.501  -0.520  52.946  1.00  0.00     0.010 A 
HETATM   20  C16 UNL     1      26.848  -0.759  53.016  1.00  0.00     0.019 A 
HETATM   21  C17 UNL     1      27.650   0.276  53.456  1.00  0.00     0.011 A 
HETATM   22 BR1  UNL     1      29.522   0.072  53.595  1.00  0.00    -0.051 Br
HETATM   23  C18 UNL     1      27.066   1.472  53.796  1.00  0.00     0.019 A 
HETATM   24  C19 UNL     1      25.683   1.637  53.697  1.00  0.00     0.010 A 
ENDBRANCH  16  18
ENDBRANCH  14  16
ENDBRANCH  13  14
ENDBRANCH   1  13
BRANCH   2  25
HETATM   25  N2  UNL     1      21.617   3.937  50.072  1.00  0.00    -0.251 N 
HETATM   26  H8  UNL     1      21.298   3.538  49.163  1.00  0.00     0.196 HD
BRANCH  25  27
HETATM   27  O1  UNL     1      21.123   4.405  51.255  1.00  0.00    -0.288 OA
HETATM   28  H9  UNL     1      20.367   3.837  51.547  1.00  0.00     0.244 HD
ENDBRANCH  25  27
ENDBRANCH   2  25
TORSDOF 6
ENDMDL
MODEL 5
REMARK VINA RESULT:      -8.4      4.208      6.076
REMARK  6 active torsions:
REMARK  status: ('A' for Active; 'I' for Inactive)
REMARK    1  A    between atoms: C2_2  and  N1_3 
REMARK    2  A    between atoms: C2_2  and  C14_19 
REMARK    3  A    between atoms: N1_3  and  C3_4 
REMARK    4  A    between atoms: C3_4  and  C4_5 
REMARK    5  A    between atoms: C5_6  and  N2_7 
REMARK    6  A    between atoms: N2_7  and  O1_8 
ROOT
HETATM    1  C4  UNL     1      24.118   1.332  52.020  1.00  0.00     0.007 C 
HETATM    2  C5  UNL     1      23.761   0.544  53.060  1.00  0.00     0.156 C 
HETATM    3  N3  UNL     1      24.980   0.200  53.707  1.00  0.00    -0.222 NA
HETATM    4  C6  UNL     1      25.586  -0.832  53.130  1.00  0.00     0.236 C 
HETATM    5  N4  UNL     1      26.678  -0.835  54.016  1.00  0.00    -0.241 NA
HETATM    6  C7  UNL     1      27.544   0.144  53.969  1.00  0.00     0.068 A 
HETATM    7  C8  UNL     1      28.651   0.100  54.900  1.00  0.00     0.032 A 
HETATM    8  C9  UNL     1      29.333   1.209  54.627  1.00  0.00     0.003 A 
HETATM    9  C10 UNL     1      28.694   1.949  53.555  1.00  0.00     0.014 A 
HETATM   10  C11 UNL     1      27.587   1.308  53.132  1.00  0.00    -0.007 A 
HETATM   11  C12 UNL     1      26.755   1.847  52.061  1.00  0.00     0.014 C 
HETATM   12  C13 UNL     1      25.488   1.820  51.711  1.00  0.00     0.013 C 
ENDROOT
BRANCH   1  13
HETATM   13  C3  UNL     1      22.979   1.792  51.123  1.00  0.00     0.157 C 
BRANCH  13  14
HETATM   14  N1  UNL     1      23.535   2.404  49.995  1.00  0.00    -0.410 N 
HETATM   15  H5  UNL     1      23.508   1.823  49.165  1.00  0.00     0.154 HD
BRANCH  14  16
HETATM   16  C2  UNL     1      23.367   3.766  49.719  1.00  0.00     0.106 C 
HETATM   17  C1  UNL     1      22.674   4.522  50.855  1.00  0.00     0.037 C 
BRANCH  16  18
HETATM   18  C14 UNL     1      24.512   4.568  49.297  1.00  0.00    -0.036 A 
HETATM   19  C15 UNL     1      24.556   5.874  48.882  1.00  0.00     0.010 A 
HETATM   20  C16 UNL     1      25.639   6.625  48.506  1.00  0.00     0.019 A 
HETATM   21  C17 UNL     1      26.875   6.009  48.538  1.00  0.00     0.011 A 
HETATM   22 BR1  UNL     1      28.443   6.937  48.043  1.00  0.00    -0.051 Br
HETATM   23  C18 UNL     1      26.954   4.697  48.938  1.00  0.00     0.019 A 
HETATM   24  C19 UNL     1      25.803   3.999  49.307  1.00  0.00     0.010 A 
ENDBRANCH  16  18
ENDBRANCH  14  16
ENDBRANCH  13  14
ENDBRANCH   1  13
BRANCH   2  25
HETATM   25  N2  UNL     1      22.429   0.172  53.310  1.00  0.00    -0.251 N 
HETATM   26  H8  UNL     1      21.895   1.066  53.372  1.00  0.00     0.196 HD
BRANCH  25  27
HETATM   27  O1  UNL     1      22.248  -1.178  53.391  1.00  0.00    -0.288 OA
HETATM   28  H9  UNL     1      22.761  -1.536  54.159  1.00  0.00     0.244 HD
ENDBRANCH  25  27
ENDBRANCH   2  25
TORSDOF 6
ENDMDL
MODEL 6
REMARK VINA RESULT:      -8.2      1.437      1.830
REMARK  6 active torsions:
REMARK  status: ('A' for Active; 'I' for Inactive)
REMARK    1  A    between atoms: C2_2  and  N1_3 
REMARK    2  A    between atoms: C2_2  and  C14_19 
REMARK    3  A    between atoms: N1_3  and  C3_4 
REMARK    4  A    between atoms: C3_4  and  C4_5 
REMARK    5  A    between atoms: C5_6  and  N2_7 
REMARK    6  A    between atoms: N2_7  and  O1_8 
ROOT
HETATM    1  C4  UNL     1      25.437   1.735  51.666  1.00  0.00     0.007 C 
HETATM    2  C5  UNL     1      26.464   2.589  51.450  1.00  0.00     0.156 C 
HETATM    3  N3  UNL     1      27.598   1.972  52.048  1.00  0.00    -0.222 NA
HETATM    4  C6  UNL     1      27.672   2.209  53.353  1.00  0.00     0.236 C 
HETATM    5  N4  UNL     1      28.851   1.464  53.538  1.00  0.00    -0.241 NA
HETATM    6  C7  UNL     1      28.810   0.161  53.426  1.00  0.00     0.068 A 
HETATM    7  C8  UNL     1      30.046  -0.564  53.623  1.00  0.00     0.032 A 
HETATM    8  C9  UNL     1      29.698  -1.833  53.434  1.00  0.00     0.003 A 
HETATM    9  C10 UNL     1      28.283  -1.933  53.125  1.00  0.00     0.014 A 
HETATM   10  C11 UNL     1      27.714  -0.711  53.116  1.00  0.00    -0.007 A 
HETATM   11  C12 UNL     1      26.296  -0.531  52.826  1.00  0.00     0.014 C 
HETATM   12  C13 UNL     1      25.524   0.388  52.292  1.00  0.00     0.013 C 
ENDROOT
BRANCH   1  13
HETATM   13  C3  UNL     1      24.079   2.200  51.163  1.00  0.00     0.157 C 
BRANCH  13  14
HETATM   14  N1  UNL     1      23.255   2.413  52.273  1.00  0.00    -0.410 N 
HETATM   15  H5  UNL     1      23.740   2.336  53.158  1.00  0.00     0.154 HD
BRANCH  14  16
HETATM   16  C2  UNL     1      22.243   3.381  52.282  1.00  0.00     0.106 C 
HETATM   17  C1  UNL     1      22.571   4.593  51.407  1.00  0.00     0.037 C 
BRANCH  16  18
HETATM   18  C14 UNL     1      20.866   2.993  51.991  1.00  0.00    -0.036 A 
HETATM   19  C15 UNL     1      20.262   1.768  52.111  1.00  0.00     0.010 A 
HETATM   20  C16 UNL     1      18.963   1.416  51.853  1.00  0.00     0.019 A 
HETATM   21  C17 UNL     1      18.117   2.413  51.407  1.00  0.00     0.011 A 
HETATM   22 BR1  UNL     1      16.304   2.056  51.017  1.00  0.00    -0.051 Br
HETATM   23  C18 UNL     1      18.613   3.685  51.247  1.00  0.00     0.019 A 
HETATM   24  C19 UNL     1      19.951   3.962  51.533  1.00  0.00     0.010 A 
ENDBRANCH  16  18
ENDBRANCH  14  16
ENDBRANCH  13  14
ENDBRANCH   1  13
BRANCH   2  25
HETATM   25  N2  UNL     1      26.302   3.824  50.800  1.00  0.00    -0.251 N 
HETATM   26  H8  UNL     1      25.414   4.224  51.174  1.00  0.00     0.196 HD
BRANCH  25  27
HETATM   27  O1  UNL     1      27.306   4.111  49.921  1.00  0.00    -0.288 OA
HETATM   28  H9  UNL     1      27.831   4.880  50.257  1.00  0.00     0.244 HD
ENDBRANCH  25  27
ENDBRANCH   2  25
TORSDOF 6
ENDMDL
MODEL 7
REMARK VINA RESULT:      -8.0      6.603     10.166
REMARK  6 active torsions:
REMARK  status: ('A' for Active; 'I' for Inactive)
REMARK    1  A    between atoms: C2_2  and  N1_3 
REMARK    2  A    between atoms: C2_2  and  C14_19 
REMARK    3  A    between atoms: N1_3  and  C3_4 
REMARK    4  A    between atoms: C3_4  and  C4_5 
REMARK    5  A    between atoms: C5_6  and  N2_7 
REMARK    6  A    between atoms: N2_7  and  O1_8 
ROOT
HETATM    1  C4  UNL     1      26.714   7.033  49.284  1.00  0.00     0.007 C 
HETATM    2  C5  UNL     1      26.083   7.821  50.185  1.00  0.00     0.156 C 
HETATM    3  N3  UNL     1      25.085   6.995  50.771  1.00  0.00    -0.222 NA
HETATM    4  C6  UNL     1      23.977   6.942  50.039  1.00  0.00     0.236 C 
HETATM    5  N4  UNL     1      23.300   6.075  50.916  1.00  0.00    -0.241 NA
HETATM    6  C7  UNL     1      23.700   4.835  51.025  1.00  0.00     0.068 A 
HETATM    7  C8  UNL     1      22.975   3.979  51.939  1.00  0.00     0.032 A 
HETATM    8  C9  UNL     1      23.609   2.814  51.846  1.00  0.00     0.003 A 
HETATM    9  C10 UNL     1      24.709   2.906  50.904  1.00  0.00     0.014 A 
HETATM   10  C11 UNL     1      24.782   4.147  50.383  1.00  0.00    -0.007 A 
HETATM   11  C12 UNL     1      25.808   4.507  49.410  1.00  0.00     0.014 C 
HETATM   12  C13 UNL     1      26.476   5.583  49.058  1.00  0.00     0.013 C 
ENDROOT
BRANCH   1  13
HETATM   13  C3  UNL     1      27.805   7.711  48.470  1.00  0.00     0.157 C 
BRANCH  13  14
HETATM   14  N1  UNL     1      29.035   7.437  49.079  1.00  0.00    -0.410 N 
HETATM   15  H5  UNL     1      29.045   6.568  49.598  1.00  0.00     0.154 HD
BRANCH  14  16
HETATM   16  C2  UNL     1      30.259   7.725  48.463  1.00  0.00     0.106 C 
HETATM   17  C1  UNL     1      30.988   8.905  49.111  1.00  0.00     0.037 C 
BRANCH  16  18
HETATM   18  C14 UNL     1      31.239   6.662  48.266  1.00  0.00    -0.036 A 
HETATM   19  C15 UNL     1      31.082   5.428  47.687  1.00  0.00     0.010 A 
HETATM   20  C16 UNL     1      32.013   4.443  47.489  1.00  0.00     0.019 A 
HETATM   21  C17 UNL     1      33.300   4.695  47.922  1.00  0.00     0.011 A 
HETATM   22 BR1  UNL     1      34.674   3.416  47.707  1.00  0.00    -0.051 Br
HETATM   23  C18 UNL     1      33.577   5.901  48.520  1.00  0.00     0.019 A 
HETATM   24  C19 UNL     1      32.572   6.855  48.684  1.00  0.00     0.010 A 
ENDBRANCH  16  18
ENDBRANCH  14  16
ENDBRANCH  13  14
ENDBRANCH   1  13
BRANCH   2  25
HETATM   25  N2  UNL     1      26.409   9.175  50.372  1.00  0.00    -0.251 N 
HETATM   26  H8  UNL     1      25.688   9.713  49.844  1.00  0.00     0.196 HD
BRANCH  25  27
HETATM   27  O1  UNL     1      27.514   9.365  51.148  1.00  0.00    -0.288 OA
HETATM   28  H9  UNL     1      28.288   8.896  50.746  1.00  0.00     0.244 HD
ENDBRANCH  25  27
ENDBRANCH   2  25
TORSDOF 6
ENDMDL
MODEL 8
REMARK VINA RESULT:      -8.0      3.786      5.141
REMARK  6 active torsions:
REMARK  status: ('A' for Active; 'I' for Inactive)
REMARK    1  A    between atoms: C2_2  and  N1_3 
REMARK    2  A    between atoms: C2_2  and  C14_19 
REMARK    3  A    between atoms: N1_3  and  C3_4 
REMARK    4  A    between atoms: C3_4  and  C4_5 
REMARK    5  A    between atoms: C5_6  and  N2_7 
REMARK    6  A    between atoms: N2_7  and  O1_8 
ROOT
HETATM    1  C4  UNL     1      23.761   0.861  53.070  1.00  0.00     0.007 C 
HETATM    2  C5  UNL     1      23.892  -0.261  53.815  1.00  0.00     0.156 C 
HETATM    3  N3  UNL     1      25.290  -0.408  54.029  1.00  0.00    -0.222 NA
HETATM    4  C6  UNL     1      25.897  -1.011  53.012  1.00  0.00     0.236 C 
HETATM    5  N4  UNL     1      27.178  -0.953  53.592  1.00  0.00    -0.241 NA
HETATM    6  C7  UNL     1      27.775   0.205  53.713  1.00  0.00     0.068 A 
HETATM    7  C8  UNL     1      29.090   0.217  54.315  1.00  0.00     0.032 A 
HETATM    8  C9  UNL     1      29.422   1.504  54.315  1.00  0.00     0.003 A 
HETATM    9  C10 UNL     1      28.361   2.304  53.731  1.00  0.00     0.014 A 
HETATM   10  C11 UNL     1      27.333   1.520  53.351  1.00  0.00    -0.007 A 
HETATM   11  C12 UNL     1      26.133   2.080  52.738  1.00  0.00     0.014 C 
HETATM   12  C13 UNL     1      24.853   1.791  52.674  1.00  0.00     0.013 C 
ENDROOT
BRANCH   1  13
HETATM   13  C3  UNL     1      22.342   1.210  52.652  1.00  0.00     0.157 C 
BRANCH  13  14
HETATM   14  N1  UNL     1      22.412   2.118  51.590  1.00  0.00    -0.410 N 
HETATM   15  H5  UNL     1      23.025   2.904  51.770  1.00  0.00     0.154 HD
BRANCH  14  16
HETATM   16  C2  UNL     1      22.421   1.708  50.251  1.00  0.00     0.106 C 
HETATM   17  C1  UNL     1      21.348   0.661  49.943  1.00  0.00     0.037 C 
BRANCH  16  18
HETATM   18  C14 UNL     1      22.374   2.707  49.187  1.00  0.00    -0.036 A 
HETATM   19  C15 UNL     1      22.745   4.027  49.213  1.00  0.00     0.010 A 
HETATM   20  C16 UNL     1      22.714   4.952  48.204  1.00  0.00     0.019 A 
HETATM   21  C17 UNL     1      22.249   4.529  46.974  1.00  0.00     0.011 A 
HETATM   22 BR1  UNL     1      22.159   5.710  45.503  1.00  0.00    -0.051 Br
HETATM   23  C18 UNL     1      21.847   3.223  46.828  1.00  0.00     0.019 A 
HETATM   24  C19 UNL     1      21.909   2.340  47.907  1.00  0.00     0.010 A 
ENDBRANCH  16  18
ENDBRANCH  14  16
ENDBRANCH  13  14
ENDBRANCH   1  13
BRANCH   2  25
HETATM   25  N2  UNL     1      22.796  -1.056  54.191  1.00  0.00    -0.251 N 
HETATM   26  H8  UNL     1      22.263  -1.233  53.312  1.00  0.00     0.196 HD
BRANCH  25  27
HETATM   27  O1  UNL     1      22.765  -1.342  55.524  1.00  0.00    -0.288 OA
HETATM   28  H9  UNL     1      21.899  -1.050  55.906  1.00  0.00     0.244 HD
ENDBRANCH  25  27
ENDBRANCH   2  25
TORSDOF 6
ENDMDL
MODEL 9
REMARK VINA RESULT:      -7.7      3.033      3.913
REMARK  6 active torsions:
REMARK  status: ('A' for Active; 'I' for Inactive)
REMARK    1  A    between atoms: C2_2  and  N1_3 
REMARK    2  A    between atoms: C2_2  and  C14_19 
REMARK    3  A    between atoms: N1_3  and  C3_4 
REMARK    4  A    between atoms: C3_4  and  C4_5 
REMARK    5  A    between atoms: C5_6  and  N2_7 
REMARK    6  A    between atoms: N2_7  and  O1_8 
ROOT
HETATM    1  C4  UNL     1      23.525   0.579  53.370  1.00  0.00     0.007 C 
HETATM    2  C5  UNL     1      23.796  -0.518  54.114  1.00  0.00     0.156 C 
HETATM    3  N3  UNL     1      25.214  -0.574  54.199  1.00  0.00    -0.222 NA
HETATM    4  C6  UNL     1      25.763  -1.155  53.138  1.00  0.00     0.236 C 
HETATM    5  N4  UNL     1      27.085  -1.007  53.596  1.00  0.00    -0.241 NA
HETATM    6  C7  UNL     1      27.614   0.188  53.646  1.00  0.00     0.068 A 
HETATM    7  C8  UNL     1      28.976   0.294  54.124  1.00  0.00     0.032 A 
HETATM    8  C9  UNL     1      29.223   1.599  54.077  1.00  0.00     0.003 A 
HETATM    9  C10 UNL     1      28.064   2.320  53.584  1.00  0.00     0.014 A 
HETATM   10  C11 UNL     1      27.058   1.467  53.310  1.00  0.00    -0.007 A 
HETATM   11  C12 UNL     1      25.773   1.938  52.805  1.00  0.00     0.014 C 
HETATM   12  C13 UNL     1      24.514   1.568  52.863  1.00  0.00     0.013 C 
ENDROOT
BRANCH   1  13
HETATM   13  C3  UNL     1      22.054   0.831  53.081  1.00  0.00     0.157 C 
BRANCH  13  14
HETATM   14  N1  UNL     1      21.798   0.445  51.761  1.00  0.00    -0.410 N 
HETATM   15  H5  UNL     1      21.497  -0.517  51.672  1.00  0.00     0.154 HD
BRANCH  14  16
HETATM   16  C2  UNL     1      21.190   1.301  50.833  1.00  0.00     0.106 C 
HETATM   17  C1  UNL     1      21.496   0.918  49.383  1.00  0.00     0.037 C 
BRANCH  16  18
HETATM   18  C14 UNL     1      19.758   1.566  50.921  1.00  0.00    -0.036 A 
HETATM   19  C15 UNL     1      19.102   2.638  51.472  1.00  0.00     0.010 A 
HETATM   20  C16 UNL     1      17.757   2.888  51.533  1.00  0.00     0.019 A 
HETATM   21  C17 UNL     1      16.914   1.948  50.972  1.00  0.00     0.011 A 
HETATM   22 BR1  UNL     1      15.040   2.178  50.993  1.00  0.00    -0.051 Br
HETATM   23  C18 UNL     1      17.459   0.828  50.391  1.00  0.00     0.019 A 
HETATM   24  C19 UNL     1      18.843   0.647  50.368  1.00  0.00     0.010 A 
ENDBRANCH  16  18
ENDBRANCH  14  16
ENDBRANCH  13  14
ENDBRANCH   1  13
BRANCH   2  25
HETATM   25  N2  UNL     1      22.792  -1.374  54.599  1.00  0.00    -0.251 N 
HETATM   26  H8  UNL     1      22.100  -1.464  53.824  1.00  0.00     0.196 HD
BRANCH  25  27
HETATM   27  O1  UNL     1      23.017  -1.806  55.874  1.00  0.00    -0.288 OA
HETATM   28  H9  UNL     1      22.289  -2.417  56.151  1.00  0.00     0.244 HD
ENDBRANCH  25  27
ENDBRANCH   2  25
TORSDOF 6
ENDMDL
