MODEL 1
REMARK VINA RESULT:      -7.4      0.000      0.000
REMARK  4 active torsions:
REMARK  status: ('A' for Active; 'I' for Inactive)
REMARK    1  A    between atoms: C2_2  and  O1_3 
REMARK    2  A    between atoms: O1_3  and  C3_4 
REMARK    3  A    between atoms: N3_11  and  C8_12 
REMARK    4  A    between atoms: C15_19  and  O2_20 
ROOT
HETATM    1  C3  UNL     1      23.435   1.512  51.910  1.00  0.00     0.100 C 
HETATM    2  C4  UNL     1      24.524   0.937  52.398  1.00  0.00     0.046 C 
HETATM    3  C5  UNL     1      24.364  -0.236  53.263  1.00  0.00     0.188 A 
HETATM    4  C6  UNL     1      22.974  -0.380  53.687  1.00  0.00     0.067 A 
HETATM    5  N1  UNL     1      22.656  -0.949  54.808  1.00  0.00    -0.242 NA
HETATM    6  C7  UNL     1      23.696  -1.414  55.649  1.00  0.00     0.255 A 
HETATM    7  N2  UNL     1      24.911  -1.249  55.312  1.00  0.00    -0.164 NA
HETATM    8  N3  UNL     1      25.376  -0.621  54.152  1.00  0.00    -0.255 N 
HETATM    9  C14 UNL     1      21.784   0.204  53.066  1.00  0.00     0.069 C 
HETATM   10  C15 UNL     1      22.019   1.190  52.171  1.00  0.00     0.103 C 
ENDROOT
BRANCH   8  11
HETATM   11  C8  UNL     1      26.776  -0.473  54.059  1.00  0.00     0.054 A 
HETATM   12  C9  UNL     1      27.528   0.458  54.746  1.00  0.00     0.031 A 
HETATM   13  C10 UNL     1      28.898   0.595  54.670  1.00  0.00     0.002 A 
HETATM   14  C11 UNL     1      29.547  -0.286  53.830  1.00  0.00     0.000 A 
HETATM   15  C12 UNL     1      28.897  -1.241  53.107  1.00  0.00     0.002 A 
HETATM   16  C13 UNL     1      27.533  -1.298  53.250  1.00  0.00     0.031 A 
ENDBRANCH   8  11
BRANCH   1  17
HETATM   17  O1  UNL     1      23.531   2.616  51.047  1.00  0.00    -0.349 OA
BRANCH  17  18
HETATM   18  C2  UNL     1      24.224   3.788  51.365  1.00  0.00     0.171 C 
HETATM   19  C1  UNL     1      23.471   4.582  52.396  1.00  0.00     0.034 C 
ENDBRANCH  17  18
ENDBRANCH   1  17
BRANCH  10  20
HETATM   20  O2  UNL     1      20.956   1.833  51.558  1.00  0.00    -0.353 OA
HETATM   21  C16 UNL     1      20.148   2.718  52.296  1.00  0.00     0.210 C 
ENDBRANCH  10  20
TORSDOF 4
ENDMDL
MODEL 2
REMARK VINA RESULT:      -7.3      1.914      2.660
REMARK  4 active torsions:
REMARK  status: ('A' for Active; 'I' for Inactive)
REMARK    1  A    between atoms: C2_2  and  O1_3 
REMARK    2  A    between atoms: O1_3  and  C3_4 
REMARK    3  A    between atoms: N3_11  and  C8_12 
REMARK    4  A    between atoms: C15_19  and  O2_20 
ROOT
HETATM    1  C3  UNL     1      25.407   3.038  50.841  1.00  0.00     0.100 C 
HETATM    2  C4  UNL     1      26.111   2.076  51.419  1.00  0.00     0.046 C 
HETATM    3  C5  UNL     1      25.396   0.909  51.942  1.00  0.00     0.188 A 
HETATM    4  C6  UNL     1      23.960   1.166  52.002  1.00  0.00     0.067 A 
HETATM    5  N1  UNL     1      23.194   0.578  52.868  1.00  0.00    -0.242 NA
HETATM    6  C7  UNL     1      23.785  -0.317  53.795  1.00  0.00     0.255 A 
HETATM    7  N2  UNL     1      25.041  -0.510  53.783  1.00  0.00    -0.164 NA
HETATM    8  N3  UNL     1      25.969   0.091  52.926  1.00  0.00    -0.255 N 
HETATM    9  C14 UNL     1      23.203   2.188  51.278  1.00  0.00     0.069 C 
HETATM   10  C15 UNL     1      23.944   3.162  50.700  1.00  0.00     0.103 C 
ENDROOT
BRANCH   8  11
HETATM   11  C8  UNL     1      27.322  -0.212  53.183  1.00  0.00     0.054 A 
HETATM   12  C9  UNL     1      28.258   0.669  53.683  1.00  0.00     0.031 A 
HETATM   13  C10 UNL     1      29.577   0.371  53.952  1.00  0.00     0.002 A 
HETATM   14  C11 UNL     1      29.969  -0.925  53.689  1.00  0.00     0.000 A 
HETATM   15  C12 UNL     1      29.123  -1.872  53.193  1.00  0.00     0.002 A 
HETATM   16  C13 UNL     1      27.829  -1.478  52.959  1.00  0.00     0.031 A 
ENDBRANCH   8  11
BRANCH   1  17
HETATM   17  O1  UNL     1      26.044   4.162  50.289  1.00  0.00    -0.349 OA
BRANCH  17  18
HETATM   18  C2  UNL     1      26.946   4.095  49.224  1.00  0.00     0.171 C 
HETATM   19  C1  UNL     1      27.176   5.461  48.640  1.00  0.00     0.034 C 
ENDBRANCH  17  18
ENDBRANCH   1  17
BRANCH  10  20
HETATM   20  O2  UNL     1      23.317   4.196  50.025  1.00  0.00    -0.353 OA
HETATM   21  C16 UNL     1      22.915   4.021  48.688  1.00  0.00     0.210 C 
ENDBRANCH  10  20
TORSDOF 4
ENDMDL
MODEL 3
REMARK VINA RESULT:      -7.2      2.254      3.908
REMARK  4 active torsions:
REMARK  status: ('A' for Active; 'I' for Inactive)
REMARK    1  A    between atoms: C2_2  and  O1_3 
REMARK    2  A    between atoms: O1_3  and  C3_4 
REMARK    3  A    between atoms: N3_11  and  C8_12 
REMARK    4  A    between atoms: C15_19  and  O2_20 
ROOT
HETATM    1  C3  UNL     1      22.954   1.447  52.990  1.00  0.00     0.100 C 
HETATM    2  C4  UNL     1      24.262   1.254  53.057  1.00  0.00     0.046 C 
HETATM    3  C5  UNL     1      25.146   2.261  52.463  1.00  0.00     0.188 A 
HETATM    4  C6  UNL     1      24.389   3.175  51.611  1.00  0.00     0.067 A 
HETATM    5  N1  UNL     1      24.932   3.776  50.599  1.00  0.00    -0.242 NA
HETATM    6  C7  UNL     1      26.292   3.509  50.304  1.00  0.00     0.255 A 
HETATM    7  N2  UNL     1      26.946   2.678  51.009  1.00  0.00    -0.164 NA
HETATM    8  N3  UNL     1      26.461   1.945  52.097  1.00  0.00    -0.255 N 
HETATM    9  C14 UNL     1      22.947   3.425  51.626  1.00  0.00     0.069 C 
HETATM   10  C15 UNL     1      22.207   2.526  52.315  1.00  0.00     0.103 C 
ENDROOT
BRANCH   8  11
HETATM   11  C8  UNL     1      27.359   1.008  52.651  1.00  0.00     0.054 A 
HETATM   12  C9  UNL     1      27.243  -0.363  52.555  1.00  0.00     0.031 A 
HETATM   13  C10 UNL     1      28.128  -1.281  53.080  1.00  0.00     0.002 A 
HETATM   14  C11 UNL     1      29.213  -0.757  53.752  1.00  0.00     0.000 A 
HETATM   15  C12 UNL     1      29.419   0.581  53.903  1.00  0.00     0.002 A 
HETATM   16  C13 UNL     1      28.483   1.415  53.345  1.00  0.00     0.031 A 
ENDBRANCH   8  11
BRANCH   1  17
HETATM   17  O1  UNL     1      22.062   0.532  53.574  1.00  0.00    -0.349 OA
BRANCH  17  18
HETATM   18  C2  UNL     1      22.219  -0.855  53.503  1.00  0.00     0.171 C 
HETATM   19  C1  UNL     1      21.152  -1.549  54.302  1.00  0.00     0.034 C 
ENDBRANCH  17  18
ENDBRANCH   1  17
BRANCH  10  20
HETATM   20  O2  UNL     1      20.829   2.654  52.356  1.00  0.00    -0.353 OA
HETATM   21  C16 UNL     1      20.197   3.694  51.648  1.00  0.00     0.210 C 
ENDBRANCH  10  20
TORSDOF 4
ENDMDL
MODEL 4
REMARK VINA RESULT:      -7.1      3.251      5.941
REMARK  4 active torsions:
REMARK  status: ('A' for Active; 'I' for Inactive)
REMARK    1  A    between atoms: C2_2  and  O1_3 
REMARK    2  A    between atoms: O1_3  and  C3_4 
REMARK    3  A    between atoms: N3_11  and  C8_12 
REMARK    4  A    between atoms: C15_19  and  O2_20 
ROOT
HETATM    1  C3  UNL     1      26.363   0.978  53.095  1.00  0.00     0.100 C 
HETATM    2  C4  UNL     1      26.253   1.987  52.243  1.00  0.00     0.046 C 
HETATM    3  C5  UNL     1      24.913   2.375  51.795  1.00  0.00     0.188 A 
HETATM    4  C6  UNL     1      23.933   1.351  52.146  1.00  0.00     0.067 A 
HETATM    5  N1  UNL     1      22.854   1.167  51.450  1.00  0.00    -0.242 NA
HETATM    6  C7  UNL     1      22.645   1.972  50.303  1.00  0.00     0.255 A 
HETATM    7  N2  UNL     1      23.516   2.832  49.960  1.00  0.00    -0.164 NA
HETATM    8  N3  UNL     1      24.728   3.094  50.606  1.00  0.00    -0.255 N 
HETATM    9  C14 UNL     1      24.059   0.301  53.158  1.00  0.00     0.069 C 
HETATM   10  C15 UNL     1      25.311   0.094  53.629  1.00  0.00     0.103 C 
ENDROOT
BRANCH   8  11
HETATM   11  C8  UNL     1      25.570   4.029  49.968  1.00  0.00     0.054 A 
HETATM   12  C9  UNL     1      26.764   3.734  49.343  1.00  0.00     0.031 A 
HETATM   13  C10 UNL     1      27.580   4.642  48.703  1.00  0.00     0.002 A 
HETATM   14  C11 UNL     1      27.143   5.951  48.702  1.00  0.00     0.000 A 
HETATM   15  C12 UNL     1      25.980   6.347  49.291  1.00  0.00     0.002 A 
HETATM   16  C13 UNL     1      25.236   5.369  49.903  1.00  0.00     0.031 A 
ENDBRANCH   8  11
BRANCH   1  17
HETATM   17  O1  UNL     1      27.620   0.588  53.586  1.00  0.00    -0.349 OA
BRANCH  17  18
HETATM   18  C2  UNL     1      28.345  -0.497  53.083  1.00  0.00     0.171 C 
HETATM   19  C1  UNL     1      29.678  -0.604  53.769  1.00  0.00     0.034 C 
ENDBRANCH  17  18
ENDBRANCH   1  17
BRANCH  10  20
HETATM   20  O2  UNL     1      25.540  -0.904  54.562  1.00  0.00    -0.353 OA
HETATM   21  C16 UNL     1      24.564  -1.198  55.533  1.00  0.00     0.210 C 
ENDBRANCH  10  20
TORSDOF 4
ENDMDL
MODEL 5
REMARK VINA RESULT:      -7.0      3.025      5.915
REMARK  4 active torsions:
REMARK  status: ('A' for Active; 'I' for Inactive)
REMARK    1  A    between atoms: C2_2  and  O1_3 
REMARK    2  A    between atoms: O1_3  and  C3_4 
REMARK    3  A    between atoms: N3_11  and  C8_12 
REMARK    4  A    between atoms: C15_19  and  O2_20 
ROOT
HETATM    1  C3  UNL     1      26.156   2.573  51.157  1.00  0.00     0.100 C 
HETATM    2  C4  UNL     1      25.107   1.940  51.660  1.00  0.00     0.046 C 
HETATM    3  C5  UNL     1      23.812   2.098  50.990  1.00  0.00     0.188 A 
HETATM    4  C6  UNL     1      23.856   3.202  50.034  1.00  0.00     0.067 A 
HETATM    5  N1  UNL     1      22.796   3.882  49.724  1.00  0.00    -0.242 NA
HETATM    6  C7  UNL     1      21.573   3.552  50.358  1.00  0.00     0.255 A 
HETATM    7  N2  UNL     1      21.534   2.626  51.227  1.00  0.00    -0.164 NA
HETATM    8  N3  UNL     1      22.612   1.852  51.669  1.00  0.00    -0.255 N 
HETATM    9  C14 UNL     1      25.039   3.819  49.434  1.00  0.00     0.069 C 
HETATM   10  C15 UNL     1      26.218   3.514  50.023  1.00  0.00     0.103 C 
ENDROOT
BRANCH   8  11
HETATM   11  C8  UNL     1      22.328   0.954  52.720  1.00  0.00     0.054 A 
HETATM   12  C9  UNL     1      23.189  -0.009  53.203  1.00  0.00     0.031 A 
HETATM   13  C10 UNL     1      22.922  -0.876  54.241  1.00  0.00     0.002 A 
HETATM   14  C11 UNL     1      21.681  -0.748  54.829  1.00  0.00     0.000 A 
HETATM   15  C12 UNL     1      20.758   0.170  54.427  1.00  0.00     0.002 A 
HETATM   16  C13 UNL     1      21.118   0.989  53.385  1.00  0.00     0.031 A 
ENDBRANCH   8  11
BRANCH   1  17
HETATM   17  O1  UNL     1      27.427   2.427  51.737  1.00  0.00    -0.349 OA
BRANCH  17  18
HETATM   18  C2  UNL     1      27.659   1.735  52.930  1.00  0.00     0.171 C 
HETATM   19  C1  UNL     1      28.697   2.442  53.756  1.00  0.00     0.034 C 
ENDBRANCH  17  18
ENDBRANCH   1  17
BRANCH  10  20
HETATM   20  O2  UNL     1      27.392   4.079  49.551  1.00  0.00    -0.353 OA
HETATM   21  C16 UNL     1      27.340   5.131  48.618  1.00  0.00     0.210 C 
ENDBRANCH  10  20
TORSDOF 4
ENDMDL
MODEL 6
REMARK VINA RESULT:      -6.9      3.223      5.630
REMARK  4 active torsions:
REMARK  status: ('A' for Active; 'I' for Inactive)
REMARK    1  A    between atoms: C2_2  and  O1_3 
REMARK    2  A    between atoms: O1_3  and  C3_4 
REMARK    3  A    between atoms: N3_11  and  C8_12 
REMARK    4  A    between atoms: C15_19  and  O2_20 
ROOT
HETATM    1  C3  UNL     1      23.930   0.757  52.845  1.00  0.00     0.100 C 
HETATM    2  C4  UNL     1      24.214   1.706  51.967  1.00  0.00     0.046 C 
HETATM    3  C5  UNL     1      23.198   2.059  50.971  1.00  0.00     0.188 A 
HETATM    4  C6  UNL     1      22.136   1.057  50.937  1.00  0.00     0.067 A 
HETATM    5  N1  UNL     1      21.447   0.824  49.864  1.00  0.00    -0.242 NA
HETATM    6  C7  UNL     1      21.762   1.550  48.688  1.00  0.00     0.255 A 
HETATM    7  N2  UNL     1      22.717   2.388  48.693  1.00  0.00    -0.164 NA
HETATM    8  N3  UNL     1      23.550   2.697  49.774  1.00  0.00    -0.255 N 
HETATM    9  C14 UNL     1      21.798   0.077  51.971  1.00  0.00     0.069 C 
HETATM   10  C15 UNL     1      22.728  -0.094  52.939  1.00  0.00     0.103 C 
ENDROOT
BRANCH   8  11
HETATM   11  C8  UNL     1      24.605   3.591  49.494  1.00  0.00     0.054 A 
HETATM   12  C9  UNL     1      25.947   3.272  49.508  1.00  0.00     0.031 A 
HETATM   13  C10 UNL     1      26.980   4.138  49.218  1.00  0.00     0.002 A 
HETATM   14  C11 UNL     1      26.613   5.427  48.891  1.00  0.00     0.000 A 
HETATM   15  C12 UNL     1      25.316   5.843  48.849  1.00  0.00     0.002 A 
HETATM   16  C13 UNL     1      24.359   4.907  49.153  1.00  0.00     0.031 A 
ENDBRANCH   8  11
BRANCH   1  17
HETATM   17  O1  UNL     1      24.852   0.405  53.845  1.00  0.00    -0.349 OA
BRANCH  17  18
HETATM   18  C2  UNL     1      26.140  -0.069  53.577  1.00  0.00     0.171 C 
HETATM   19  C1  UNL     1      27.076   0.285  54.698  1.00  0.00     0.034 C 
ENDBRANCH  17  18
ENDBRANCH   1  17
BRANCH  10  20
HETATM   20  O2  UNL     1      22.518  -1.027  53.940  1.00  0.00    -0.353 OA
HETATM   21  C16 UNL     1      21.216  -1.488  54.210  1.00  0.00     0.210 C 
ENDBRANCH  10  20
TORSDOF 4
ENDMDL
MODEL 7
REMARK VINA RESULT:      -6.7      2.198      5.860
REMARK  4 active torsions:
REMARK  status: ('A' for Active; 'I' for Inactive)
REMARK    1  A    between atoms: C2_2  and  O1_3 
REMARK    2  A    between atoms: O1_3  and  C3_4 
REMARK    3  A    between atoms: N3_11  and  C8_12 
REMARK    4  A    between atoms: C15_19  and  O2_20 
ROOT
HETATM    1  C3  UNL     1      25.270   0.453  52.674  1.00  0.00     0.100 C 
HETATM    2  C4  UNL     1      24.015   0.801  52.432  1.00  0.00     0.046 C 
HETATM    3  C5  UNL     1      22.985   0.403  53.396  1.00  0.00     0.188 A 
HETATM    4  C6  UNL     1      23.504  -0.597  54.326  1.00  0.00     0.067 A 
HETATM    5  N1  UNL     1      22.733  -1.473  54.890  1.00  0.00    -0.242 NA
HETATM    6  C7  UNL     1      21.354  -1.467  54.567  1.00  0.00     0.255 A 
HETATM    7  N2  UNL     1      20.900  -0.633  53.722  1.00  0.00    -0.164 NA
HETATM    8  N3  UNL     1      21.636   0.331  53.024  1.00  0.00    -0.255 N 
HETATM    9  C14 UNL     1      24.905  -0.893  54.630  1.00  0.00     0.069 C 
HETATM   10  C15 UNL     1      25.811  -0.373  53.770  1.00  0.00     0.103 C 
ENDROOT
BRANCH   8  11
HETATM   11  C8  UNL     1      20.916   1.070  52.063  1.00  0.00     0.054 A 
HETATM   12  C9  UNL     1      20.282   2.274  52.290  1.00  0.00     0.031 A 
HETATM   13  C10 UNL     1      19.592   3.008  51.349  1.00  0.00     0.002 A 
HETATM   14  C11 UNL     1      19.547   2.470  50.079  1.00  0.00     0.000 A 
HETATM   15  C12 UNL     1      20.139   1.288  49.751  1.00  0.00     0.002 A 
HETATM   16  C13 UNL     1      20.803   0.631  50.757  1.00  0.00     0.031 A 
ENDBRANCH   8  11
BRANCH   1  17
HETATM   17  O1  UNL     1      26.302   0.839  51.803  1.00  0.00    -0.349 OA
BRANCH  17  18
HETATM   18  C2  UNL     1      26.841   2.128  51.764  1.00  0.00     0.171 C 
HETATM   19  C1  UNL     1      26.480   2.813  50.476  1.00  0.00     0.034 C 
ENDBRANCH  17  18
ENDBRANCH   1  17
BRANCH  10  20
HETATM   20  O2  UNL     1      27.160  -0.630  53.951  1.00  0.00    -0.353 OA
HETATM   21  C16 UNL     1      27.921   0.182  54.812  1.00  0.00     0.210 C 
ENDBRANCH  10  20
TORSDOF 4
ENDMDL
MODEL 8
REMARK VINA RESULT:      -6.7      2.592      5.993
REMARK  4 active torsions:
REMARK  status: ('A' for Active; 'I' for Inactive)
REMARK    1  A    between atoms: C2_2  and  O1_3 
REMARK    2  A    between atoms: O1_3  and  C3_4 
REMARK    3  A    between atoms: N3_11  and  C8_12 
REMARK    4  A    between atoms: C15_19  and  O2_20 
ROOT
HETATM    1  C3  UNL     1      26.188   2.549  51.483  1.00  0.00     0.100 C 
HETATM    2  C4  UNL     1      24.884   2.405  51.306  1.00  0.00     0.046 C 
HETATM    3  C5  UNL     1      24.120   1.677  52.324  1.00  0.00     0.188 A 
HETATM    4  C6  UNL     1      25.014   0.959  53.228  1.00  0.00     0.067 A 
HETATM    5  N1  UNL     1      24.648  -0.127  53.835  1.00  0.00    -0.242 NA
HETATM    6  C7  UNL     1      23.350  -0.636  53.583  1.00  0.00     0.255 A 
HETATM    7  N2  UNL     1      22.582  -0.046  52.761  1.00  0.00    -0.164 NA
HETATM    8  N3  UNL     1      22.877   1.104  52.023  1.00  0.00    -0.255 N 
HETATM    9  C14 UNL     1      26.438   1.206  53.460  1.00  0.00     0.069 C 
HETATM   10  C15 UNL     1      27.047   2.005  52.553  1.00  0.00     0.103 C 
ENDROOT
BRANCH   8  11
HETATM   11  C8  UNL     1      21.890   1.505  51.098  1.00  0.00     0.054 A 
HETATM   12  C9  UNL     1      20.936   2.478  51.317  1.00  0.00     0.031 A 
HETATM   13  C10 UNL     1      19.982   2.884  50.409  1.00  0.00     0.002 A 
HETATM   14  C11 UNL     1      20.004   2.248  49.185  1.00  0.00     0.000 A 
HETATM   15  C12 UNL     1      20.903   1.275  48.869  1.00  0.00     0.002 A 
HETATM   16  C13 UNL     1      21.814   0.940  49.839  1.00  0.00     0.031 A 
ENDBRANCH   8  11
BRANCH   1  17
HETATM   17  O1  UNL     1      26.963   3.269  50.558  1.00  0.00    -0.349 OA
BRANCH  17  18
HETATM   18  C2  UNL     1      26.418   4.070  49.550  1.00  0.00     0.171 C 
HETATM   19  C1  UNL     1      27.509   4.690  48.723  1.00  0.00     0.034 C 
ENDBRANCH  17  18
ENDBRANCH   1  17
BRANCH  10  20
HETATM   20  O2  UNL     1      28.402   2.267  52.664  1.00  0.00    -0.353 OA
HETATM   21  C16 UNL     1      29.035   2.178  53.918  1.00  0.00     0.210 C 
ENDBRANCH  10  20
TORSDOF 4
ENDMDL
MODEL 9
REMARK VINA RESULT:      -6.7      2.265      5.205
REMARK  4 active torsions:
REMARK  status: ('A' for Active; 'I' for Inactive)
REMARK    1  A    between atoms: C2_2  and  O1_3 
REMARK    2  A    between atoms: O1_3  and  C3_4 
REMARK    3  A    between atoms: N3_11  and  C8_12 
REMARK    4  A    between atoms: C15_19  and  O2_20 
ROOT
HETATM    1  C3  UNL     1      24.223   3.147  50.358  1.00  0.00     0.100 C 
HETATM    2  C4  UNL     1      23.775   2.275  51.249  1.00  0.00     0.046 C 
HETATM    3  C5  UNL     1      24.746   1.610  52.122  1.00  0.00     0.188 A 
HETATM    4  C6  UNL     1      26.107   1.812  51.630  1.00  0.00     0.067 A 
HETATM    5  N1  UNL     1      27.051   0.953  51.856  1.00  0.00    -0.242 NA
HETATM    6  C7  UNL     1      26.735  -0.224  52.579  1.00  0.00     0.255 A 
HETATM    7  N2  UNL     1      25.544  -0.432  52.969  1.00  0.00    -0.164 NA
HETATM    8  N3  UNL     1      24.439   0.398  52.754  1.00  0.00    -0.255 N 
HETATM    9  C14 UNL     1      26.581   2.845  50.708  1.00  0.00     0.069 C 
HETATM   10  C15 UNL     1      25.615   3.516  50.038  1.00  0.00     0.103 C 
ENDROOT
BRANCH   8  11
HETATM   11  C8  UNL     1      23.200  -0.108  53.200  1.00  0.00     0.054 A 
HETATM   12  C9  UNL     1      21.995   0.037  52.544  1.00  0.00     0.031 A 
HETATM   13  C10 UNL     1      20.785  -0.471  52.967  1.00  0.00     0.002 A 
HETATM   14  C11 UNL     1      20.810  -1.181  54.150  1.00  0.00     0.000 A 
HETATM   15  C12 UNL     1      21.946  -1.381  54.874  1.00  0.00     0.002 A 
HETATM   16  C13 UNL     1      23.101  -0.836  54.370  1.00  0.00     0.031 A 
ENDBRANCH   8  11
BRANCH   1  17
HETATM   17  O1  UNL     1      23.333   3.840  49.522  1.00  0.00    -0.349 OA
BRANCH  17  18
HETATM   18  C2  UNL     1      22.182   3.268  48.972  1.00  0.00     0.171 C 
HETATM   19  C1  UNL     1      22.539   2.357  47.831  1.00  0.00     0.034 C 
ENDBRANCH  17  18
ENDBRANCH   1  17
BRANCH  10  20
HETATM   20  O2  UNL     1      25.964   4.487  49.114  1.00  0.00    -0.353 OA
HETATM   21  C16 UNL     1      27.319   4.712  48.808  1.00  0.00     0.210 C 
ENDBRANCH  10  20
TORSDOF 4
ENDMDL
