MODEL 1
REMARK VINA RESULT:      -8.7      0.000      0.000
REMARK  4 active torsions:
REMARK  status: ('A' for Active; 'I' for Inactive)
REMARK       I    between atoms: C1_2  and  N1_3 
REMARK    1  A    between atoms: C1_2  and  C16_22 
REMARK    2  A    between atoms: N1_3  and  C2_4 
REMARK    3  A    between atoms: C6_8  and  N2_9 
REMARK    4  A    between atoms: N3_11  and  C8_12 
ROOT
HETATM    1  C2  UNL     1      24.081   3.620  49.373  1.00  0.00     0.037 A 
HETATM    2  C3  UNL     1      23.185   3.364  48.342  1.00  0.00     0.029 A 
HETATM    3  C4  UNL     1      22.235   2.381  48.557  1.00  0.00     0.005 A 
HETATM    4  C5  UNL     1      22.221   1.712  49.762  1.00  0.00     0.031 A 
HETATM    5  C6  UNL     1      23.099   1.955  50.789  1.00  0.00     0.054 A 
HETATM    6  C15 UNL     1      24.033   2.935  50.550  1.00  0.00     0.060 A 
ENDROOT
BRANCH   5   7
HETATM    7  N2  UNL     1      23.079   1.266  52.028  1.00  0.00    -0.274 N 
HETATM    8  C7  UNL     1      23.913   1.555  53.176  1.00  0.00     0.278 C 
HETATM    9  N3  UNL     1      24.594   0.302  53.511  1.00  0.00    -0.336 N 
HETATM   10  C13 UNL     1      23.688  -0.792  53.706  1.00  0.00     0.111 C 
HETATM   11  C14 UNL     1      22.514  -0.884  53.100  1.00  0.00     0.124 C 
HETATM   12  N5  UNL     1      22.189   0.205  52.211  1.00  0.00    -0.306 N 
HETATM   13  H13 UNL     1      21.253   0.162  51.708  1.00  0.00     0.186 HD
BRANCH   9  14
HETATM   14  C8  UNL     1      25.980   0.029  53.664  1.00  0.00     0.053 A 
HETATM   15  C9  UNL     1      26.740  -0.778  52.844  1.00  0.00     0.032 A 
HETATM   16  C10 UNL     1      28.074  -0.923  53.155  1.00  0.00     0.021 A 
HETATM   17  C11 UNL     1      28.729  -0.335  54.214  1.00  0.00     0.116 A 
HETATM   18  N4  UNL     1      27.967   0.450  55.003  1.00  0.00    -0.271 NA
HETATM   19  C12 UNL     1      26.657   0.621  54.737  1.00  0.00     0.145 A 
ENDBRANCH   9  14
ENDBRANCH   5   7
BRANCH   1  20
HETATM   20  N1  UNL     1      25.031   4.639  49.091  1.00  0.00    -0.322 N 
HETATM   21  C1  UNL     1      26.448   4.519  49.084  1.00  0.00     0.263 C 
HETATM   22  O1  UNL     1      27.082   3.461  49.333  1.00  0.00    -0.267 OA
HETATM   23  H1  UNL     1      24.573   5.570  48.869  1.00  0.00     0.169 HD
BRANCH  21  24
HETATM   24  C16 UNL     1      27.234   5.677  48.772  1.00  0.00     0.072 A 
HETATM   25  C17 UNL     1      28.501   5.775  48.229  1.00  0.00     0.025 A 
HETATM   26  C18 UNL     1      29.063   7.003  48.014  1.00  0.00     0.009 A 
HETATM   27  C19 UNL     1      28.221   8.126  48.401  1.00  0.00     0.050 A 
HETATM   28  S1  UNL     1      26.683   7.324  49.044  1.00  0.00    -0.097 SA
ENDBRANCH  21  24
ENDBRANCH   1  20
TORSDOF 4
ENDMDL
MODEL 2
REMARK VINA RESULT:      -8.6      2.741      7.020
REMARK  4 active torsions:
REMARK  status: ('A' for Active; 'I' for Inactive)
REMARK       I    between atoms: C1_2  and  N1_3 
REMARK    1  A    between atoms: C1_2  and  C16_22 
REMARK    2  A    between atoms: N1_3  and  C2_4 
REMARK    3  A    between atoms: C6_8  and  N2_9 
REMARK    4  A    between atoms: N3_11  and  C8_12 
ROOT
HETATM    1  C2  UNL     1      24.503   1.734  52.197  1.00  0.00     0.037 A 
HETATM    2  C3  UNL     1      23.332   1.200  52.724  1.00  0.00     0.029 A 
HETATM    3  C4  UNL     1      22.173   1.940  52.570  1.00  0.00     0.005 A 
HETATM    4  C5  UNL     1      22.229   3.149  51.912  1.00  0.00     0.031 A 
HETATM    5  C6  UNL     1      23.377   3.688  51.386  1.00  0.00     0.054 A 
HETATM    6  C15 UNL     1      24.515   2.935  51.553  1.00  0.00     0.060 A 
ENDROOT
BRANCH   5   7
HETATM    7  N2  UNL     1      23.430   4.932  50.708  1.00  0.00    -0.274 N 
HETATM    8  C7  UNL     1      23.892   5.143  49.352  1.00  0.00     0.278 C 
HETATM    9  N3  UNL     1      24.944   6.160  49.433  1.00  0.00    -0.336 N 
HETATM   10  C13 UNL     1      24.517   7.356  50.099  1.00  0.00     0.111 C 
HETATM   11  C14 UNL     1      23.584   7.373  51.039  1.00  0.00     0.124 C 
HETATM   12  N5  UNL     1      23.006   6.092  51.363  1.00  0.00    -0.306 N 
HETATM   13  H13 UNL     1      22.254   6.070  52.113  1.00  0.00     0.186 HD
BRANCH   9  14
HETATM   14  C8  UNL     1      26.284   6.127  48.960  1.00  0.00     0.053 A 
HETATM   15  C9  UNL     1      27.005   7.209  48.502  1.00  0.00     0.032 A 
HETATM   16  C10 UNL     1      28.297   6.979  48.082  1.00  0.00     0.021 A 
HETATM   17  C11 UNL     1      28.943   5.763  48.073  1.00  0.00     0.116 A 
HETATM   18  N4  UNL     1      28.218   4.719  48.525  1.00  0.00    -0.271 NA
HETATM   19  C12 UNL     1      26.951   4.896  48.947  1.00  0.00     0.145 A 
ENDBRANCH   9  14
ENDBRANCH   5   7
BRANCH   1  20
HETATM   20  N1  UNL     1      25.658   0.929  52.387  1.00  0.00    -0.322 N 
HETATM   21  C1  UNL     1      26.560   0.960  53.486  1.00  0.00     0.263 C 
HETATM   22  O1  UNL     1      26.459   1.729  54.477  1.00  0.00    -0.267 OA
HETATM   23  H1  UNL     1      25.814   0.248  51.588  1.00  0.00     0.169 HD
BRANCH  21  24
HETATM   24  C16 UNL     1      27.673   0.058  53.487  1.00  0.00     0.072 A 
HETATM   25  C17 UNL     1      27.747  -1.269  53.105  1.00  0.00     0.025 A 
HETATM   26  C18 UNL     1      28.933  -1.943  53.193  1.00  0.00     0.009 A 
HETATM   27  C19 UNL     1      30.042  -1.149  53.704  1.00  0.00     0.050 A 
HETATM   28  S1  UNL     1      29.287   0.511  54.018  1.00  0.00    -0.097 SA
ENDBRANCH  21  24
ENDBRANCH   1  20
TORSDOF 4
ENDMDL
MODEL 3
REMARK VINA RESULT:      -8.5      2.929      6.788
REMARK  4 active torsions:
REMARK  status: ('A' for Active; 'I' for Inactive)
REMARK       I    between atoms: C1_2  and  N1_3 
REMARK    1  A    between atoms: C1_2  and  C16_22 
REMARK    2  A    between atoms: N1_3  and  C2_4 
REMARK    3  A    between atoms: C6_8  and  N2_9 
REMARK    4  A    between atoms: N3_11  and  C8_12 
ROOT
HETATM    1  C2  UNL     1      23.670  -0.241  53.520  1.00  0.00     0.037 A 
HETATM    2  C3  UNL     1      22.952  -0.866  54.533  1.00  0.00     0.029 A 
HETATM    3  C4  UNL     1      21.604  -0.566  54.632  1.00  0.00     0.005 A 
HETATM    4  C5  UNL     1      21.045   0.320  53.738  1.00  0.00     0.031 A 
HETATM    5  C6  UNL     1      21.742   0.943  52.732  1.00  0.00     0.054 A 
HETATM    6  C15 UNL     1      23.078   0.630  52.655  1.00  0.00     0.060 A 
ENDROOT
BRANCH   5   7
HETATM    7  N2  UNL     1      21.161   1.853  51.813  1.00  0.00    -0.274 N 
HETATM    8  C7  UNL     1      21.706   2.223  50.523  1.00  0.00     0.278 C 
HETATM    9  N3  UNL     1      21.810   3.685  50.528  1.00  0.00    -0.336 N 
HETATM   10  C13 UNL     1      20.572   4.333  50.849  1.00  0.00     0.111 C 
HETATM   11  C14 UNL     1      19.642   3.789  51.620  1.00  0.00     0.124 C 
HETATM   12  N5  UNL     1      19.952   2.476  52.131  1.00  0.00    -0.306 N 
HETATM   13  H13 UNL     1      19.226   2.011  52.753  1.00  0.00     0.186 HD
BRANCH   9  14
HETATM   14  C8  UNL     1      22.929   4.521  50.269  1.00  0.00     0.053 A 
HETATM   15  C9  UNL     1      23.717   4.488  49.137  1.00  0.00     0.032 A 
HETATM   16  C10 UNL     1      24.764   5.381  49.066  1.00  0.00     0.021 A 
HETATM   17  C11 UNL     1      25.104   6.311  50.023  1.00  0.00     0.116 A 
HETATM   18  N4  UNL     1      24.321   6.324  51.121  1.00  0.00    -0.271 NA
HETATM   19  C12 UNL     1      23.285   5.470  51.234  1.00  0.00     0.145 A 
ENDBRANCH   9  14
ENDBRANCH   5   7
BRANCH   1  20
HETATM   20  N1  UNL     1      25.047  -0.589  53.469  1.00  0.00    -0.322 N 
HETATM   21  C1  UNL     1      26.155   0.218  53.845  1.00  0.00     0.263 C 
HETATM   22  O1  UNL     1      26.071   1.393  54.290  1.00  0.00    -0.267 OA
HETATM   23  H1  UNL     1      25.204  -1.573  53.102  1.00  0.00     0.169 HD
BRANCH  21  24
HETATM   24  C16 UNL     1      27.475  -0.324  53.718  1.00  0.00     0.072 A 
HETATM   25  C17 UNL     1      27.910  -1.477  53.091  1.00  0.00     0.025 A 
HETATM   26  C18 UNL     1      29.238  -1.801  53.095  1.00  0.00     0.009 A 
HETATM   27  C19 UNL     1      30.089  -0.848  53.794  1.00  0.00     0.050 A 
HETATM   28  S1  UNL     1      28.907   0.444  54.391  1.00  0.00    -0.097 SA
ENDBRANCH  21  24
ENDBRANCH   1  20
TORSDOF 4
ENDMDL
MODEL 4
REMARK VINA RESULT:      -8.1      3.685      7.134
REMARK  4 active torsions:
REMARK  status: ('A' for Active; 'I' for Inactive)
REMARK       I    between atoms: C1_2  and  N1_3 
REMARK    1  A    between atoms: C1_2  and  C16_22 
REMARK    2  A    between atoms: N1_3  and  C2_4 
REMARK    3  A    between atoms: C6_8  and  N2_9 
REMARK    4  A    between atoms: N3_11  and  C8_12 
ROOT
HETATM    1  C2  UNL     1      20.893   0.274  52.903  1.00  0.00     0.037 A 
HETATM    2  C3  UNL     1      20.458  -0.673  53.823  1.00  0.00     0.029 A 
HETATM    3  C4  UNL     1      21.423  -1.306  54.586  1.00  0.00     0.005 A 
HETATM    4  C5  UNL     1      22.748  -0.974  54.405  1.00  0.00     0.031 A 
HETATM    5  C6  UNL     1      23.191  -0.040  53.501  1.00  0.00     0.054 A 
HETATM    6  C15 UNL     1      22.214   0.573  52.755  1.00  0.00     0.060 A 
ENDROOT
BRANCH   5   7
HETATM    7  N2  UNL     1      24.556   0.300  53.320  1.00  0.00    -0.274 N 
HETATM    8  C7  UNL     1      25.114   1.635  53.371  1.00  0.00     0.278 C 
HETATM    9  N3  UNL     1      25.824   1.829  52.104  1.00  0.00    -0.336 N 
HETATM   10  C13 UNL     1      26.788   0.801  51.839  1.00  0.00     0.111 C 
HETATM   11  C14 UNL     1      26.670  -0.441  52.283  1.00  0.00     0.124 C 
HETATM   12  N5  UNL     1      25.489  -0.709  53.068  1.00  0.00    -0.306 N 
HETATM   13  H13 UNL     1      25.364  -1.697  53.440  1.00  0.00     0.186 HD
BRANCH   9  14
HETATM   14  C8  UNL     1      25.695   2.860  51.134  1.00  0.00     0.053 A 
HETATM   15  C9  UNL     1      26.592   3.133  50.122  1.00  0.00     0.032 A 
HETATM   16  C10 UNL     1      26.293   4.178  49.276  1.00  0.00     0.021 A 
HETATM   17  C11 UNL     1      25.177   4.983  49.341  1.00  0.00     0.116 A 
HETATM   18  N4  UNL     1      24.315   4.697  50.338  1.00  0.00    -0.271 NA
HETATM   19  C12 UNL     1      24.565   3.684  51.190  1.00  0.00     0.145 A 
ENDBRANCH   9  14
ENDBRANCH   5   7
BRANCH   1  20
HETATM   20  N1  UNL     1      19.855   0.888  52.150  1.00  0.00    -0.322 N 
HETATM   21  C1  UNL     1      19.478   2.258  52.160  1.00  0.00     0.263 C 
HETATM   22  O1  UNL     1      20.027   3.151  52.858  1.00  0.00    -0.267 OA
HETATM   23  H1  UNL     1      19.340   0.197  51.531  1.00  0.00     0.169 HD
BRANCH  21  24
HETATM   24  C16 UNL     1      18.396   2.679  51.319  1.00  0.00     0.072 A 
HETATM   25  C17 UNL     1      17.663   3.852  51.328  1.00  0.00     0.025 A 
HETATM   26  C18 UNL     1      16.661   4.041  50.418  1.00  0.00     0.009 A 
HETATM   27  C19 UNL     1      16.467   2.932  49.496  1.00  0.00     0.050 A 
HETATM   28  S1  UNL     1      17.747   1.700  50.011  1.00  0.00    -0.097 SA
ENDBRANCH  21  24
ENDBRANCH   1  20
TORSDOF 4
ENDMDL
MODEL 5
REMARK VINA RESULT:      -8.1      2.322      5.090
REMARK  4 active torsions:
REMARK  status: ('A' for Active; 'I' for Inactive)
REMARK       I    between atoms: C1_2  and  N1_3 
REMARK    1  A    between atoms: C1_2  and  C16_22 
REMARK    2  A    between atoms: N1_3  and  C2_4 
REMARK    3  A    between atoms: C6_8  and  N2_9 
REMARK    4  A    between atoms: N3_11  and  C8_12 
ROOT
HETATM    1  C2  UNL     1      25.811   2.179  52.055  1.00  0.00     0.037 A 
HETATM    2  C3  UNL     1      27.016   1.675  52.531  1.00  0.00     0.029 A 
HETATM    3  C4  UNL     1      26.970   0.492  53.247  1.00  0.00     0.005 A 
HETATM    4  C5  UNL     1      25.754  -0.122  53.452  1.00  0.00     0.031 A 
HETATM    5  C6  UNL     1      24.557   0.363  52.988  1.00  0.00     0.054 A 
HETATM    6  C15 UNL     1      24.629   1.540  52.280  1.00  0.00     0.060 A 
ENDROOT
BRANCH   5   7
HETATM    7  N2  UNL     1      23.308  -0.274  53.200  1.00  0.00    -0.274 N 
HETATM    8  C7  UNL     1      22.255  -0.431  52.218  1.00  0.00     0.278 C 
HETATM    9  N3  UNL     1      21.049   0.147  52.816  1.00  0.00    -0.336 N 
HETATM   10  C13 UNL     1      20.739  -0.411  54.101  1.00  0.00     0.111 C 
HETATM   11  C14 UNL     1      21.656  -0.890  54.928  1.00  0.00     0.124 C 
HETATM   12  N5  UNL     1      23.017  -0.819  54.453  1.00  0.00    -0.306 N 
HETATM   13  H13 UNL     1      23.778  -1.196  55.093  1.00  0.00     0.186 HD
BRANCH   9  14
HETATM   14  C8  UNL     1      20.173   1.149  52.318  1.00  0.00     0.053 A 
HETATM   15  C9  UNL     1      19.051   0.930  51.546  1.00  0.00     0.032 A 
HETATM   16  C10 UNL     1      18.325   2.033  51.156  1.00  0.00     0.021 A 
HETATM   17  C11 UNL     1      18.611   3.345  51.464  1.00  0.00     0.116 A 
HETATM   18  N4  UNL     1      19.712   3.535  52.220  1.00  0.00    -0.271 NA
HETATM   19  C12 UNL     1      20.453   2.486  52.625  1.00  0.00     0.145 A 
ENDBRANCH   9  14
ENDBRANCH   5   7
BRANCH   1  20
HETATM   20  N1  UNL     1      25.924   3.395  51.328  1.00  0.00    -0.322 N 
HETATM   21  C1  UNL     1      26.454   3.572  50.021  1.00  0.00     0.263 C 
HETATM   22  O1  UNL     1      26.913   2.649  49.300  1.00  0.00    -0.267 OA
HETATM   23  H1  UNL     1      25.555   4.229  51.872  1.00  0.00     0.169 HD
BRANCH  21  24
HETATM   24  C16 UNL     1      26.478   4.892  49.462  1.00  0.00     0.072 A 
HETATM   25  C17 UNL     1      27.372   5.472  48.581  1.00  0.00     0.025 A 
HETATM   26  C18 UNL     1      27.196   6.766  48.176  1.00  0.00     0.009 A 
HETATM   27  C19 UNL     1      26.026   7.421  48.746  1.00  0.00     0.050 A 
HETATM   28  S1  UNL     1      25.272   6.119  49.822  1.00  0.00    -0.097 SA
ENDBRANCH  21  24
ENDBRANCH   1  20
TORSDOF 4
ENDMDL
MODEL 6
REMARK VINA RESULT:      -8.0      3.207      7.906
REMARK  4 active torsions:
REMARK  status: ('A' for Active; 'I' for Inactive)
REMARK       I    between atoms: C1_2  and  N1_3 
REMARK    1  A    between atoms: C1_2  and  C16_22 
REMARK    2  A    between atoms: N1_3  and  C2_4 
REMARK    3  A    between atoms: C6_8  and  N2_9 
REMARK    4  A    between atoms: N3_11  and  C8_12 
ROOT
HETATM    1  C2  UNL     1      25.929   3.513  49.997  1.00  0.00     0.037 A 
HETATM    2  C3  UNL     1      24.590   3.348  49.665  1.00  0.00     0.029 A 
HETATM    3  C4  UNL     1      23.960   4.403  49.027  1.00  0.00     0.005 A 
HETATM    4  C5  UNL     1      24.678   5.547  48.754  1.00  0.00     0.031 A 
HETATM    5  C6  UNL     1      26.001   5.723  49.075  1.00  0.00     0.054 A 
HETATM    6  C15 UNL     1      26.603   4.662  49.709  1.00  0.00     0.060 A 
ENDROOT
BRANCH   5   7
HETATM    7  N2  UNL     1      26.735   6.902  48.791  1.00  0.00    -0.274 N 
HETATM    8  C7  UNL     1      27.763   7.041  47.780  1.00  0.00     0.278 C 
HETATM    9  N3  UNL     1      28.952   7.541  48.474  1.00  0.00    -0.336 N 
HETATM   10  C13 UNL     1      28.702   8.737  49.223  1.00  0.00     0.111 C 
HETATM   11  C14 UNL     1      27.524   9.035  49.750  1.00  0.00     0.124 C 
HETATM   12  N5  UNL     1      26.481   8.065  49.522  1.00  0.00    -0.306 N 
HETATM   13  H13 UNL     1      25.522   8.273  49.932  1.00  0.00     0.186 HD
BRANCH   9  14
HETATM   14  C8  UNL     1      30.275   7.022  48.507  1.00  0.00     0.053 A 
HETATM   15  C9  UNL     1      30.653   5.750  48.131  1.00  0.00     0.032 A 
HETATM   16  C10 UNL     1      31.988   5.428  48.234  1.00  0.00     0.021 A 
HETATM   17  C11 UNL     1      32.992   6.259  48.680  1.00  0.00     0.116 A 
HETATM   18  N4  UNL     1      32.599   7.498  49.043  1.00  0.00    -0.271 NA
HETATM   19  C12 UNL     1      31.304   7.857  48.958  1.00  0.00     0.145 A 
ENDBRANCH   9  14
ENDBRANCH   5   7
BRANCH   1  20
HETATM   20  N1  UNL     1      26.519   2.395  50.649  1.00  0.00    -0.322 N 
HETATM   21  C1  UNL     1      26.290   1.956  51.981  1.00  0.00     0.263 C 
HETATM   22  O1  UNL     1      25.509   2.510  52.798  1.00  0.00    -0.267 OA
HETATM   23  H1  UNL     1      27.195   1.870  50.022  1.00  0.00     0.169 HD
BRANCH  21  24
HETATM   24  C16 UNL     1      26.990   0.796  52.452  1.00  0.00     0.072 A 
HETATM   25  C17 UNL     1      26.709  -0.547  52.280  1.00  0.00     0.025 A 
HETATM   26  C18 UNL     1      27.528  -1.495  52.827  1.00  0.00     0.009 A 
HETATM   27  C19 UNL     1      28.662  -0.957  53.566  1.00  0.00     0.050 A 
HETATM   28  S1  UNL     1      28.459   0.875  53.415  1.00  0.00    -0.097 SA
ENDBRANCH  21  24
ENDBRANCH   1  20
TORSDOF 4
ENDMDL
MODEL 7
REMARK VINA RESULT:      -7.9      3.163      4.019
REMARK  4 active torsions:
REMARK  status: ('A' for Active; 'I' for Inactive)
REMARK       I    between atoms: C1_2  and  N1_3 
REMARK    1  A    between atoms: C1_2  and  C16_22 
REMARK    2  A    between atoms: N1_3  and  C2_4 
REMARK    3  A    between atoms: C6_8  and  N2_9 
REMARK    4  A    between atoms: N3_11  and  C8_12 
ROOT
HETATM    1  C2  UNL     1      24.458   4.946  49.956  1.00  0.00     0.037 A 
HETATM    2  C3  UNL     1      25.614   4.881  49.187  1.00  0.00     0.029 A 
HETATM    3  C4  UNL     1      26.544   3.912  49.520  1.00  0.00     0.005 A 
HETATM    4  C5  UNL     1      26.287   3.070  50.580  1.00  0.00     0.031 A 
HETATM    5  C6  UNL     1      25.150   3.122  51.347  1.00  0.00     0.054 A 
HETATM    6  C15 UNL     1      24.243   4.094  50.997  1.00  0.00     0.060 A 
ENDROOT
BRANCH   5   7
HETATM    7  N2  UNL     1      24.889   2.252  52.436  1.00  0.00    -0.274 N 
HETATM    8  C7  UNL     1      25.817   1.911  53.493  1.00  0.00     0.278 C 
HETATM    9  N3  UNL     1      25.900   0.448  53.506  1.00  0.00    -0.336 N 
HETATM   10  C13 UNL     1      24.619  -0.185  53.625  1.00  0.00     0.111 C 
HETATM   11  C14 UNL     1      23.495   0.354  53.176  1.00  0.00     0.124 C 
HETATM   12  N5  UNL     1      23.635   1.644  52.546  1.00  0.00    -0.306 N 
HETATM   13  H13 UNL     1      22.752   2.105  52.175  1.00  0.00     0.186 HD
BRANCH   9  14
HETATM   14  C8  UNL     1      27.036  -0.402  53.421  1.00  0.00     0.053 A 
HETATM   15  C9  UNL     1      28.332  -0.053  53.739  1.00  0.00     0.032 A 
HETATM   16  C10 UNL     1      29.304  -1.018  53.589  1.00  0.00     0.021 A 
HETATM   17  C11 UNL     1      29.106  -2.308  53.150  1.00  0.00     0.116 A 
HETATM   18  N4  UNL     1      27.831  -2.627  52.844  1.00  0.00    -0.271 NA
HETATM   19  C12 UNL     1      26.848  -1.716  52.975  1.00  0.00     0.145 A 
ENDBRANCH   9  14
ENDBRANCH   5   7
BRANCH   1  20
HETATM   20  N1  UNL     1      23.543   5.961  49.565  1.00  0.00    -0.322 N 
HETATM   21  C1  UNL     1      23.345   7.227  50.180  1.00  0.00     0.263 C 
HETATM   22  O1  UNL     1      23.971   7.643  51.189  1.00  0.00    -0.267 OA
HETATM   23  H1  UNL     1      22.972   5.686  48.713  1.00  0.00     0.169 HD
BRANCH  21  24
HETATM   24  C16 UNL     1      22.365   8.114  49.626  1.00  0.00     0.072 A 
HETATM   25  C17 UNL     1      21.028   8.274  49.939  1.00  0.00     0.025 A 
HETATM   26  C18 UNL     1      20.272   9.197  49.271  1.00  0.00     0.009 A 
HETATM   27  C19 UNL     1      20.996   9.945  48.253  1.00  0.00     0.050 A 
HETATM   28  S1  UNL     1      22.712   9.261  48.339  1.00  0.00    -0.097 SA
ENDBRANCH  21  24
ENDBRANCH   1  20
TORSDOF 4
ENDMDL
MODEL 8
REMARK VINA RESULT:      -7.9      4.688      8.077
REMARK  4 active torsions:
REMARK  status: ('A' for Active; 'I' for Inactive)
REMARK       I    between atoms: C1_2  and  N1_3 
REMARK    1  A    between atoms: C1_2  and  C16_22 
REMARK    2  A    between atoms: N1_3  and  C2_4 
REMARK    3  A    between atoms: C6_8  and  N2_9 
REMARK    4  A    between atoms: N3_11  and  C8_12 
ROOT
HETATM    1  C2  UNL     1      23.533  -0.251  53.447  1.00  0.00     0.037 A 
HETATM    2  C3  UNL     1      22.816  -0.736  54.534  1.00  0.00     0.029 A 
HETATM    3  C4  UNL     1      21.470  -0.419  54.599  1.00  0.00     0.005 A 
HETATM    4  C5  UNL     1      20.912   0.349  53.600  1.00  0.00     0.031 A 
HETATM    5  C6  UNL     1      21.608   0.833  52.520  1.00  0.00     0.054 A 
HETATM    6  C15 UNL     1      22.942   0.505  52.480  1.00  0.00     0.060 A 
ENDROOT
BRANCH   5   7
HETATM    7  N2  UNL     1      21.028   1.621  51.494  1.00  0.00    -0.274 N 
HETATM    8  C7  UNL     1      20.236   2.818  51.685  1.00  0.00     0.278 C 
HETATM    9  N3  UNL     1      18.968   2.584  50.988  1.00  0.00    -0.336 N 
HETATM   10  C13 UNL     1      19.145   2.212  49.615  1.00  0.00     0.111 C 
HETATM   11  C14 UNL     1      20.211   1.568  49.165  1.00  0.00     0.124 C 
HETATM   12  N5  UNL     1      21.210   1.254  50.158  1.00  0.00    -0.306 N 
HETATM   13  H13 UNL     1      22.079   0.737  49.831  1.00  0.00     0.186 HD
BRANCH   9  14
HETATM   14  C8  UNL     1      17.634   2.672  51.468  1.00  0.00     0.053 A 
HETATM   15  C9  UNL     1      16.720   1.639  51.507  1.00  0.00     0.032 A 
HETATM   16  C10 UNL     1      15.468   1.918  52.008  1.00  0.00     0.021 A 
HETATM   17  C11 UNL     1      15.035   3.138  52.478  1.00  0.00     0.116 A 
HETATM   18  N4  UNL     1      15.944   4.132  52.431  1.00  0.00    -0.271 NA
HETATM   19  C12 UNL     1      17.182   3.906  51.949  1.00  0.00     0.145 A 
ENDBRANCH   9  14
ENDBRANCH   5   7
BRANCH   1  20
HETATM   20  N1  UNL     1      24.908  -0.611  53.437  1.00  0.00    -0.322 N 
HETATM   21  C1  UNL     1      26.019   0.224  53.734  1.00  0.00     0.263 C 
HETATM   22  O1  UNL     1      25.941   1.438  54.058  1.00  0.00    -0.267 OA
HETATM   23  H1  UNL     1      25.059  -1.627  53.171  1.00  0.00     0.169 HD
BRANCH  21  24
HETATM   24  C16 UNL     1      27.337  -0.336  53.666  1.00  0.00     0.072 A 
HETATM   25  C17 UNL     1      27.783  -1.500  53.068  1.00  0.00     0.025 A 
HETATM   26  C18 UNL     1      29.105  -1.841  53.131  1.00  0.00     0.009 A 
HETATM   27  C19 UNL     1      29.938  -0.892  53.856  1.00  0.00     0.050 A 
HETATM   28  S1  UNL     1      28.749   0.420  54.392  1.00  0.00    -0.097 SA
ENDBRANCH  21  24
ENDBRANCH   1  20
TORSDOF 4
ENDMDL
MODEL 9
REMARK VINA RESULT:      -7.8      2.748      4.739
REMARK  4 active torsions:
REMARK  status: ('A' for Active; 'I' for Inactive)
REMARK       I    between atoms: C1_2  and  N1_3 
REMARK    1  A    between atoms: C1_2  and  C16_22 
REMARK    2  A    between atoms: N1_3  and  C2_4 
REMARK    3  A    between atoms: C6_8  and  N2_9 
REMARK    4  A    between atoms: N3_11  and  C8_12 
ROOT
HETATM    1  C2  UNL     1      26.991   7.118  48.523  1.00  0.00     0.037 A 
HETATM    2  C3  UNL     1      28.188   6.480  48.223  1.00  0.00     0.029 A 
HETATM    3  C4  UNL     1      28.256   5.117  48.458  1.00  0.00     0.005 A 
HETATM    4  C5  UNL     1      27.154   4.468  48.970  1.00  0.00     0.031 A 
HETATM    5  C6  UNL     1      25.965   5.086  49.270  1.00  0.00     0.054 A 
HETATM    6  C15 UNL     1      25.923   6.438  49.028  1.00  0.00     0.060 A 
ENDROOT
BRANCH   5   7
HETATM    7  N2  UNL     1      24.833   4.412  49.794  1.00  0.00    -0.274 N 
HETATM    8  C7  UNL     1      24.650   4.002  51.170  1.00  0.00     0.278 C 
HETATM    9  N3  UNL     1      24.370   2.564  51.133  1.00  0.00    -0.336 N 
HETATM   10  C13 UNL     1      23.274   2.229  50.271  1.00  0.00     0.111 C 
HETATM   11  C14 UNL     1      22.944   2.938  49.202  1.00  0.00     0.124 C 
HETATM   12  N5  UNL     1      23.767   4.095  48.948  1.00  0.00    -0.306 N 
HETATM   13  H13 UNL     1      23.530   4.687  48.097  1.00  0.00     0.186 HD
BRANCH   9  14
HETATM   14  C8  UNL     1      25.012   1.491  51.809  1.00  0.00     0.053 A 
HETATM   15  C9  UNL     1      26.318   1.088  51.627  1.00  0.00     0.032 A 
HETATM   16  C10 UNL     1      26.764   0.022  52.377  1.00  0.00     0.021 A 
HETATM   17  C11 UNL     1      26.026  -0.687  53.299  1.00  0.00     0.116 A 
HETATM   18  N4  UNL     1      24.752  -0.276  53.460  1.00  0.00    -0.271 NA
HETATM   19  C12 UNL     1      24.272   0.763  52.749  1.00  0.00     0.145 A 
ENDBRANCH   9  14
ENDBRANCH   5   7
BRANCH   1  20
HETATM   20  N1  UNL     1      26.983   8.515  48.260  1.00  0.00    -0.322 N 
HETATM   21  C1  UNL     1      27.052   9.572  49.208  1.00  0.00     0.263 C 
HETATM   22  O1  UNL     1      27.133   9.416  50.454  1.00  0.00    -0.267 OA
HETATM   23  H1  UNL     1      26.917   8.732  47.222  1.00  0.00     0.169 HD
BRANCH  21  24
HETATM   24  C16 UNL     1      27.031  10.924  48.733  1.00  0.00     0.072 A 
HETATM   25  C17 UNL     1      25.985  11.680  48.237  1.00  0.00     0.025 A 
HETATM   26  C18 UNL     1      26.198  12.969  47.837  1.00  0.00     0.009 A 
HETATM   27  C19 UNL     1      27.573  13.426  47.985  1.00  0.00     0.050 A 
HETATM   28  S1  UNL     1      28.452  11.959  48.691  1.00  0.00    -0.097 SA
ENDBRANCH  21  24
ENDBRANCH   1  20
TORSDOF 4
ENDMDL
