MODEL 1
REMARK VINA RESULT:      -8.3      0.000      0.000
REMARK  6 active torsions:
REMARK  status: ('A' for Active; 'I' for Inactive)
REMARK    1  A    between atoms: C3_3  and  C4_4 
REMARK    2  A    between atoms: C7_8  and  C8_9 
REMARK    3  A    between atoms: C8_9  and  C9_10 
REMARK    4  A    between atoms: C9_10  and  P1_11 
REMARK    5  A    between atoms: C13_16  and  N3_17 
REMARK    6  A    between atoms: C17_22  and  O1_23 
ROOT
HETATM    1  C4  UNL     1      26.525   0.259  52.359  1.00  0.00     0.163 C 
HETATM    2  C5  UNL     1      26.819   1.573  51.682  1.00  0.00     0.157 C 
HETATM    3  N1  UNL     1      25.683   2.232  51.123  1.00  0.00    -0.371 N 
HETATM    4  C6  UNL     1      24.878   3.292  50.744  1.00  0.00     0.145 C 
HETATM    5  C7  UNL     1      23.530   3.104  50.832  1.00  0.00    -0.028 C 
HETATM    6  C10 UNL     1      23.002   3.456  52.292  1.00  0.00     0.033 C 
HETATM    7  C11 UNL     1      21.740   4.135  51.937  1.00  0.00     0.057 C 
HETATM    8  C12 UNL     1      22.078   5.403  51.161  1.00  0.00     0.110 C 
HETATM    9  N2  UNL     1      23.199   6.068  51.061  1.00  0.00    -0.080 NA
HETATM   10  C13 UNL     1      24.548   5.757  50.754  1.00  0.00     0.723 C 
HETATM   11  N4  UNL     1      25.168   4.622  50.324  1.00  0.00    -0.045 NA
HETATM   12  C15 UNL     1      23.141   2.216  53.020  1.00  0.00    -0.009 A 
HETATM   13  C16 UNL     1      22.263   1.214  52.883  1.00  0.00     0.045 A 
HETATM   14  C17 UNL     1      22.870  -0.058  53.055  1.00  0.00     0.135 A 
HETATM   15  C19 UNL     1      24.283   0.103  53.313  1.00  0.00     0.141 A 
HETATM   16  C20 UNL     1      24.338   1.363  53.287  1.00  0.00     0.023 A 
HETATM   17  O2  UNL     1      24.276  -0.112  53.555  1.00  0.00     0.000 OA
HETATM   18  C21 UNL     1      24.200  -0.414  55.027  1.00  0.00     0.000 C 
HETATM   19  C22 UNL     1      24.388   2.723  53.258  1.00  0.00     0.015 A 
HETATM   20  O3  UNL     1      25.758   0.338  53.580  1.00  0.00    -0.362 OA
HETATM   21  H9  UNL     1      25.211   1.366  50.700  1.00  0.00     0.161 HD
ENDROOT
BRANCH   5  22
HETATM   22  C8  UNL     1      22.465   2.657  49.898  1.00  0.00     0.042 C 
BRANCH  22  23
HETATM   23  C9  UNL     1      23.038   2.779  48.474  1.00  0.00     0.033 C 
BRANCH  23  24
HETATM   24  P1  UNL     1      21.985   4.004  47.549  1.00  0.00    -0.141 P 
HETATM   25  H14 UNL     1      21.764   5.186  48.390  1.00  0.00     0.054 HD
HETATM   26  H15 UNL     1      20.716   3.373  47.203  1.00  0.00     0.054 HD
ENDBRANCH  23  24
ENDBRANCH  22  23
ENDBRANCH   5  22
BRANCH  10  27
HETATM   27  N3  UNL     1      25.462   6.876  50.938  1.00  0.00    -0.227 N 
HETATM   28  C14 UNL     1      26.154   7.380  49.757  1.00  0.00     0.165 C 
HETATM   29  H20 UNL     1      25.586   7.282  51.914  1.00  0.00     0.177 HD
ENDBRANCH  10  27
BRANCH   1  30
HETATM   30  C3  UNL     1      27.734  -0.489  52.582  1.00  0.00     0.002 C 
HETATM   31  C2  UNL     1      28.580  -0.468  53.596  1.00  0.00    -0.032 C 
HETATM   32  C1  UNL     1      29.720  -1.416  53.423  1.00  0.00     0.036 C 
ENDBRANCH   1  30
BRANCH  14  33
HETATM   33  O1  UNL     1      22.488  -1.442  53.041  1.00  0.00    -0.378 OA
HETATM   34  C18 UNL     1      21.299  -1.730  53.795  1.00  0.00     0.202 C 
ENDBRANCH  14  33
TORSDOF 6
ENDMDL
MODEL 2
REMARK VINA RESULT:      -8.2      1.447      1.720
REMARK  6 active torsions:
REMARK  status: ('A' for Active; 'I' for Inactive)
REMARK    1  A    between atoms: C3_3  and  C4_4 
REMARK    2  A    between atoms: C7_8  and  C8_9 
REMARK    3  A    between atoms: C8_9  and  C9_10 
REMARK    4  A    between atoms: C9_10  and  P1_11 
REMARK    5  A    between atoms: C13_16  and  N3_17 
REMARK    6  A    between atoms: C17_22  and  O1_23 
ROOT
HETATM    1  C4  UNL     1      25.646   0.931  51.739  1.00  0.00     0.163 C 
HETATM    2  C5  UNL     1      26.310   2.199  51.267  1.00  0.00     0.157 C 
HETATM    3  N1  UNL     1      25.439   3.138  50.636  1.00  0.00    -0.371 N 
HETATM    4  C6  UNL     1      24.942   4.378  50.276  1.00  0.00     0.145 C 
HETATM    5  C7  UNL     1      23.588   4.488  50.153  1.00  0.00    -0.028 C 
HETATM    6  C10 UNL     1      22.915   4.824  51.556  1.00  0.00     0.033 C 
HETATM    7  C11 UNL     1      21.895   5.792  51.111  1.00  0.00     0.057 C 
HETATM    8  C12 UNL     1      22.608   7.014  50.542  1.00  0.00     0.110 C 
HETATM    9  N2  UNL     1      23.843   7.421  50.678  1.00  0.00    -0.080 NA
HETATM   10  C13 UNL     1      25.131   6.845  50.528  1.00  0.00     0.723 C 
HETATM   11  N4  UNL     1      25.564   5.642  50.058  1.00  0.00    -0.045 NA
HETATM   12  C15 UNL     1      22.677   3.526  52.146  1.00  0.00    -0.009 A 
HETATM   13  C16 UNL     1      21.645   2.760  51.772  1.00  0.00     0.045 A 
HETATM   14  C17 UNL     1      21.941   1.375  51.877  1.00  0.00     0.135 A 
HETATM   15  C19 UNL     1      23.296   1.197  52.346  1.00  0.00     0.141 A 
HETATM   16  C20 UNL     1      23.613   2.410  52.476  1.00  0.00     0.023 A 
HETATM   17  O2  UNL     1      23.206   0.968  52.558  1.00  0.00     0.000 OA
HETATM   18  C21 UNL     1      22.833   0.568  53.960  1.00  0.00     0.000 C 
HETATM   19  C22 UNL     1      23.947   3.723  52.613  1.00  0.00     0.015 A 
HETATM   20  O3  UNL     1      24.725   1.075  52.842  1.00  0.00    -0.362 OA
HETATM   21  H9  UNL     1      24.873   2.437  50.053  1.00  0.00     0.161 HD
ENDROOT
BRANCH   5  22
HETATM   22  C8  UNL     1      22.619   4.367  49.033  1.00  0.00     0.042 C 
BRANCH  22  23
HETATM   23  C9  UNL     1      22.829   2.977  48.406  1.00  0.00     0.033 C 
BRANCH  23  24
HETATM   24  P1  UNL     1      21.147   2.242  48.095  1.00  0.00    -0.141 P 
HETATM   25  H14 UNL     1      21.213   1.360  46.925  1.00  0.00     0.054 HD
HETATM   26  H15 UNL     1      20.191   3.321  47.873  1.00  0.00     0.054 HD
ENDBRANCH  23  24
ENDBRANCH  22  23
ENDBRANCH   5  22
BRANCH  10  27
HETATM   27  N3  UNL     1      26.214   7.715  50.966  1.00  0.00    -0.227 N 
HETATM   28  C14 UNL     1      26.607   8.800  50.075  1.00  0.00     0.165 C 
HETATM   29  H20 UNL     1      26.669   7.530  51.910  1.00  0.00     0.177 HD
ENDBRANCH  10  27
BRANCH   1  30
HETATM   30  C3  UNL     1      26.622  -0.082  52.038  1.00  0.00     0.002 C 
HETATM   31  C2  UNL     1      26.523  -1.179  52.768  1.00  0.00    -0.032 C 
HETATM   32  C1  UNL     1      27.793  -1.961  52.819  1.00  0.00     0.036 C 
ENDBRANCH   1  30
BRANCH  14  33
HETATM   33  O1  UNL     1      21.288   0.117  51.649  1.00  0.00    -0.378 OA
HETATM   34  C18 UNL     1      19.857   0.205  51.556  1.00  0.00     0.202 C 
ENDBRANCH  14  33
TORSDOF 6
ENDMDL
MODEL 3
REMARK VINA RESULT:      -7.3      7.223     10.917
REMARK  6 active torsions:
REMARK  status: ('A' for Active; 'I' for Inactive)
REMARK    1  A    between atoms: C3_3  and  C4_4 
REMARK    2  A    between atoms: C7_8  and  C8_9 
REMARK    3  A    between atoms: C8_9  and  C9_10 
REMARK    4  A    between atoms: C9_10  and  P1_11 
REMARK    5  A    between atoms: C13_16  and  N3_17 
REMARK    6  A    between atoms: C17_22  and  O1_23 
ROOT
HETATM    1  C4  UNL     1      28.121   6.445  48.245  1.00  0.00     0.163 C 
HETATM    2  C5  UNL     1      29.321   5.536  48.157  1.00  0.00     0.157 C 
HETATM    3  N1  UNL     1      30.449   6.089  47.479  1.00  0.00    -0.371 N 
HETATM    4  C6  UNL     1      31.784   6.324  47.200  1.00  0.00     0.145 C 
HETATM    5  C7  UNL     1      32.112   7.571  46.758  1.00  0.00    -0.028 C 
HETATM    6  C10 UNL     1      32.378   8.556  47.980  1.00  0.00     0.033 C 
HETATM    7  C11 UNL     1      33.536   9.298  47.446  1.00  0.00     0.057 C 
HETATM    8  C12 UNL     1      34.694   8.322  47.271  1.00  0.00     0.110 C 
HETATM    9  N2  UNL     1      34.889   7.132  47.775  1.00  0.00    -0.080 NA
HETATM   10  C13 UNL     1      34.147   5.927  47.868  1.00  0.00     0.723 C 
HETATM   11  N4  UNL     1      32.955   5.524  47.343  1.00  0.00    -0.045 NA
HETATM   12  C15 UNL     1      31.072   9.093  48.284  1.00  0.00    -0.009 A 
HETATM   13  C16 UNL     1      30.520  10.067  47.549  1.00  0.00     0.045 A 
HETATM   14  C17 UNL     1      29.104   9.972  47.511  1.00  0.00     0.135 A 
HETATM   15  C19 UNL     1      28.668   8.825  48.273  1.00  0.00     0.141 A 
HETATM   16  C20 UNL     1      29.795   8.416  48.664  1.00  0.00     0.023 A 
HETATM   17  O2  UNL     1      28.433   8.994  48.418  1.00  0.00     0.000 OA
HETATM   18  C21 UNL     1      27.932   9.777  49.601  1.00  0.00     0.000 C 
HETATM   19  C22 UNL     1      31.017   7.983  49.081  1.00  0.00     0.015 A 
HETATM   20  O3  UNL     1      28.273   7.607  49.089  1.00  0.00    -0.362 OA
HETATM   21  H9  UNL     1      29.916   6.552  46.671  1.00  0.00     0.161 HD
ENDROOT
BRANCH   5  22
HETATM   22  C8  UNL     1      32.273   8.208  45.425  1.00  0.00     0.042 C 
BRANCH  22  23
HETATM   23  C9  UNL     1      32.148   7.089  44.376  1.00  0.00     0.033 C 
BRANCH  23  24
HETATM   24  P1  UNL     1      33.864   6.684  43.779  1.00  0.00    -0.141 P 
HETATM   25  H14 UNL     1      34.139   5.264  44.021  1.00  0.00     0.054 HD
HETATM   26  H15 UNL     1      34.823   7.523  44.489  1.00  0.00     0.054 HD
ENDBRANCH  23  24
ENDBRANCH  22  23
ENDBRANCH   5  22
BRANCH  10  27
HETATM   27  N3  UNL     1      34.784   4.910  48.693  1.00  0.00    -0.227 N 
HETATM   28  C14 UNL     1      34.855   3.556  48.158  1.00  0.00     0.165 C 
HETATM   29  H20 UNL     1      35.172   5.191  49.644  1.00  0.00     0.177 HD
ENDBRANCH  10  27
BRANCH   1  30
HETATM   30  C3  UNL     1      26.944   5.710  48.622  1.00  0.00     0.002 C 
HETATM   31  C2  UNL     1      26.816   4.492  49.116  1.00  0.00    -0.032 C 
HETATM   32  C1  UNL     1      25.394   4.112  49.368  1.00  0.00     0.036 C 
ENDBRANCH   1  30
BRANCH  14  33
HETATM   33  O1  UNL     1      27.995  10.678  46.934  1.00  0.00    -0.378 OA
HETATM   34  C18 UNL     1      28.315  12.003  46.479  1.00  0.00     0.202 C 
ENDBRANCH  14  33
TORSDOF 6
ENDMDL
MODEL 4
REMARK VINA RESULT:      -7.0      2.364      3.987
REMARK  6 active torsions:
REMARK  status: ('A' for Active; 'I' for Inactive)
REMARK    1  A    between atoms: C3_3  and  C4_4 
REMARK    2  A    between atoms: C7_8  and  C8_9 
REMARK    3  A    between atoms: C8_9  and  C9_10 
REMARK    4  A    between atoms: C9_10  and  P1_11 
REMARK    5  A    between atoms: C13_16  and  N3_17 
REMARK    6  A    between atoms: C17_22  and  O1_23 
ROOT
HETATM    1  C4  UNL     1      23.787   2.200  51.422  1.00  0.00     0.163 C 
HETATM    2  C5  UNL     1      24.933   3.141  51.151  1.00  0.00     0.157 C 
HETATM    3  N1  UNL     1      24.632   4.220  50.267  1.00  0.00    -0.371 N 
HETATM    4  C6  UNL     1      24.690   5.502  49.749  1.00  0.00     0.145 C 
HETATM    5  C7  UNL     1      23.539   6.004  49.216  1.00  0.00    -0.028 C 
HETATM    6  C10 UNL     1      22.645   6.691  50.340  1.00  0.00     0.033 C 
HETATM    7  C11 UNL     1      22.166   7.866  49.586  1.00  0.00     0.057 C 
HETATM    8  C12 UNL     1      23.369   8.737  49.240  1.00  0.00     0.110 C 
HETATM    9  N2  UNL     1      24.576   8.760  49.738  1.00  0.00    -0.080 NA
HETATM   10  C13 UNL     1      25.593   7.806  50.000  1.00  0.00     0.723 C 
HETATM   11  N4  UNL     1      25.724   6.481  49.707  1.00  0.00    -0.045 NA
HETATM   12  C15 UNL     1      21.840   5.606  50.854  1.00  0.00    -0.009 A 
HETATM   13  C16 UNL     1      20.765   5.153  50.197  1.00  0.00     0.045 A 
HETATM   14  C17 UNL     1      20.550   3.766  50.414  1.00  0.00     0.135 A 
HETATM   15  C19 UNL     1      21.582   3.239  51.278  1.00  0.00     0.141 A 
HETATM   16  C20 UNL     1      22.227   4.304  51.475  1.00  0.00     0.023 A 
HETATM   17  O2  UNL     1      21.367   3.075  51.456  1.00  0.00     0.000 OA
HETATM   18  C21 UNL     1      20.503   2.974  52.684  1.00  0.00     0.000 C 
HETATM   19  C22 UNL     1      22.918   5.459  51.682  1.00  0.00     0.015 A 
HETATM   20  O3  UNL     1      22.692   2.745  52.188  1.00  0.00    -0.362 OA
HETATM   21  H9  UNL     1      24.058   3.662  49.553  1.00  0.00     0.161 HD
ENDROOT
BRANCH   5  22
HETATM   22  C8  UNL     1      22.942   6.056  47.857  1.00  0.00     0.042 C 
BRANCH  22  23
HETATM   23  C9  UNL     1      22.644   4.603  47.443  1.00  0.00     0.033 C 
BRANCH  23  24
HETATM   24  P1  UNL     1      21.691   4.659  45.845  1.00  0.00    -0.141 P 
HETATM   25  H14 UNL     1      20.383   4.025  46.038  1.00  0.00     0.054 HD
HETATM   26  H15 UNL     1      22.454   3.964  44.814  1.00  0.00     0.054 HD
ENDBRANCH  23  24
ENDBRANCH  22  23
ENDBRANCH   5  22
BRANCH  10  27
HETATM   27  N3  UNL     1      26.730   8.348  50.731  1.00  0.00    -0.227 N 
HETATM   28  C14 UNL     1      27.552   9.343  50.054  1.00  0.00     0.165 C 
HETATM   29  H20 UNL     1      26.913   8.005  51.722  1.00  0.00     0.177 HD
ENDBRANCH  10  27
BRANCH   1  30
HETATM   30  C3  UNL     1      24.253   0.979  52.024  1.00  0.00     0.002 C 
HETATM   31  C2  UNL     1      24.530   0.697  53.285  1.00  0.00    -0.032 C 
HETATM   32  C1  UNL     1      24.992  -0.709  53.479  1.00  0.00     0.036 C 
ENDBRANCH   1  30
BRANCH  14  33
HETATM   33  O1  UNL     1      19.616   2.749  50.021  1.00  0.00    -0.378 OA
HETATM   34  C18 UNL     1      19.391   2.674  48.604  1.00  0.00     0.202 C 
ENDBRANCH  14  33
TORSDOF 6
ENDMDL
MODEL 5
REMARK VINA RESULT:      -6.9      7.159     10.905
REMARK  6 active torsions:
REMARK  status: ('A' for Active; 'I' for Inactive)
REMARK    1  A    between atoms: C3_3  and  C4_4 
REMARK    2  A    between atoms: C7_8  and  C8_9 
REMARK    3  A    between atoms: C8_9  and  C9_10 
REMARK    4  A    between atoms: C9_10  and  P1_11 
REMARK    5  A    between atoms: C13_16  and  N3_17 
REMARK    6  A    between atoms: C17_22  and  O1_23 
ROOT
HETATM    1  C4  UNL     1      28.799   6.345  48.120  1.00  0.00     0.163 C 
HETATM    2  C5  UNL     1      30.239   5.974  47.873  1.00  0.00     0.157 C 
HETATM    3  N1  UNL     1      31.004   6.954  47.173  1.00  0.00    -0.371 N 
HETATM    4  C6  UNL     1      32.118   7.698  46.827  1.00  0.00     0.145 C 
HETATM    5  C7  UNL     1      31.906   8.998  46.474  1.00  0.00    -0.028 C 
HETATM    6  C10 UNL     1      31.895   9.941  47.757  1.00  0.00     0.033 C 
HETATM    7  C11 UNL     1      32.630  11.100  47.214  1.00  0.00     0.057 C 
HETATM    8  C12 UNL     1      34.049  10.654  46.878  1.00  0.00     0.110 C 
HETATM    9  N2  UNL     1      34.727   9.605  47.262  1.00  0.00    -0.080 NA
HETATM   10  C13 UNL     1      34.508   8.204  47.299  1.00  0.00     0.723 C 
HETATM   11  N4  UNL     1      33.513   7.404  46.821  1.00  0.00    -0.045 NA
HETATM   12  C15 UNL     1      30.518   9.917  48.193  1.00  0.00    -0.009 A 
HETATM   13  C16 UNL     1      29.572  10.643  47.584  1.00  0.00     0.045 A 
HETATM   14  C17 UNL     1      28.300  10.014  47.632  1.00  0.00     0.135 A 
HETATM   15  C19 UNL     1      28.405   8.747  48.319  1.00  0.00     0.141 A 
HETATM   16  C20 UNL     1      29.634   8.782  48.596  1.00  0.00     0.023 A 
HETATM   17  O2  UNL     1      28.137   8.805  48.493  1.00  0.00     0.000 OA
HETATM   18  C21 UNL     1      27.492   9.268  49.771  1.00  0.00     0.000 C 
HETATM   19  C22 UNL     1      30.963   8.829  48.892  1.00  0.00     0.015 A 
HETATM   20  O3  UNL     1      28.579   7.427  49.050  1.00  0.00    -0.362 OA
HETATM   21  H9  UNL     1      30.262   7.220  46.446  1.00  0.00     0.161 HD
ENDROOT
BRANCH   5  22
HETATM   22  C8  UNL     1      31.687   9.720  45.194  1.00  0.00     0.042 C 
BRANCH  22  23
HETATM   23  C9  UNL     1      30.496   9.042  44.495  1.00  0.00     0.033 C 
BRANCH  23  24
HETATM   24  P1  UNL     1      29.820  10.244  43.244  1.00  0.00    -0.141 P 
HETATM   25  H14 UNL     1      29.013  11.257  43.933  1.00  0.00     0.054 HD
HETATM   26  H15 UNL     1      29.013   9.514  42.273  1.00  0.00     0.054 HD
ENDBRANCH  23  24
ENDBRANCH  22  23
ENDBRANCH   5  22
BRANCH  10  27
HETATM   27  N3  UNL     1      35.557   7.466  47.988  1.00  0.00    -0.227 N 
HETATM   28  C14 UNL     1      35.176   6.239  48.677  1.00  0.00     0.165 C 
HETATM   29  H20 UNL     1      36.552   7.844  47.961  1.00  0.00     0.177 HD
ENDBRANCH  10  27
BRANCH   1  30
HETATM   30  C3  UNL     1      28.029   5.195  48.509  1.00  0.00     0.002 C 
HETATM   31  C2  UNL     1      26.798   5.107  48.981  1.00  0.00    -0.032 C 
HETATM   32  C1  UNL     1      26.380   3.701  49.259  1.00  0.00     0.036 C 
ENDBRANCH   1  30
BRANCH  14  33
HETATM   33  O1  UNL     1      26.957  10.270  47.194  1.00  0.00    -0.378 OA
HETATM   34  C18 UNL     1      26.840  10.548  45.790  1.00  0.00     0.202 C 
ENDBRANCH  14  33
TORSDOF 6
ENDMDL
MODEL 6
REMARK VINA RESULT:      -6.9      3.264      5.677
REMARK  6 active torsions:
REMARK  status: ('A' for Active; 'I' for Inactive)
REMARK    1  A    between atoms: C3_3  and  C4_4 
REMARK    2  A    between atoms: C7_8  and  C8_9 
REMARK    3  A    between atoms: C8_9  and  C9_10 
REMARK    4  A    between atoms: C9_10  and  P1_11 
REMARK    5  A    between atoms: C13_16  and  N3_17 
REMARK    6  A    between atoms: C17_22  and  O1_23 
ROOT
HETATM    1  C4  UNL     1      24.471   2.649  52.366  1.00  0.00     0.163 C 
HETATM    2  C5  UNL     1      23.049   2.149  52.402  1.00  0.00     0.157 C 
HETATM    3  N1  UNL     1      22.120   2.915  51.636  1.00  0.00    -0.371 N 
HETATM    4  C6  UNL     1      21.020   3.159  50.832  1.00  0.00     0.145 C 
HETATM    5  C7  UNL     1      21.140   4.154  49.908  1.00  0.00    -0.028 C 
HETATM    6  C10 UNL     1      21.780   3.602  48.559  1.00  0.00     0.033 C 
HETATM    7  C11 UNL     1      20.960   4.342  47.580  1.00  0.00     0.057 C 
HETATM    8  C12 UNL     1      19.512   3.884  47.723  1.00  0.00     0.110 C 
HETATM    9  N2  UNL     1      19.006   2.822  48.291  1.00  0.00    -0.080 NA
HETATM   10  C13 UNL     1      19.125   2.181  49.551  1.00  0.00     0.723 C 
HETATM   11  N4  UNL     1      19.751   2.521  50.713  1.00  0.00    -0.045 NA
HETATM   12  C15 UNL     1      23.203   3.735  48.770  1.00  0.00    -0.009 A 
HETATM   13  C16 UNL     1      23.828   4.913  48.649  1.00  0.00     0.045 A 
HETATM   14  C17 UNL     1      24.945   5.018  49.519  1.00  0.00     0.135 A 
HETATM   15  C19 UNL     1      25.071   3.812  50.305  1.00  0.00     0.141 A 
HETATM   16  C20 UNL     1      24.096   3.171  49.826  1.00  0.00     0.023 A 
HETATM   17  O2  UNL     1      25.391   3.797  50.254  1.00  0.00     0.000 OA
HETATM   18  C21 UNL     1      26.564   3.240  49.494  1.00  0.00     0.000 C 
HETATM   19  C22 UNL     1      23.042   2.486  49.303  1.00  0.00     0.015 A 
HETATM   20  O3  UNL     1      25.151   2.520  51.099  1.00  0.00    -0.362 OA
HETATM   21  H9  UNL     1      22.481   3.888  51.907  1.00  0.00     0.161 HD
ENDROOT
BRANCH   5  22
HETATM   22  C8  UNL     1      20.818   5.604  49.873  1.00  0.00     0.042 C 
BRANCH  22  23
HETATM   23  C9  UNL     1      21.596   6.264  51.026  1.00  0.00     0.033 C 
BRANCH  23  24
HETATM   24  P1  UNL     1      22.366   7.823  50.363  1.00  0.00    -0.141 P 
HETATM   25  H14 UNL     1      21.404   8.925  50.477  1.00  0.00     0.054 HD
HETATM   26  H15 UNL     1      22.744   7.611  48.971  1.00  0.00     0.054 HD
ENDBRANCH  23  24
ENDBRANCH  22  23
ENDBRANCH   5  22
BRANCH  10  27
HETATM   27  N3  UNL     1      18.443   0.897  49.621  1.00  0.00    -0.227 N 
HETATM   28  C14 UNL     1      18.395   0.229  50.916  1.00  0.00     0.165 C 
HETATM   29  H20 UNL     1      18.006   0.500  48.735  1.00  0.00     0.177 HD
ENDBRANCH  10  27
BRANCH   1  30
HETATM   30  C3  UNL     1      25.255   2.048  53.411  1.00  0.00     0.002 C 
HETATM   31  C2  UNL     1      25.728   0.820  53.531  1.00  0.00    -0.032 C 
HETATM   32  C1  UNL     1      26.502   0.614  54.790  1.00  0.00     0.036 C 
ENDBRANCH   1  30
BRANCH  14  33
HETATM   33  O1  UNL     1      25.970   5.970  49.842  1.00  0.00    -0.378 OA
HETATM   34  C18 UNL     1      26.168   6.982  48.841  1.00  0.00     0.202 C 
ENDBRANCH  14  33
TORSDOF 6
ENDMDL
MODEL 7
REMARK VINA RESULT:      -6.9      8.855     11.231
REMARK  6 active torsions:
REMARK  status: ('A' for Active; 'I' for Inactive)
REMARK    1  A    between atoms: C3_3  and  C4_4 
REMARK    2  A    between atoms: C7_8  and  C8_9 
REMARK    3  A    between atoms: C8_9  and  C9_10 
REMARK    4  A    between atoms: C9_10  and  P1_11 
REMARK    5  A    between atoms: C13_16  and  N3_17 
REMARK    6  A    between atoms: C17_22  and  O1_23 
ROOT
HETATM    1  C4  UNL     1      33.182   5.230  43.709  1.00  0.00     0.163 C 
HETATM    2  C5  UNL     1      32.702   6.657  43.778  1.00  0.00     0.157 C 
HETATM    3  N1  UNL     1      31.913   6.975  44.923  1.00  0.00    -0.371 N 
HETATM    4  C6  UNL     1      31.412   7.747  45.957  1.00  0.00     0.145 C 
HETATM    5  C7  UNL     1      31.128   7.103  47.125  1.00  0.00    -0.028 C 
HETATM    6  C10 UNL     1      32.419   7.014  48.054  1.00  0.00     0.033 C 
HETATM    7  C11 UNL     1      31.794   7.274  49.365  1.00  0.00     0.057 C 
HETATM    8  C12 UNL     1      31.227   8.690  49.355  1.00  0.00     0.110 C 
HETATM    9  N2  UNL     1      31.474   9.701  48.565  1.00  0.00    -0.080 NA
HETATM   10  C13 UNL     1      31.512   9.919  47.164  1.00  0.00     0.723 C 
HETATM   11  N4  UNL     1      31.180   9.146  46.092  1.00  0.00    -0.045 NA
HETATM   12  C15 UNL     1      33.067   5.794  47.631  1.00  0.00    -0.009 A 
HETATM   13  C16 UNL     1      32.632   4.591  48.027  1.00  0.00     0.045 A 
HETATM   14  C17 UNL     1      32.866   3.589  47.048  1.00  0.00     0.135 A 
HETATM   15  C19 UNL     1      33.497   4.174  45.888  1.00  0.00     0.141 A 
HETATM   16  C20 UNL     1      33.578   5.364  46.295  1.00  0.00     0.023 A 
HETATM   17  O2  UNL     1      33.713   3.932  45.868  1.00  0.00     0.000 OA
HETATM   18  C21 UNL     1      35.087   3.389  46.149  1.00  0.00     0.000 C 
HETATM   19  C22 UNL     1      33.660   6.647  46.744  1.00  0.00     0.015 A 
HETATM   20  O3  UNL     1      34.160   4.847  44.699  1.00  0.00    -0.362 OA
HETATM   21  H9  UNL     1      31.319   6.081  44.938  1.00  0.00     0.161 HD
ENDROOT
BRANCH   5  22
HETATM   22  C8  UNL     1      29.917   6.480  47.717  1.00  0.00     0.042 C 
BRANCH  22  23
HETATM   23  C9  UNL     1      28.701   7.227  47.140  1.00  0.00     0.033 C 
BRANCH  23  24
HETATM   24  P1  UNL     1      27.516   7.537  48.541  1.00  0.00    -0.141 P 
HETATM   25  H14 UNL     1      27.619   6.444  49.514  1.00  0.00     0.054 HD
HETATM   26  H15 UNL     1      26.162   7.624  48.007  1.00  0.00     0.054 HD
ENDBRANCH  23  24
ENDBRANCH  22  23
ENDBRANCH   5  22
BRANCH  10  27
HETATM   27  N3  UNL     1      32.010  11.236  46.790  1.00  0.00    -0.227 N 
HETATM   28  C14 UNL     1      32.820  11.331  45.582  1.00  0.00     0.165 C 
HETATM   29  H20 UNL     1      31.763  12.070  47.404  1.00  0.00     0.177 HD
ENDBRANCH  10  27
BRANCH   1  30
HETATM   30  C3  UNL     1      33.661   4.909  42.391  1.00  0.00     0.002 C 
HETATM   31  C2  UNL     1      33.150   4.122  41.461  1.00  0.00    -0.032 C 
HETATM   32  C1  UNL     1      33.980   4.070  40.221  1.00  0.00     0.036 C 
ENDBRANCH   1  30
BRANCH  14  33
HETATM   33  O1  UNL     1      32.652   2.179  46.881  1.00  0.00    -0.378 OA
HETATM   34  C18 UNL     1      32.876   1.406  48.072  1.00  0.00     0.202 C 
ENDBRANCH  14  33
TORSDOF 6
ENDMDL
MODEL 8
REMARK VINA RESULT:      -6.8      3.481      6.628
REMARK  6 active torsions:
REMARK  status: ('A' for Active; 'I' for Inactive)
REMARK    1  A    between atoms: C3_3  and  C4_4 
REMARK    2  A    between atoms: C7_8  and  C8_9 
REMARK    3  A    between atoms: C8_9  and  C9_10 
REMARK    4  A    between atoms: C9_10  and  P1_11 
REMARK    5  A    between atoms: C13_16  and  N3_17 
REMARK    6  A    between atoms: C17_22  and  O1_23 
ROOT
HETATM    1  C4  UNL     1      23.108   5.656  48.780  1.00  0.00     0.163 C 
HETATM    2  C5  UNL     1      23.768   5.218  50.063  1.00  0.00     0.157 C 
HETATM    3  N1  UNL     1      23.020   4.280  50.837  1.00  0.00    -0.371 N 
HETATM    4  C6  UNL     1      22.801   3.209  51.685  1.00  0.00     0.145 C 
HETATM    5  C7  UNL     1      21.687   2.458  51.454  1.00  0.00    -0.028 C 
HETATM    6  C10 UNL     1      21.982   1.319  50.382  1.00  0.00     0.033 C 
HETATM    7  C11 UNL     1      21.219   0.210  50.988  1.00  0.00     0.057 C 
HETATM    8  C12 UNL     1      21.854  -0.131  52.332  1.00  0.00     0.110 C 
HETATM    9  N2  UNL     1      23.032   0.161  52.817  1.00  0.00    -0.080 NA
HETATM   10  C13 UNL     1      23.814   1.335  52.969  1.00  0.00     0.723 C 
HETATM   11  N4  UNL     1      23.558   2.657  52.759  1.00  0.00    -0.045 NA
HETATM   12  C15 UNL     1      21.716   1.959  49.114  1.00  0.00    -0.009 A 
HETATM   13  C16 UNL     1      20.468   2.139  48.662  1.00  0.00     0.045 A 
HETATM   14  C17 UNL     1      20.350   3.310  47.868  1.00  0.00     0.135 A 
HETATM   15  C19 UNL     1      21.626   3.985  47.795  1.00  0.00     0.141 A 
HETATM   16  C20 UNL     1      22.306   3.179  48.487  1.00  0.00     0.023 A 
HETATM   17  O2  UNL     1      21.597   4.032  47.475  1.00  0.00     0.000 OA
HETATM   18  C21 UNL     1      21.913   3.612  46.065  1.00  0.00     0.000 C 
HETATM   19  C22 UNL     1      23.033   2.304  49.235  1.00  0.00     0.015 A 
HETATM   20  O3  UNL     1      22.992   4.645  47.756  1.00  0.00    -0.362 OA
HETATM   21  H9  UNL     1      22.056   4.735  50.717  1.00  0.00     0.161 HD
ENDROOT
BRANCH   5  22
HETATM   22  C8  UNL     1      20.291   2.459  51.964  1.00  0.00     0.042 C 
BRANCH  22  23
HETATM   23  C9  UNL     1      19.698   3.842  51.641  1.00  0.00     0.033 C 
BRANCH  23  24
HETATM   24  P1  UNL     1      17.902   3.597  51.217  1.00  0.00    -0.141 P 
HETATM   25  H14 UNL     1      17.711   3.804  49.777  1.00  0.00     0.054 HD
HETATM   26  H15 UNL     1      17.100   4.544  51.984  1.00  0.00     0.054 HD
ENDBRANCH  23  24
ENDBRANCH  22  23
ENDBRANCH   5  22
BRANCH  10  27
HETATM   27  N3  UNL     1      25.166   1.080  53.446  1.00  0.00    -0.227 N 
HETATM   28  C14 UNL     1      25.451  -0.246  53.981  1.00  0.00     0.165 C 
HETATM   29  H20 UNL     1      25.887   1.860  53.383  1.00  0.00     0.177 HD
ENDBRANCH  10  27
BRANCH   1  30
HETATM   30  C3  UNL     1      23.746   6.830  48.247  1.00  0.00     0.002 C 
HETATM   31  C2  UNL     1      25.009   7.048  47.926  1.00  0.00    -0.032 C 
HETATM   32  C1  UNL     1      25.247   8.425  47.400  1.00  0.00     0.036 C 
ENDBRANCH   1  30
BRANCH  14  33
HETATM   33  O1  UNL     1      19.337   4.011  47.130  1.00  0.00    -0.378 OA
HETATM   34  C18 UNL     1      18.078   3.321  47.061  1.00  0.00     0.202 C 
ENDBRANCH  14  33
TORSDOF 6
ENDMDL
MODEL 9
REMARK VINA RESULT:      -6.6      1.873      2.493
REMARK  6 active torsions:
REMARK  status: ('A' for Active; 'I' for Inactive)
REMARK    1  A    between atoms: C3_3  and  C4_4 
REMARK    2  A    between atoms: C7_8  and  C8_9 
REMARK    3  A    between atoms: C8_9  and  C9_10 
REMARK    4  A    between atoms: C9_10  and  P1_11 
REMARK    5  A    between atoms: C13_16  and  N3_17 
REMARK    6  A    between atoms: C17_22  and  O1_23 
ROOT
HETATM    1  C4  UNL     1      24.059   0.700  52.159  1.00  0.00     0.163 C 
HETATM    2  C5  UNL     1      24.668   1.852  51.402  1.00  0.00     0.157 C 
HETATM    3  N1  UNL     1      23.775   2.538  50.525  1.00  0.00    -0.371 N 
HETATM    4  C6  UNL     1      23.222   3.609  49.844  1.00  0.00     0.145 C 
HETATM    5  C7  UNL     1      21.872   3.587  49.653  1.00  0.00    -0.028 C 
HETATM    6  C10 UNL     1      21.111   4.217  50.901  1.00  0.00     0.033 C 
HETATM    7  C11 UNL     1      20.058   4.967  50.191  1.00  0.00     0.057 C 
HETATM    8  C12 UNL     1      20.723   6.054  49.354  1.00  0.00     0.110 C 
HETATM    9  N2  UNL     1      21.923   6.568  49.422  1.00  0.00    -0.080 NA
HETATM   10  C13 UNL     1      23.249   6.067  49.466  1.00  0.00     0.723 C 
HETATM   11  N4  UNL     1      23.777   4.818  49.332  1.00  0.00    -0.045 NA
HETATM   12  C15 UNL     1      20.923   3.097  51.794  1.00  0.00    -0.009 A 
HETATM   13  C16 UNL     1      19.958   2.190  51.594  1.00  0.00     0.045 A 
HETATM   14  C17 UNL     1      20.332   0.901  52.058  1.00  0.00     0.135 A 
HETATM   15  C19 UNL     1      21.670   0.943  52.601  1.00  0.00     0.141 A 
HETATM   16  C20 UNL     1      21.907   2.169  52.428  1.00  0.00     0.023 A 
HETATM   17  O2  UNL     1      21.584   0.769  52.861  1.00  0.00     0.000 OA
HETATM   18  C21 UNL     1      21.166   0.710  54.305  1.00  0.00     0.000 C 
HETATM   19  C22 UNL     1      22.153   3.495  52.237  1.00  0.00     0.015 A 
HETATM   20  O3  UNL     1      23.078   1.052  53.158  1.00  0.00    -0.362 OA
HETATM   21  H9  UNL     1      23.282   1.674  50.121  1.00  0.00     0.161 HD
ENDROOT
BRANCH   5  22
HETATM   22  C8  UNL     1      20.969   3.120  48.570  1.00  0.00     0.042 C 
BRANCH  22  23
HETATM   23  C9  UNL     1      21.864   2.688  47.395  1.00  0.00     0.033 C 
BRANCH  23  24
HETATM   24  P1  UNL     1      21.700   3.976  46.060  1.00  0.00    -0.141 P 
HETATM   25  H14 UNL     1      20.732   3.515  45.059  1.00  0.00     0.054 HD
HETATM   26  H15 UNL     1      23.006   4.197  45.450  1.00  0.00     0.054 HD
ENDBRANCH  23  24
ENDBRANCH  22  23
ENDBRANCH   5  22
BRANCH  10  27
HETATM   27  N3  UNL     1      24.255   7.093  49.703  1.00  0.00    -0.227 N 
HETATM   28  C14 UNL     1      23.955   8.109  50.705  1.00  0.00     0.165 C 
HETATM   29  H20 UNL     1      25.161   7.061  49.146  1.00  0.00     0.177 HD
ENDBRANCH  10  27
BRANCH   1  30
HETATM   30  C3  UNL     1      25.079  -0.133  52.739  1.00  0.00     0.002 C 
HETATM   31  C2  UNL     1      26.353  -0.274  52.421  1.00  0.00    -0.032 C 
HETATM   32  C1  UNL     1      27.065  -1.257  53.291  1.00  0.00     0.036 C 
ENDBRANCH   1  30
BRANCH  14  33
HETATM   33  O1  UNL     1      19.769  -0.418  52.136  1.00  0.00    -0.378 OA
HETATM   34  C18 UNL     1      18.333  -0.442  52.192  1.00  0.00     0.202 C 
ENDBRANCH  14  33
TORSDOF 6
ENDMDL
