MODEL 1
REMARK VINA RESULT:      -7.0      0.000      0.000
REMARK  7 active torsions:
REMARK  status: ('A' for Active; 'I' for Inactive)
REMARK    1  A    between atoms: C3_4  and  C4_5 
REMARK    2  A    between atoms: C4_5  and  N2_6 
REMARK    3  A    between atoms: C4_5  and  N3_7 
REMARK    4  A    between atoms: N5_15  and  C10_16 
REMARK    5  A    between atoms: C11_18  and  C12_19 
REMARK    6  A    between atoms: C13_20  and  C14_21 
REMARK    7  A    between atoms: C14_21  and  C15_22 
ROOT
HETATM    1  C15 UNL     1      24.318   3.600  49.515  1.00  0.00    -0.011 C 
HETATM    2  C16 UNL     1      23.818   3.968  50.712  1.00  0.00     0.214 C 
HETATM    3 CL1  UNL     1      23.382   4.439  52.338  1.00  0.00    -0.230 Cl
ENDROOT
BRANCH   1   4
HETATM    4  C14 UNL     1      25.811   3.433  49.547  1.00  0.00     0.054 C 
BRANCH   4   5
HETATM    5  C13 UNL     1      26.376   4.775  49.225  1.00  0.00    -0.024 C 
HETATM    6  C12 UNL     1      27.463   5.261  48.607  1.00  0.00     0.001 C 
BRANCH   6   7
HETATM    7  C11 UNL     1      27.871   6.695  48.373  1.00  0.00     0.255 A 
HETATM    8  C10 UNL     1      29.270   6.878  48.084  1.00  0.00     0.152 A 
HETATM    9  O2  UNL     1      29.036   5.622  48.219  1.00  0.00    -0.328 OA
BRANCH   8  10
HETATM   10  N5  UNL     1      30.610   7.178  47.798  1.00  0.00    -0.290 N 
HETATM   11  C2  UNL     1      31.096   8.289  48.373  1.00  0.00     0.108 A 
HETATM   12  C1  UNL     1      30.544   9.307  49.268  1.00  0.00     0.092 C 
HETATM   13  N1  UNL     1      32.368   8.348  47.944  1.00  0.00    -0.234 NA
HETATM   14  C3  UNL     1      32.573   7.278  47.142  1.00  0.00     0.104 A 
HETATM   15  C9  UNL     1      31.450   6.490  47.022  1.00  0.00     0.131 A 
BRANCH  14  16
HETATM   16  C4  UNL     1      33.877   7.012  46.473  1.00  0.00     0.376 C 
BRANCH  16  17
HETATM   17  N2  UNL     1      34.841   7.911  47.065  1.00  0.00     0.107 N 
HETATM   18  H5  UNL     1      35.727   7.380  47.207  1.00  0.00     0.316 HD
HETATM   19  H6  UNL     1      34.551   8.285  47.985  1.00  0.00     0.316 HD
ENDBRANCH  16  17
BRANCH  16  20
HETATM   20  N3  UNL     1      34.309   5.645  46.711  1.00  0.00    -0.299 N 
HETATM   21  C5  UNL     1      34.262   4.694  45.621  1.00  0.00     0.132 C 
HETATM   22  C6  UNL     1      35.144   3.506  45.978  1.00  0.00     0.040 C 
HETATM   23  C7  UNL     1      34.740   2.916  47.310  1.00  0.00     0.126 C 
HETATM   24  N4  UNL     1      34.832   3.929  48.339  1.00  0.00    -0.343 N 
HETATM   25  C8  UNL     1      34.764   5.321  48.039  1.00  0.00     0.320 C 
HETATM   26  H13 UNL     1      34.953   3.650  49.343  1.00  0.00     0.164 HD
HETATM   27  O1  UNL     1      35.067   6.227  48.838  1.00  0.00    -0.247 OA
ENDBRANCH  16  20
ENDBRANCH  14  16
ENDBRANCH   8  10
ENDBRANCH   6   7
ENDBRANCH   4   5
ENDBRANCH   1   4
TORSDOF 7
ENDMDL
MODEL 2
REMARK VINA RESULT:      -6.8      4.749      8.161
REMARK  7 active torsions:
REMARK  status: ('A' for Active; 'I' for Inactive)
REMARK    1  A    between atoms: C3_4  and  C4_5 
REMARK    2  A    between atoms: C4_5  and  N2_6 
REMARK    3  A    between atoms: C4_5  and  N3_7 
REMARK    4  A    between atoms: N5_15  and  C10_16 
REMARK    5  A    between atoms: C11_18  and  C12_19 
REMARK    6  A    between atoms: C13_20  and  C14_21 
REMARK    7  A    between atoms: C14_21  and  C15_22 
ROOT
HETATM    1  C15 UNL     1      32.266   2.676  40.237  1.00  0.00    -0.011 C 
HETATM    2  C16 UNL     1      33.001   1.655  39.750  1.00  0.00     0.214 C 
HETATM    3 CL1  UNL     1      34.110   0.485  39.074  1.00  0.00    -0.230 Cl
ENDROOT
BRANCH   1   4
HETATM    4  C14 UNL     1      32.983   3.993  40.137  1.00  0.00     0.054 C 
BRANCH   4   5
HETATM    5  C13 UNL     1      33.726   4.149  41.420  1.00  0.00    -0.024 C 
HETATM    6  C12 UNL     1      33.479   4.640  42.644  1.00  0.00     0.001 C 
BRANCH   6   7
HETATM    7  C11 UNL     1      34.387   4.711  43.848  1.00  0.00     0.255 A 
HETATM    8  C10 UNL     1      33.699   4.841  45.107  1.00  0.00     0.152 A 
HETATM    9  O2  UNL     1      32.828   4.747  44.167  1.00  0.00    -0.328 OA
BRANCH   8  10
HETATM   10  N5  UNL     1      33.141   4.973  46.387  1.00  0.00    -0.290 N 
HETATM   11  C2  UNL     1      33.764   4.303  47.370  1.00  0.00     0.108 A 
HETATM   12  C1  UNL     1      34.937   3.432  47.432  1.00  0.00     0.092 C 
HETATM   13  N1  UNL     1      33.043   4.591  48.467  1.00  0.00    -0.234 NA
HETATM   14  C3  UNL     1      32.037   5.410  48.085  1.00  0.00     0.104 A 
HETATM   15  C9  UNL     1      32.066   5.684  46.736  1.00  0.00     0.131 A 
BRANCH  14  16
HETATM   16  C4  UNL     1      31.022   5.935  49.040  1.00  0.00     0.376 C 
BRANCH  16  17
HETATM   17  N2  UNL     1      31.572   5.771  50.366  1.00  0.00     0.107 N 
HETATM   18  H5  UNL     1      30.876   5.244  50.937  1.00  0.00     0.316 HD
HETATM   19  H6  UNL     1      31.761   6.663  50.852  1.00  0.00     0.316 HD
ENDBRANCH  16  17
BRANCH  16  20
HETATM   20  N3  UNL     1      30.782   7.350  48.809  1.00  0.00    -0.299 N 
HETATM   21  C5  UNL     1      31.845   8.295  49.071  1.00  0.00     0.132 C 
HETATM   22  C6  UNL     1      31.516   9.601  48.362  1.00  0.00     0.040 C 
HETATM   23  C7  UNL     1      30.149  10.105  48.767  1.00  0.00     0.126 C 
HETATM   24  N4  UNL     1      29.151   9.106  48.454  1.00  0.00    -0.343 N 
HETATM   25  C8  UNL     1      29.477   7.724  48.326  1.00  0.00     0.320 C 
HETATM   26  H13 UNL     1      28.150   9.388  48.314  1.00  0.00     0.164 HD
HETATM   27  O1  UNL     1      28.717   6.867  47.838  1.00  0.00    -0.247 OA
ENDBRANCH  16  20
ENDBRANCH  14  16
ENDBRANCH   8  10
ENDBRANCH   6   7
ENDBRANCH   4   5
ENDBRANCH   1   4
TORSDOF 7
ENDMDL
MODEL 3
REMARK VINA RESULT:      -6.5      5.087      8.149
REMARK  7 active torsions:
REMARK  status: ('A' for Active; 'I' for Inactive)
REMARK    1  A    between atoms: C3_4  and  C4_5 
REMARK    2  A    between atoms: C4_5  and  N2_6 
REMARK    3  A    between atoms: C4_5  and  N3_7 
REMARK    4  A    between atoms: N5_15  and  C10_16 
REMARK    5  A    between atoms: C11_18  and  C12_19 
REMARK    6  A    between atoms: C13_20  and  C14_21 
REMARK    7  A    between atoms: C14_21  and  C15_22 
ROOT
HETATM    1  C15 UNL     1      32.452   1.764  40.013  1.00  0.00    -0.011 C 
HETATM    2  C16 UNL     1      33.318   1.477  39.020  1.00  0.00     0.214 C 
HETATM    3 CL1  UNL     1      34.423   1.323  37.674  1.00  0.00    -0.230 Cl
ENDROOT
BRANCH   1   4
HETATM    4  C14 UNL     1      32.039   3.209  40.011  1.00  0.00     0.054 C 
BRANCH   4   5
HETATM    5  C13 UNL     1      33.067   3.925  40.819  1.00  0.00    -0.024 C 
HETATM    6  C12 UNL     1      33.161   4.444  42.053  1.00  0.00     0.001 C 
BRANCH   6   7
HETATM    7  C11 UNL     1      34.321   5.153  42.708  1.00  0.00     0.255 A 
HETATM    8  C10 UNL     1      34.197   5.309  44.134  1.00  0.00     0.152 A 
HETATM    9  O2  UNL     1      33.178   4.658  43.699  1.00  0.00    -0.328 OA
BRANCH   8  10
HETATM   10  N5  UNL     1      34.184   5.522  45.521  1.00  0.00    -0.290 N 
HETATM   11  C2  UNL     1      34.602   4.495  46.276  1.00  0.00     0.108 A 
HETATM   12  C1  UNL     1      35.093   3.147  45.991  1.00  0.00     0.092 C 
HETATM   13  N1  UNL     1      34.489   4.949  47.535  1.00  0.00    -0.234 NA
HETATM   14  C3  UNL     1      34.014   6.213  47.467  1.00  0.00     0.104 A 
HETATM   15  C9  UNL     1      33.801   6.625  46.170  1.00  0.00     0.131 A 
BRANCH  14  16
HETATM   16  C4  UNL     1      33.752   7.040  48.677  1.00  0.00     0.376 C 
BRANCH  16  17
HETATM   17  N2  UNL     1      34.743   8.092  48.686  1.00  0.00     0.107 N 
HETATM   18  H5  UNL     1      35.398   7.907  49.475  1.00  0.00     0.316 HD
HETATM   19  H6  UNL     1      34.346   9.037  48.825  1.00  0.00     0.316 HD
ENDBRANCH  16  17
BRANCH  16  20
HETATM   20  N3  UNL     1      32.433   7.646  48.613  1.00  0.00    -0.299 N 
HETATM   21  C5  UNL     1      32.294   8.969  48.043  1.00  0.00     0.132 C 
HETATM   22  C6  UNL     1      30.829   9.192  47.692  1.00  0.00     0.040 C 
HETATM   23  C7  UNL     1      29.945   8.958  48.896  1.00  0.00     0.126 C 
HETATM   24  N4  UNL     1      30.137   7.611  49.387  1.00  0.00    -0.343 N 
HETATM   25  C8  UNL     1      31.330   6.875  49.129  1.00  0.00     0.320 C 
HETATM   26  H13 UNL     1      29.386   7.145  49.952  1.00  0.00     0.164 HD
HETATM   27  O1  UNL     1      31.454   5.651  49.322  1.00  0.00    -0.247 OA
ENDBRANCH  16  20
ENDBRANCH  14  16
ENDBRANCH   8  10
ENDBRANCH   6   7
ENDBRANCH   4   5
ENDBRANCH   1   4
TORSDOF 7
ENDMDL
MODEL 4
REMARK VINA RESULT:      -6.5      6.066     10.524
REMARK  7 active torsions:
REMARK  status: ('A' for Active; 'I' for Inactive)
REMARK    1  A    between atoms: C3_4  and  C4_5 
REMARK    2  A    between atoms: C4_5  and  N2_6 
REMARK    3  A    between atoms: C4_5  and  N3_7 
REMARK    4  A    between atoms: N5_15  and  C10_16 
REMARK    5  A    between atoms: C11_18  and  C12_19 
REMARK    6  A    between atoms: C13_20  and  C14_21 
REMARK    7  A    between atoms: C14_21  and  C15_22 
ROOT
HETATM    1  C15 UNL     1      31.246   6.562  48.469  1.00  0.00    -0.011 C 
HETATM    2  C16 UNL     1      32.545   6.207  48.548  1.00  0.00     0.214 C 
HETATM    3 CL1  UNL     1      34.161   5.542  48.583  1.00  0.00    -0.230 Cl
ENDROOT
BRANCH   1   4
HETATM    4  C14 UNL     1      30.370   5.426  48.022  1.00  0.00     0.054 C 
BRANCH   4   5
HETATM    5  C13 UNL     1      28.970   5.926  48.131  1.00  0.00    -0.024 C 
HETATM    6  C12 UNL     1      27.773   5.429  48.480  1.00  0.00     0.001 C 
BRANCH   6   7
HETATM    7  C11 UNL     1      26.429   6.114  48.528  1.00  0.00     0.255 A 
HETATM    8  C10 UNL     1      25.394   5.351  49.176  1.00  0.00     0.152 A 
HETATM    9  O2  UNL     1      26.493   4.689  49.234  1.00  0.00    -0.328 OA
BRANCH   8  10
HETATM   10  N5  UNL     1      24.307   4.700  49.778  1.00  0.00    -0.290 N 
HETATM   11  C2  UNL     1      23.667   5.391  50.735  1.00  0.00     0.108 A 
HETATM   12  C1  UNL     1      23.834   6.719  51.326  1.00  0.00     0.092 C 
HETATM   13  N1  UNL     1      22.693   4.560  51.141  1.00  0.00    -0.234 NA
HETATM   14  C3  UNL     1      22.801   3.426  50.413  1.00  0.00     0.104 A 
HETATM   15  C9  UNL     1      23.841   3.478  49.512  1.00  0.00     0.131 A 
BRANCH  14  16
HETATM   16  C4  UNL     1      21.886   2.265  50.592  1.00  0.00     0.376 C 
BRANCH  16  17
HETATM   17  N2  UNL     1      22.030   1.434  49.418  1.00  0.00     0.107 N 
HETATM   18  H5  UNL     1      22.880   1.752  48.905  1.00  0.00     0.316 HD
HETATM   19  H6  UNL     1      21.232   1.494  48.764  1.00  0.00     0.316 HD
ENDBRANCH  16  17
BRANCH  16  20
HETATM   20  N3  UNL     1      22.262   1.487  51.760  1.00  0.00    -0.299 N 
HETATM   21  C5  UNL     1      23.632   1.040  51.895  1.00  0.00     0.132 C 
HETATM   22  C6  UNL     1      23.872   0.650  53.347  1.00  0.00     0.040 C 
HETATM   23  C7  UNL     1      22.856  -0.372  53.805  1.00  0.00     0.126 C 
HETATM   24  N4  UNL     1      21.522   0.165  53.651  1.00  0.00    -0.343 N 
HETATM   25  C8  UNL     1      21.229   1.208  52.725  1.00  0.00     0.320 C 
HETATM   26  H13 UNL     1      20.733  -0.213  54.228  1.00  0.00     0.164 HD
HETATM   27  O1  UNL     1      20.167   1.859  52.715  1.00  0.00    -0.247 OA
ENDBRANCH  16  20
ENDBRANCH  14  16
ENDBRANCH   8  10
ENDBRANCH   6   7
ENDBRANCH   4   5
ENDBRANCH   1   4
TORSDOF 7
ENDMDL
MODEL 5
REMARK VINA RESULT:      -6.3      1.496      2.218
REMARK  7 active torsions:
REMARK  status: ('A' for Active; 'I' for Inactive)
REMARK    1  A    between atoms: C3_4  and  C4_5 
REMARK    2  A    between atoms: C4_5  and  N2_6 
REMARK    3  A    between atoms: C4_5  and  N3_7 
REMARK    4  A    between atoms: N5_15  and  C10_16 
REMARK    5  A    between atoms: C11_18  and  C12_19 
REMARK    6  A    between atoms: C13_20  and  C14_21 
REMARK    7  A    between atoms: C14_21  and  C15_22 
ROOT
HETATM    1  C15 UNL     1      23.775   3.774  49.276  1.00  0.00    -0.011 C 
HETATM    2  C16 UNL     1      23.070   4.284  50.306  1.00  0.00     0.214 C 
HETATM    3 CL1  UNL     1      22.346   4.931  51.760  1.00  0.00    -0.230 Cl
ENDROOT
BRANCH   1   4
HETATM    4  C14 UNL     1      25.207   3.503  49.643  1.00  0.00     0.054 C 
BRANCH   4   5
HETATM    5  C13 UNL     1      25.961   4.735  49.272  1.00  0.00    -0.024 C 
HETATM    6  C12 UNL     1      27.135   5.031  48.694  1.00  0.00     0.001 C 
BRANCH   6   7
HETATM    7  C11 UNL     1      27.742   6.381  48.396  1.00  0.00     0.255 A 
HETATM    8  C10 UNL     1      29.175   6.373  48.254  1.00  0.00     0.152 A 
HETATM    9  O2  UNL     1      28.773   5.170  48.461  1.00  0.00    -0.328 OA
BRANCH   8  10
HETATM   10  N5  UNL     1      30.564   6.488  48.099  1.00  0.00    -0.290 N 
HETATM   11  C2  UNL     1      31.121   7.596  48.613  1.00  0.00     0.108 A 
HETATM   12  C1  UNL     1      30.607   8.763  49.330  1.00  0.00     0.092 C 
HETATM   13  N1  UNL     1      32.428   7.464  48.333  1.00  0.00    -0.234 NA
HETATM   14  C3  UNL     1      32.582   6.294  47.673  1.00  0.00     0.104 A 
HETATM   15  C9  UNL     1      31.390   5.627  47.500  1.00  0.00     0.131 A 
BRANCH  14  16
HETATM   16  C4  UNL     1      33.907   5.811  47.192  1.00  0.00     0.376 C 
BRANCH  16  17
HETATM   17  N2  UNL     1      34.086   4.482  47.729  1.00  0.00     0.107 N 
HETATM   18  H5  UNL     1      34.505   3.889  46.981  1.00  0.00     0.316 HD
HETATM   19  H6  UNL     1      33.205   4.030  48.027  1.00  0.00     0.316 HD
ENDBRANCH  16  17
BRANCH  16  20
HETATM   20  N3  UNL     1      33.931   5.733  45.741  1.00  0.00    -0.299 N 
HETATM   21  C5  UNL     1      33.634   4.470  45.100  1.00  0.00     0.132 C 
HETATM   22  C6  UNL     1      33.298   4.736  43.640  1.00  0.00     0.040 C 
HETATM   23  C7  UNL     1      34.408   5.508  42.963  1.00  0.00     0.126 C 
HETATM   24  N4  UNL     1      34.624   6.758  43.658  1.00  0.00    -0.343 N 
HETATM   25  C8  UNL     1      34.255   6.940  45.023  1.00  0.00     0.320 C 
HETATM   26  H13 UNL     1      35.065   7.569  43.159  1.00  0.00     0.164 HD
HETATM   27  O1  UNL     1      34.202   8.045  45.595  1.00  0.00    -0.247 OA
ENDBRANCH  16  20
ENDBRANCH  14  16
ENDBRANCH   8  10
ENDBRANCH   6   7
ENDBRANCH   4   5
ENDBRANCH   1   4
TORSDOF 7
ENDMDL
MODEL 6
REMARK VINA RESULT:      -6.3      3.601      5.812
REMARK  7 active torsions:
REMARK  status: ('A' for Active; 'I' for Inactive)
REMARK    1  A    between atoms: C3_4  and  C4_5 
REMARK    2  A    between atoms: C4_5  and  N2_6 
REMARK    3  A    between atoms: C4_5  and  N3_7 
REMARK    4  A    between atoms: N5_15  and  C10_16 
REMARK    5  A    between atoms: C11_18  and  C12_19 
REMARK    6  A    between atoms: C13_20  and  C14_21 
REMARK    7  A    between atoms: C14_21  and  C15_22 
ROOT
HETATM    1  C15 UNL     1      24.246   2.058  52.985  1.00  0.00    -0.011 C 
HETATM    2  C16 UNL     1      25.354   1.418  52.561  1.00  0.00     0.214 C 
HETATM    3 CL1  UNL     1      26.661   0.499  51.851  1.00  0.00    -0.230 Cl
ENDROOT
BRANCH   1   4
HETATM    4  C14 UNL     1      23.045   1.740  52.139  1.00  0.00     0.054 C 
BRANCH   4   5
HETATM    5  C13 UNL     1      23.244   2.477  50.858  1.00  0.00    -0.024 C 
HETATM    6  C12 UNL     1      23.337   3.756  50.465  1.00  0.00     0.001 C 
BRANCH   6   7
HETATM    7  C11 UNL     1      23.546   4.319  49.080  1.00  0.00     0.255 A 
HETATM    8  C10 UNL     1      24.389   5.486  49.031  1.00  0.00     0.152 A 
HETATM    9  O2  UNL     1      24.321   5.075  50.247  1.00  0.00    -0.328 OA
BRANCH   8  10
HETATM   10  N5  UNL     1      25.188   6.626  48.861  1.00  0.00    -0.290 N 
HETATM   11  C2  UNL     1      24.850   7.432  47.843  1.00  0.00     0.108 A 
HETATM   12  C1  UNL     1      23.801   7.411  46.824  1.00  0.00     0.092 C 
HETATM   13  N1  UNL     1      25.756   8.423  47.897  1.00  0.00    -0.234 NA
HETATM   14  C3  UNL     1      26.580   8.159  48.936  1.00  0.00     0.104 A 
HETATM   15  C9  UNL     1      26.244   6.996  49.591  1.00  0.00     0.131 A 
BRANCH  14  16
HETATM   16  C4  UNL     1      27.720   9.044  49.303  1.00  0.00     0.376 C 
BRANCH  16  17
HETATM   17  N2  UNL     1      27.673   9.214  50.737  1.00  0.00     0.107 N 
HETATM   18  H5  UNL     1      26.864   8.664  51.097  1.00  0.00     0.316 HD
HETATM   19  H6  UNL     1      27.540  10.195  51.036  1.00  0.00     0.316 HD
ENDBRANCH  16  17
BRANCH  16  20
HETATM   20  N3  UNL     1      28.987   8.426  48.949  1.00  0.00    -0.299 N 
HETATM   21  C5  UNL     1      28.981   7.123  48.320  1.00  0.00     0.132 C 
HETATM   22  C6  UNL     1      30.338   6.894  47.670  1.00  0.00     0.040 C 
HETATM   23  C7  UNL     1      31.454   7.074  48.674  1.00  0.00     0.126 C 
HETATM   24  N4  UNL     1      31.393   8.404  49.237  1.00  0.00    -0.343 N 
HETATM   25  C8  UNL     1      30.187   9.164  49.254  1.00  0.00     0.320 C 
HETATM   26  H13 UNL     1      32.252   8.841  49.651  1.00  0.00     0.164 HD
HETATM   27  O1  UNL     1      30.128  10.382  49.508  1.00  0.00    -0.247 OA
ENDBRANCH  16  20
ENDBRANCH  14  16
ENDBRANCH   8  10
ENDBRANCH   6   7
ENDBRANCH   4   5
ENDBRANCH   1   4
TORSDOF 7
ENDMDL
MODEL 7
REMARK VINA RESULT:      -6.2      4.057      7.766
REMARK  7 active torsions:
REMARK  status: ('A' for Active; 'I' for Inactive)
REMARK    1  A    between atoms: C3_4  and  C4_5 
REMARK    2  A    between atoms: C4_5  and  N2_6 
REMARK    3  A    between atoms: C4_5  and  N3_7 
REMARK    4  A    between atoms: N5_15  and  C10_16 
REMARK    5  A    between atoms: C11_18  and  C12_19 
REMARK    6  A    between atoms: C13_20  and  C14_21 
REMARK    7  A    between atoms: C14_21  and  C15_22 
ROOT
HETATM    1  C15 UNL     1      35.112   3.323  46.296  1.00  0.00    -0.011 C 
HETATM    2  C16 UNL     1      34.304   3.940  45.409  1.00  0.00     0.214 C 
HETATM    3 CL1  UNL     1      33.133   4.800  44.437  1.00  0.00    -0.230 Cl
ENDROOT
BRANCH   1   4
HETATM    4  C14 UNL     1      34.629   3.478  47.711  1.00  0.00     0.054 C 
BRANCH   4   5
HETATM    5  C13 UNL     1      34.695   4.939  48.004  1.00  0.00    -0.024 C 
HETATM    6  C12 UNL     1      33.835   5.914  48.335  1.00  0.00     0.001 C 
BRANCH   6   7
HETATM    7  C11 UNL     1      34.101   7.377  48.599  1.00  0.00     0.255 A 
HETATM    8  C10 UNL     1      32.947   8.227  48.462  1.00  0.00     0.152 A 
HETATM    9  O2  UNL     1      32.591   7.009  48.258  1.00  0.00    -0.328 OA
BRANCH   8  10
HETATM   10  N5  UNL     1      31.898   9.152  48.354  1.00  0.00    -0.290 N 
HETATM   11  C2  UNL     1      32.105  10.176  47.512  1.00  0.00     0.108 A 
HETATM   12  C1  UNL     1      33.207  10.578  46.638  1.00  0.00     0.092 C 
HETATM   13  N1  UNL     1      30.975  10.899  47.596  1.00  0.00    -0.234 NA
HETATM   14  C3  UNL     1      30.161  10.274  48.475  1.00  0.00     0.104 A 
HETATM   15  C9  UNL     1      30.726   9.130  48.992  1.00  0.00     0.131 A 
BRANCH  14  16
HETATM   16  C4  UNL     1      28.811  10.794  48.830  1.00  0.00     0.376 C 
BRANCH  16  17
HETATM   17  N2  UNL     1      28.605  11.990  48.047  1.00  0.00     0.107 N 
HETATM   18  H5  UNL     1      27.903  12.580  48.543  1.00  0.00     0.316 HD
HETATM   19  H6  UNL     1      28.241  11.808  47.096  1.00  0.00     0.316 HD
ENDBRANCH  16  17
BRANCH  16  20
HETATM   20  N3  UNL     1      27.780   9.829  48.485  1.00  0.00    -0.299 N 
HETATM   21  C5  UNL     1      27.627   9.430  47.103  1.00  0.00     0.132 C 
HETATM   22  C6  UNL     1      26.822   8.139  47.059  1.00  0.00     0.040 C 
HETATM   23  C7  UNL     1      25.508   8.298  47.790  1.00  0.00     0.126 C 
HETATM   24  N4  UNL     1      25.757   8.681  49.162  1.00  0.00    -0.343 N 
HETATM   25  C8  UNL     1      26.965   9.325  49.561  1.00  0.00     0.320 C 
HETATM   26  H13 UNL     1      25.039   8.487  49.902  1.00  0.00     0.164 HD
HETATM   27  O1  UNL     1      27.329   9.464  50.744  1.00  0.00    -0.247 OA
ENDBRANCH  16  20
ENDBRANCH  14  16
ENDBRANCH   8  10
ENDBRANCH   6   7
ENDBRANCH   4   5
ENDBRANCH   1   4
TORSDOF 7
ENDMDL
MODEL 8
REMARK VINA RESULT:      -6.2     22.658     23.934
REMARK  7 active torsions:
REMARK  status: ('A' for Active; 'I' for Inactive)
REMARK    1  A    between atoms: C3_4  and  C4_5 
REMARK    2  A    between atoms: C4_5  and  N2_6 
REMARK    3  A    between atoms: C4_5  and  N3_7 
REMARK    4  A    between atoms: N5_15  and  C10_16 
REMARK    5  A    between atoms: C11_18  and  C12_19 
REMARK    6  A    between atoms: C13_20  and  C14_21 
REMARK    7  A    between atoms: C14_21  and  C15_22 
ROOT
HETATM    1  C15 UNL     1      35.669   5.543  73.591  1.00  0.00    -0.011 C 
HETATM    2  C16 UNL     1      36.501   5.615  72.532  1.00  0.00     0.214 C 
HETATM    3 CL1  UNL     1      37.511   5.499  71.109  1.00  0.00    -0.230 Cl
ENDROOT
BRANCH   1   4
HETATM    4  C14 UNL     1      34.948   4.227  73.662  1.00  0.00     0.054 C 
BRANCH   4   5
HETATM    5  C13 UNL     1      35.993   3.180  73.472  1.00  0.00    -0.024 C 
HETATM    6  C12 UNL     1      36.272   2.221  72.577  1.00  0.00     0.001 C 
BRANCH   6   7
HETATM    7  C11 UNL     1      37.412   1.231  72.558  1.00  0.00     0.255 A 
HETATM    8  C10 UNL     1      37.967   0.987  71.252  1.00  0.00     0.152 A 
HETATM    9  O2  UNL     1      37.041   1.872  71.149  1.00  0.00    -0.328 OA
BRANCH   8  10
HETATM   10  N5  UNL     1      38.584   0.666  70.034  1.00  0.00    -0.290 N 
HETATM   11  C2  UNL     1      39.649   1.412  69.702  1.00  0.00     0.108 A 
HETATM   12  C1  UNL     1      40.357   2.526  70.332  1.00  0.00     0.092 C 
HETATM   13  N1  UNL     1      40.041   0.912  68.517  1.00  0.00    -0.234 NA
HETATM   14  C3  UNL     1      39.196  -0.097  68.207  1.00  0.00     0.104 A 
HETATM   15  C9  UNL     1      38.232  -0.290  69.171  1.00  0.00     0.131 A 
BRANCH  14  16
HETATM   16  C4  UNL     1      39.317  -0.890  66.952  1.00  0.00     0.376 C 
BRANCH  16  17
HETATM   17  N2  UNL     1      40.458  -0.367  66.236  1.00  0.00     0.107 N 
HETATM   18  H5  UNL     1      40.369   0.672  66.209  1.00  0.00     0.316 HD
HETATM   19  H6  UNL     1      40.525  -0.699  65.259  1.00  0.00     0.316 HD
ENDBRANCH  16  17
BRANCH  16  20
HETATM   20  N3  UNL     1      39.558  -2.292  67.248  1.00  0.00    -0.299 N 
HETATM   21  C5  UNL     1      40.795  -2.670  67.896  1.00  0.00     0.132 C 
HETATM   22  C6  UNL     1      40.628  -4.066  68.480  1.00  0.00     0.040 C 
HETATM   23  C7  UNL     1      40.181  -5.044  67.417  1.00  0.00     0.126 C 
HETATM   24  N4  UNL     1      38.933  -4.596  66.838  1.00  0.00    -0.343 N 
HETATM   25  C8  UNL     1      38.531  -3.230  66.872  1.00  0.00     0.320 C 
HETATM   26  H13 UNL     1      38.292  -5.284  66.373  1.00  0.00     0.164 HD
HETATM   27  O1  UNL     1      37.382  -2.829  66.602  1.00  0.00    -0.247 OA
ENDBRANCH  16  20
ENDBRANCH  14  16
ENDBRANCH   8  10
ENDBRANCH   6   7
ENDBRANCH   4   5
ENDBRANCH   1   4
TORSDOF 7
ENDMDL
MODEL 9
REMARK VINA RESULT:      -6.2      6.525      7.986
REMARK  7 active torsions:
REMARK  status: ('A' for Active; 'I' for Inactive)
REMARK    1  A    between atoms: C3_4  and  C4_5 
REMARK    2  A    between atoms: C4_5  and  N2_6 
REMARK    3  A    between atoms: C4_5  and  N3_7 
REMARK    4  A    between atoms: N5_15  and  C10_16 
REMARK    5  A    between atoms: C11_18  and  C12_19 
REMARK    6  A    between atoms: C13_20  and  C14_21 
REMARK    7  A    between atoms: C14_21  and  C15_22 
ROOT
HETATM    1  C15 UNL     1      25.178   0.310  53.703  1.00  0.00    -0.011 C 
HETATM    2  C16 UNL     1      25.954  -0.660  53.178  1.00  0.00     0.214 C 
HETATM    3 CL1  UNL     1      26.786  -1.965  52.365  1.00  0.00    -0.230 Cl
ENDROOT
BRANCH   1   4
HETATM    4  C14 UNL     1      23.821   0.365  53.059  1.00  0.00     0.054 C 
BRANCH   4   5
HETATM    5  C13 UNL     1      23.978   1.229  51.854  1.00  0.00    -0.024 C 
HETATM    6  C12 UNL     1      23.535   2.426  51.439  1.00  0.00     0.001 C 
BRANCH   6   7
HETATM    7  C11 UNL     1      23.813   3.154  50.146  1.00  0.00     0.255 A 
HETATM    8  C10 UNL     1      24.086   4.559  50.300  1.00  0.00     0.152 A 
HETATM    9  O2  UNL     1      23.909   4.043  51.463  1.00  0.00    -0.328 OA
BRANCH   8  10
HETATM   10  N5  UNL     1      24.359   5.935  50.326  1.00  0.00    -0.290 N 
HETATM   11  C2  UNL     1      23.315   6.735  50.593  1.00  0.00     0.108 A 
HETATM   12  C1  UNL     1      21.898   6.510  50.878  1.00  0.00     0.092 C 
HETATM   13  N1  UNL     1      23.836   7.973  50.554  1.00  0.00    -0.234 NA
HETATM   14  C3  UNL     1      25.152   7.849  50.270  1.00  0.00     0.104 A 
HETATM   15  C9  UNL     1      25.533   6.535  50.114  1.00  0.00     0.131 A 
BRANCH  14  16
HETATM   16  C4  UNL     1      26.061   9.021  50.139  1.00  0.00     0.376 C 
BRANCH  16  17
HETATM   17  N2  UNL     1      27.345   8.614  50.661  1.00  0.00     0.107 N 
HETATM   18  H5  UNL     1      27.615   7.726  50.186  1.00  0.00     0.316 HD
HETATM   19  H6  UNL     1      27.343   8.434  51.679  1.00  0.00     0.316 HD
ENDBRANCH  16  17
BRANCH  16  20
HETATM   20  N3  UNL     1      26.223   9.395  48.745  1.00  0.00    -0.299 N 
HETATM   21  C5  UNL     1      25.468   8.686  47.734  1.00  0.00     0.132 C 
HETATM   22  C6  UNL     1      25.468   9.516  46.459  1.00  0.00     0.040 C 
HETATM   23  C7  UNL     1      26.881   9.848  46.032  1.00  0.00     0.126 C 
HETATM   24  N4  UNL     1      27.552  10.567  47.092  1.00  0.00    -0.343 N 
HETATM   25  C8  UNL     1      27.142  10.466  48.454  1.00  0.00     0.320 C 
HETATM   26  H13 UNL     1      28.369  11.187  46.872  1.00  0.00     0.164 HD
HETATM   27  O1  UNL     1      27.526  11.229  49.361  1.00  0.00    -0.247 OA
ENDBRANCH  16  20
ENDBRANCH  14  16
ENDBRANCH   8  10
ENDBRANCH   6   7
ENDBRANCH   4   5
ENDBRANCH   1   4
TORSDOF 7
ENDMDL
