MODEL 1
REMARK VINA RESULT:      -9.6      0.000      0.000
REMARK  5 active torsions:
REMARK  status: ('A' for Active; 'I' for Inactive)
REMARK    1  A    between atoms: C5_5  and  N1_6 
REMARK       I    between atoms: N1_6  and  C6_7 
REMARK    2  A    between atoms: C6_7  and  C7_9 
REMARK    3  A    between atoms: C13_16  and  N2_17 
REMARK    4  A    between atoms: N2_17  and  C14_18 
REMARK    5  A    between atoms: C17_22  and  C18_23 
ROOT
HETATM    1  C1  UNL     1      19.798  -0.515  53.462  1.00  0.00     0.050 C 
HETATM    2  C2  UNL     1      21.277  -0.420  53.708  1.00  0.00    -0.035 A 
HETATM    3  C3  UNL     1      21.842  -1.285  54.611  1.00  0.00     0.011 A 
HETATM    4  C4  UNL     1      23.186  -1.248  54.879  1.00  0.00     0.030 A 
HETATM    5  C5  UNL     1      23.955  -0.322  54.220  1.00  0.00     0.037 A 
HETATM    6  C12 UNL     1      23.345   0.514  53.333  1.00  0.00     0.060 A 
HETATM    7  C13 UNL     1      22.006   0.537  53.012  1.00  0.00     0.057 A 
ENDROOT
BRANCH   7   8
HETATM    8  N2  UNL     1      21.382   1.408  52.090  1.00  0.00    -0.188 N 
HETATM    9  H12 UNL     1      20.554   1.936  52.469  1.00  0.00     0.184 HD
BRANCH   8  10
HETATM   10  C14 UNL     1      21.740   1.644  50.741  1.00  0.00     0.727 A 
HETATM   11  N3  UNL     1      21.202   1.089  49.649  1.00  0.00    -0.075 NA
HETATM   12  C15 UNL     1      21.571   1.340  48.385  1.00  0.00     0.139 A 
HETATM   13  C16 UNL     1      22.583   2.240  48.191  1.00  0.00     0.053 A 
HETATM   14  C17 UNL     1      23.168   2.834  49.263  1.00  0.00     0.089 A 
HETATM   15  N5  UNL     1      22.723   2.511  50.467  1.00  0.00    -0.062 NA
BRANCH  14  16
HETATM   16  C18 UNL     1      24.247   3.800  49.165  1.00  0.00     0.011 A 
HETATM   17  C19 UNL     1      25.543   3.397  49.415  1.00  0.00     0.017 A 
HETATM   18  C20 UNL     1      26.590   4.320  49.323  1.00  0.00     0.020 A 
HETATM   19  C21 UNL     1      26.319   5.622  48.984  1.00  0.00     0.116 A 
HETATM   20  N4  UNL     1      25.073   6.016  48.743  1.00  0.00    -0.272 NA
HETATM   21  C22 UNL     1      24.063   5.127  48.831  1.00  0.00     0.130 A 
ENDBRANCH  14  16
ENDBRANCH   8  10
ENDBRANCH   7   8
BRANCH   5  22
HETATM   22  N1  UNL     1      25.340  -0.285  54.498  1.00  0.00    -0.323 N 
HETATM   23  C6  UNL     1      26.213  -0.434  53.383  1.00  0.00     0.254 C 
HETATM   24  O1  UNL     1      25.651  -0.582  52.268  1.00  0.00    -0.268 OA
HETATM   25  H6  UNL     1      25.745  -0.158  55.461  1.00  0.00     0.169 HD
BRANCH  23  26
HETATM   26  C7  UNL     1      27.658  -0.411  53.565  1.00  0.00     0.032 A 
HETATM   27  C8  UNL     1      28.440  -1.379  53.113  1.00  0.00     0.014 A 
HETATM   28  C9  UNL     1      29.811  -1.025  53.471  1.00  0.00    -0.001 A 
HETATM   29  C10 UNL     1      29.840   0.140  54.130  1.00  0.00    -0.002 A 
HETATM   30  C11 UNL     1      28.428   0.649  54.251  1.00  0.00     0.143 A 
HETATM   31 CL1  UNL     1      28.252   2.149  53.310  1.00  0.00    -0.116 Cl
ENDBRANCH  23  26
ENDBRANCH   5  22
TORSDOF 5
ENDMDL
MODEL 2
REMARK VINA RESULT:      -9.4      2.815      6.649
REMARK  5 active torsions:
REMARK  status: ('A' for Active; 'I' for Inactive)
REMARK    1  A    between atoms: C5_5  and  N1_6 
REMARK       I    between atoms: N1_6  and  C6_7 
REMARK    2  A    between atoms: C6_7  and  C7_9 
REMARK    3  A    between atoms: C13_16  and  N2_17 
REMARK    4  A    between atoms: N2_17  and  C14_18 
REMARK    5  A    between atoms: C17_22  and  C18_23 
ROOT
HETATM    1  C1  UNL     1      20.119   3.852  51.873  1.00  0.00     0.050 C 
HETATM    2  C2  UNL     1      21.539   4.183  51.515  1.00  0.00    -0.035 A 
HETATM    3  C3  UNL     1      21.899   5.506  51.439  1.00  0.00     0.011 A 
HETATM    4  C4  UNL     1      23.180   5.872  51.117  1.00  0.00     0.030 A 
HETATM    5  C5  UNL     1      24.097   4.881  50.870  1.00  0.00     0.037 A 
HETATM    6  C12 UNL     1      23.689   3.583  50.959  1.00  0.00     0.060 A 
HETATM    7  C13 UNL     1      22.424   3.139  51.276  1.00  0.00     0.057 A 
ENDROOT
BRANCH   7   8
HETATM    8  N2  UNL     1      22.010   1.791  51.365  1.00  0.00    -0.188 N 
HETATM    9  H12 UNL     1      21.326   1.487  50.626  1.00  0.00     0.184 HD
BRANCH   8  10
HETATM   10  C14 UNL     1      22.405   0.823  52.320  1.00  0.00     0.727 A 
HETATM   11  N3  UNL     1      21.616  -0.016  53.000  1.00  0.00    -0.075 NA
HETATM   12  C15 UNL     1      22.031  -0.920  53.898  1.00  0.00     0.139 A 
HETATM   13  C16 UNL     1      23.374  -0.994  54.144  1.00  0.00     0.053 A 
HETATM   14  C17 UNL     1      24.224  -0.166  53.484  1.00  0.00     0.089 A 
HETATM   15  N5  UNL     1      23.704   0.689  52.617  1.00  0.00    -0.062 NA
BRANCH  14  16
HETATM   16  C18 UNL     1      25.664  -0.164  53.672  1.00  0.00     0.011 A 
HETATM   17  C19 UNL     1      26.447  -1.009  52.914  1.00  0.00     0.017 A 
HETATM   18  C20 UNL     1      27.836  -1.014  53.087  1.00  0.00     0.020 A 
HETATM   19  C21 UNL     1      28.407  -0.177  54.012  1.00  0.00     0.116 A 
HETATM   20  N4  UNL     1      27.657   0.639  54.745  1.00  0.00    -0.272 NA
HETATM   21  C22 UNL     1      26.319   0.645  54.578  1.00  0.00     0.130 A 
ENDBRANCH  14  16
ENDBRANCH   8  10
ENDBRANCH   7   8
BRANCH   5  22
HETATM   22  N1  UNL     1      25.417   5.261  50.538  1.00  0.00    -0.323 N 
HETATM   23  C6  UNL     1      25.648   5.622  49.180  1.00  0.00     0.254 C 
HETATM   24  O1  UNL     1      24.646   5.563  48.423  1.00  0.00    -0.268 OA
HETATM   25  H6  UNL     1      26.214   5.288  51.225  1.00  0.00     0.169 HD
BRANCH  23  26
HETATM   26  C7  UNL     1      26.974   6.029  48.737  1.00  0.00     0.032 A 
HETATM   27  C8  UNL     1      27.933   5.151  48.487  1.00  0.00     0.014 A 
HETATM   28  C9  UNL     1      29.110   5.909  48.069  1.00  0.00    -0.001 A 
HETATM   29  C10 UNL     1      28.851   7.222  48.074  1.00  0.00    -0.002 A 
HETATM   30  C11 UNL     1      27.424   7.420  48.512  1.00  0.00     0.143 A 
HETATM   31 CL1  UNL     1      26.474   8.092  47.166  1.00  0.00    -0.116 Cl
ENDBRANCH  23  26
ENDBRANCH   5  22
TORSDOF 5
ENDMDL
MODEL 3
REMARK VINA RESULT:      -9.3      2.192      3.143
REMARK  5 active torsions:
REMARK  status: ('A' for Active; 'I' for Inactive)
REMARK    1  A    between atoms: C5_5  and  N1_6 
REMARK       I    between atoms: N1_6  and  C6_7 
REMARK    2  A    between atoms: C6_7  and  C7_9 
REMARK    3  A    between atoms: C13_16  and  N2_17 
REMARK    4  A    between atoms: N2_17  and  C14_18 
REMARK    5  A    between atoms: C17_22  and  C18_23 
ROOT
HETATM    1  C1  UNL     1      20.044   2.771  50.804  1.00  0.00     0.050 C 
HETATM    2  C2  UNL     1      21.280   2.264  51.489  1.00  0.00    -0.035 A 
HETATM    3  C3  UNL     1      21.531   0.915  51.462  1.00  0.00     0.011 A 
HETATM    4  C4  UNL     1      22.643   0.391  52.069  1.00  0.00     0.030 A 
HETATM    5  C5  UNL     1      23.502   1.251  52.707  1.00  0.00     0.037 A 
HETATM    6  C12 UNL     1      23.207   2.582  52.704  1.00  0.00     0.060 A 
HETATM    7  C13 UNL     1      22.114   3.181  52.119  1.00  0.00     0.057 A 
ENDROOT
BRANCH   7   8
HETATM    8  N2  UNL     1      21.816   4.562  52.122  1.00  0.00    -0.188 N 
HETATM    9  H12 UNL     1      21.072   4.854  52.806  1.00  0.00     0.184 HD
BRANCH   8  10
HETATM   10  C14 UNL     1      22.396   5.576  51.322  1.00  0.00     0.727 A 
HETATM   11  N3  UNL     1      21.879   6.775  51.030  1.00  0.00    -0.075 NA
HETATM   12  C15 UNL     1      22.461   7.710  50.266  1.00  0.00     0.139 A 
HETATM   13  C16 UNL     1      23.688   7.417  49.737  1.00  0.00     0.053 A 
HETATM   14  C17 UNL     1      24.262   6.214  49.998  1.00  0.00     0.089 A 
HETATM   15  N5  UNL     1      23.596   5.367  50.767  1.00  0.00    -0.062 NA
BRANCH  14  16
HETATM   16  C18 UNL     1      25.558   5.806  49.487  1.00  0.00     0.011 A 
HETATM   17  C19 UNL     1      26.358   6.732  48.850  1.00  0.00     0.017 A 
HETATM   18  C20 UNL     1      27.608   6.349  48.354  1.00  0.00     0.020 A 
HETATM   19  C21 UNL     1      28.030   5.052  48.505  1.00  0.00     0.116 A 
HETATM   20  N4  UNL     1      27.264   4.156  49.117  1.00  0.00    -0.272 NA
HETATM   21  C22 UNL     1      26.058   4.524  49.596  1.00  0.00     0.130 A 
ENDBRANCH  14  16
ENDBRANCH   8  10
ENDBRANCH   7   8
BRANCH   5  22
HETATM   22  N1  UNL     1      24.647   0.708  53.332  1.00  0.00    -0.323 N 
HETATM   23  C6  UNL     1      25.874   0.828  52.619  1.00  0.00     0.254 C 
HETATM   24  O1  UNL     1      25.801   1.407  51.506  1.00  0.00    -0.268 OA
HETATM   25  H6  UNL     1      24.637   0.233  54.272  1.00  0.00     0.169 HD
BRANCH  23  26
HETATM   26  C7  UNL     1      27.111   0.301  53.178  1.00  0.00     0.032 A 
HETATM   27  C8  UNL     1      27.621  -0.857  52.788  1.00  0.00     0.014 A 
HETATM   28  C9  UNL     1      28.849  -1.063  53.553  1.00  0.00    -0.001 A 
HETATM   29  C10 UNL     1      29.061  -0.038  54.387  1.00  0.00    -0.002 A 
HETATM   30  C11 UNL     1      27.939   0.951  54.216  1.00  0.00     0.143 A 
HETATM   31 CL1  UNL     1      28.577   2.467  53.537  1.00  0.00    -0.116 Cl
ENDBRANCH  23  26
ENDBRANCH   5  22
TORSDOF 5
ENDMDL
MODEL 4
REMARK VINA RESULT:      -9.3      1.263      1.588
REMARK  5 active torsions:
REMARK  status: ('A' for Active; 'I' for Inactive)
REMARK    1  A    between atoms: C5_5  and  N1_6 
REMARK       I    between atoms: N1_6  and  C6_7 
REMARK    2  A    between atoms: C6_7  and  C7_9 
REMARK    3  A    between atoms: C13_16  and  N2_17 
REMARK    4  A    between atoms: N2_17  and  C14_18 
REMARK    5  A    between atoms: C17_22  and  C18_23 
ROOT
HETATM    1  C1  UNL     1      19.691  -0.344  53.437  1.00  0.00     0.050 C 
HETATM    2  C2  UNL     1      21.175  -0.387  53.662  1.00  0.00    -0.035 A 
HETATM    3  C3  UNL     1      21.664  -1.249  54.611  1.00  0.00     0.011 A 
HETATM    4  C4  UNL     1      23.009  -1.335  54.861  1.00  0.00     0.030 A 
HETATM    5  C5  UNL     1      23.858  -0.534  54.138  1.00  0.00     0.037 A 
HETATM    6  C12 UNL     1      23.322   0.304  53.207  1.00  0.00     0.060 A 
HETATM    7  C13 UNL     1      21.986   0.446  52.900  1.00  0.00     0.057 A 
ENDROOT
BRANCH   7   8
HETATM    8  N2  UNL     1      21.440   1.318  51.932  1.00  0.00    -0.188 N 
HETATM    9  H12 UNL     1      20.706   0.889  51.312  1.00  0.00     0.184 HD
BRANCH   8  10
HETATM   10  C14 UNL     1      21.764   2.678  51.708  1.00  0.00     0.727 A 
HETATM   11  N3  UNL     1      21.031   3.751  52.027  1.00  0.00    -0.075 NA
HETATM   12  C15 UNL     1      21.375   5.026  51.796  1.00  0.00     0.139 A 
HETATM   13  C16 UNL     1      22.577   5.254  51.183  1.00  0.00     0.053 A 
HETATM   14  C17 UNL     1      23.363   4.202  50.836  1.00  0.00     0.089 A 
HETATM   15  N5  UNL     1      22.923   2.985  51.113  1.00  0.00    -0.062 NA
BRANCH  14  16
HETATM   16  C18 UNL     1      24.653   4.336  50.183  1.00  0.00     0.011 A 
HETATM   17  C19 UNL     1      25.481   3.237  50.088  1.00  0.00     0.017 A 
HETATM   18  C20 UNL     1      26.726   3.355  49.459  1.00  0.00     0.020 A 
HETATM   19  C21 UNL     1      27.113   4.566  48.943  1.00  0.00     0.116 A 
HETATM   20  N4  UNL     1      26.320   5.628  49.033  1.00  0.00    -0.272 NA
HETATM   21  C22 UNL     1      25.120   5.514  49.638  1.00  0.00     0.130 A 
ENDBRANCH  14  16
ENDBRANCH   8  10
ENDBRANCH   7   8
BRANCH   5  22
HETATM   22  N1  UNL     1      25.244  -0.624  54.399  1.00  0.00    -0.323 N 
HETATM   23  C6  UNL     1      26.112  -0.140  53.379  1.00  0.00     0.254 C 
HETATM   24  O1  UNL     1      25.546   0.317  52.354  1.00  0.00    -0.268 OA
HETATM   25  H6  UNL     1      25.653  -1.020  55.284  1.00  0.00     0.169 HD
BRANCH  23  26
HETATM   26  C7  UNL     1      27.558  -0.188  53.552  1.00  0.00     0.032 A 
HETATM   27  C8  UNL     1      28.281  -1.217  53.140  1.00  0.00     0.014 A 
HETATM   28  C9  UNL     1      29.673  -0.924  53.474  1.00  0.00    -0.001 A 
HETATM   29  C10 UNL     1      29.770   0.266  54.079  1.00  0.00    -0.002 A 
HETATM   30  C11 UNL     1      28.390   0.858  54.184  1.00  0.00     0.143 A 
HETATM   31 CL1  UNL     1      28.289   2.321  53.177  1.00  0.00    -0.116 Cl
ENDBRANCH  23  26
ENDBRANCH   5  22
TORSDOF 5
ENDMDL
MODEL 5
REMARK VINA RESULT:      -9.1      1.819      5.457
REMARK  5 active torsions:
REMARK  status: ('A' for Active; 'I' for Inactive)
REMARK    1  A    between atoms: C5_5  and  N1_6 
REMARK       I    between atoms: N1_6  and  C6_7 
REMARK    2  A    between atoms: C6_7  and  C7_9 
REMARK    3  A    between atoms: C13_16  and  N2_17 
REMARK    4  A    between atoms: N2_17  and  C14_18 
REMARK    5  A    between atoms: C17_22  and  C18_23 
ROOT
HETATM    1  C1  UNL     1      23.226   6.045  48.449  1.00  0.00     0.050 C 
HETATM    2  C2  UNL     1      24.068   4.979  49.088  1.00  0.00    -0.035 A 
HETATM    3  C3  UNL     1      25.424   5.178  49.162  1.00  0.00     0.011 A 
HETATM    4  C4  UNL     1      26.246   4.242  49.735  1.00  0.00     0.030 A 
HETATM    5  C5  UNL     1      25.678   3.096  50.233  1.00  0.00     0.037 A 
HETATM    6  C12 UNL     1      24.327   2.946  50.135  1.00  0.00     0.060 A 
HETATM    7  C13 UNL     1      23.439   3.840  49.576  1.00  0.00     0.057 A 
ENDROOT
BRANCH   7   8
HETATM    8  N2  UNL     1      22.039   3.675  49.479  1.00  0.00    -0.188 N 
HETATM    9  H12 UNL     1      21.619   3.978  48.563  1.00  0.00     0.184 HD
BRANCH   8  10
HETATM   10  C14 UNL     1      21.156   3.160  50.459  1.00  0.00     0.727 A 
HETATM   11  N3  UNL     1      19.866   3.471  50.633  1.00  0.00    -0.075 NA
HETATM   12  C15 UNL     1      19.062   2.960  51.575  1.00  0.00     0.139 A 
HETATM   13  C16 UNL     1      19.602   2.042  52.435  1.00  0.00     0.053 A 
HETATM   14  C17 UNL     1      20.907   1.689  52.306  1.00  0.00     0.089 A 
HETATM   15  N5  UNL     1      21.608   2.258  51.338  1.00  0.00    -0.062 NA
BRANCH  14  16
HETATM   16  C18 UNL     1      21.574   0.727  53.165  1.00  0.00     0.011 A 
HETATM   17  C19 UNL     1      22.898   0.416  52.932  1.00  0.00     0.017 A 
HETATM   18  C20 UNL     1      23.550  -0.509  53.755  1.00  0.00     0.020 A 
HETATM   19  C21 UNL     1      22.866  -1.100  54.788  1.00  0.00     0.116 A 
HETATM   20  N4  UNL     1      21.592  -0.804  55.015  1.00  0.00    -0.272 NA
HETATM   21  C22 UNL     1      20.962   0.088  54.223  1.00  0.00     0.130 A 
ENDBRANCH  14  16
ENDBRANCH   8  10
ENDBRANCH   7   8
BRANCH   5  22
HETATM   22  N1  UNL     1      26.528   2.132  50.822  1.00  0.00    -0.323 N 
HETATM   23  C6  UNL     1      26.369   1.920  52.221  1.00  0.00     0.254 C 
HETATM   24  O1  UNL     1      25.485   2.617  52.780  1.00  0.00    -0.268 OA
HETATM   25  H6  UNL     1      27.251   1.581  50.292  1.00  0.00     0.169 HD
BRANCH  23  26
HETATM   26  C7  UNL     1      27.197   0.948  52.922  1.00  0.00     0.032 A 
HETATM   27  C8  UNL     1      27.395  -0.275  52.454  1.00  0.00     0.014 A 
HETATM   28  C9  UNL     1      28.265  -0.962  53.405  1.00  0.00    -0.001 A 
HETATM   29  C10 UNL     1      28.578  -0.154  54.425  1.00  0.00    -0.002 A 
HETATM   30  C11 UNL     1      27.905   1.174  54.200  1.00  0.00     0.143 A 
HETATM   31 CL1  UNL     1      29.136   2.429  53.929  1.00  0.00    -0.116 Cl
ENDBRANCH  23  26
ENDBRANCH   5  22
TORSDOF 5
ENDMDL
MODEL 6
REMARK VINA RESULT:      -9.0      2.915      8.075
REMARK  5 active torsions:
REMARK  status: ('A' for Active; 'I' for Inactive)
REMARK    1  A    between atoms: C5_5  and  N1_6 
REMARK       I    between atoms: N1_6  and  C6_7 
REMARK    2  A    between atoms: C6_7  and  C7_9 
REMARK    3  A    between atoms: C13_16  and  N2_17 
REMARK    4  A    between atoms: N2_17  and  C14_18 
REMARK    5  A    between atoms: C17_22  and  C18_23 
ROOT
HETATM    1  C1  UNL     1      27.043   4.357  49.144  1.00  0.00     0.050 C 
HETATM    2  C2  UNL     1      25.672   3.918  49.572  1.00  0.00    -0.035 A 
HETATM    3  C3  UNL     1      24.585   4.522  48.991  1.00  0.00     0.011 A 
HETATM    4  C4  UNL     1      23.309   4.165  49.340  1.00  0.00     0.030 A 
HETATM    5  C5  UNL     1      23.143   3.186  50.288  1.00  0.00     0.037 A 
HETATM    6  C12 UNL     1      24.255   2.618  50.834  1.00  0.00     0.060 A 
HETATM    7  C13 UNL     1      25.565   2.923  50.536  1.00  0.00     0.057 A 
ENDROOT
BRANCH   7   8
HETATM    8  N2  UNL     1      26.712   2.328  51.108  1.00  0.00    -0.188 N 
HETATM    9  H12 UNL     1      27.604   2.476  50.569  1.00  0.00     0.184 HD
BRANCH   8  10
HETATM   10  C14 UNL     1      26.792   1.568  52.300  1.00  0.00     0.727 A 
HETATM   11  N3  UNL     1      27.863   1.399  53.085  1.00  0.00    -0.075 NA
HETATM   12  C15 UNL     1      27.898   0.670  54.208  1.00  0.00     0.139 A 
HETATM   13  C16 UNL     1      26.743   0.043  54.589  1.00  0.00     0.053 A 
HETATM   14  C17 UNL     1      25.625   0.177  53.830  1.00  0.00     0.089 A 
HETATM   15  N5  UNL     1      25.705   0.923  52.740  1.00  0.00    -0.062 NA
BRANCH  14  16
HETATM   16  C18 UNL     1      24.352  -0.446  54.146  1.00  0.00     0.011 A 
HETATM   17  C19 UNL     1      23.314  -0.363  53.240  1.00  0.00     0.017 A 
HETATM   18  C20 UNL     1      22.084  -0.961  53.534  1.00  0.00     0.020 A 
HETATM   19  C21 UNL     1      21.919  -1.625  54.724  1.00  0.00     0.116 A 
HETATM   20  N4  UNL     1      22.915  -1.707  55.600  1.00  0.00    -0.272 NA
HETATM   21  C22 UNL     1      24.101  -1.132  55.316  1.00  0.00     0.130 A 
ENDBRANCH  14  16
ENDBRANCH   8  10
ENDBRANCH   7   8
BRANCH   5  22
HETATM   22  N1  UNL     1      21.825   2.820  50.646  1.00  0.00    -0.323 N 
HETATM   23  C6  UNL     1      21.242   1.755  49.904  1.00  0.00     0.254 C 
HETATM   24  O1  UNL     1      21.967   1.255  49.008  1.00  0.00    -0.268 OA
HETATM   25  H6  UNL     1      21.272   3.285  51.412  1.00  0.00     0.169 HD
BRANCH  23  26
HETATM   26  C7  UNL     1      19.888   1.303  50.196  1.00  0.00     0.032 A 
HETATM   27  C8  UNL     1      19.637   0.380  51.111  1.00  0.00     0.014 A 
HETATM   28  C9  UNL     1      18.189   0.181  51.133  1.00  0.00    -0.001 A 
HETATM   29  C10 UNL     1      17.592   0.978  50.239  1.00  0.00    -0.002 A 
HETATM   30  C11 UNL     1      18.653   1.787  49.543  1.00  0.00     0.143 A 
HETATM   31 CL1  UNL     1      18.456   3.507  49.952  1.00  0.00    -0.116 Cl
ENDBRANCH  23  26
ENDBRANCH   5  22
TORSDOF 5
ENDMDL
MODEL 7
REMARK VINA RESULT:      -8.9      3.360      6.380
REMARK  5 active torsions:
REMARK  status: ('A' for Active; 'I' for Inactive)
REMARK    1  A    between atoms: C5_5  and  N1_6 
REMARK       I    between atoms: N1_6  and  C6_7 
REMARK    2  A    between atoms: C6_7  and  C7_9 
REMARK    3  A    between atoms: C13_16  and  N2_17 
REMARK    4  A    between atoms: N2_17  and  C14_18 
REMARK    5  A    between atoms: C17_22  and  C18_23 
ROOT
HETATM    1  C1  UNL     1      25.759   1.108  53.026  1.00  0.00     0.050 C 
HETATM    2  C2  UNL     1      24.284   0.832  53.070  1.00  0.00    -0.035 A 
HETATM    3  C3  UNL     1      23.869  -0.447  53.344  1.00  0.00     0.011 A 
HETATM    4  C4  UNL     1      22.536  -0.761  53.399  1.00  0.00     0.030 A 
HETATM    5  C5  UNL     1      21.623   0.238  53.171  1.00  0.00     0.037 A 
HETATM    6  C12 UNL     1      22.086   1.491  52.903  1.00  0.00     0.060 A 
HETATM    7  C13 UNL     1      23.405   1.882  52.831  1.00  0.00     0.057 A 
ENDROOT
BRANCH   7   8
HETATM    8  N2  UNL     1      23.876   3.185  52.552  1.00  0.00    -0.188 N 
HETATM    9  H12 UNL     1      24.368   3.660  53.352  1.00  0.00     0.184 HD
BRANCH   8  10
HETATM   10  C14 UNL     1      23.760   3.909  51.341  1.00  0.00     0.727 A 
HETATM   11  N3  UNL     1      22.634   4.254  50.706  1.00  0.00    -0.075 NA
HETATM   12  C15 UNL     1      22.568   4.942  49.557  1.00  0.00     0.139 A 
HETATM   13  C16 UNL     1      23.749   5.323  48.982  1.00  0.00     0.053 A 
HETATM   14  C17 UNL     1      24.923   4.999  49.581  1.00  0.00     0.089 A 
HETATM   15  N5  UNL     1      24.870   4.318  50.714  1.00  0.00    -0.062 NA
BRANCH  14  16
HETATM   16  C18 UNL     1      26.228   5.356  49.053  1.00  0.00     0.011 A 
HETATM   17  C19 UNL     1      26.444   6.636  48.587  1.00  0.00     0.017 A 
HETATM   18  C20 UNL     1      27.698   6.989  48.077  1.00  0.00     0.020 A 
HETATM   19  C21 UNL     1      28.705   6.057  48.044  1.00  0.00     0.116 A 
HETATM   20  N4  UNL     1      28.502   4.823  48.492  1.00  0.00    -0.272 NA
HETATM   21  C22 UNL     1      27.293   4.482  48.984  1.00  0.00     0.130 A 
ENDBRANCH  14  16
ENDBRANCH   8  10
ENDBRANCH   7   8
BRANCH   5  22
HETATM   22  N1  UNL     1      20.249  -0.089  53.227  1.00  0.00    -0.323 N 
HETATM   23  C6  UNL     1      19.551  -0.101  51.986  1.00  0.00     0.254 C 
HETATM   24  O1  UNL     1      20.238   0.181  50.972  1.00  0.00    -0.268 OA
HETATM   25  H6  UNL     1      19.732  -0.317  54.116  1.00  0.00     0.169 HD
BRANCH  23  26
HETATM   26  C7  UNL     1      18.132  -0.426  51.937  1.00  0.00     0.032 A 
HETATM   27  C8  UNL     1      17.414  -0.281  50.834  1.00  0.00     0.014 A 
HETATM   28  C9  UNL     1      16.051  -0.698  51.152  1.00  0.00    -0.001 A 
HETATM   29  C10 UNL     1      15.963  -1.084  52.430  1.00  0.00    -0.002 A 
HETATM   30  C11 UNL     1      17.322  -0.941  53.062  1.00  0.00     0.143 A 
HETATM   31 CL1  UNL     1      17.949  -2.548  53.498  1.00  0.00    -0.116 Cl
ENDBRANCH  23  26
ENDBRANCH   5  22
TORSDOF 5
ENDMDL
MODEL 8
REMARK VINA RESULT:      -8.8      3.586      7.513
REMARK  5 active torsions:
REMARK  status: ('A' for Active; 'I' for Inactive)
REMARK    1  A    between atoms: C5_5  and  N1_6 
REMARK       I    between atoms: N1_6  and  C6_7 
REMARK    2  A    between atoms: C6_7  and  C7_9 
REMARK    3  A    between atoms: C13_16  and  N2_17 
REMARK    4  A    between atoms: N2_17  and  C14_18 
REMARK    5  A    between atoms: C17_22  and  C18_23 
ROOT
HETATM    1  C1  UNL     1      21.649   7.367  50.848  1.00  0.00     0.050 C 
HETATM    2  C2  UNL     1      23.107   7.392  50.488  1.00  0.00    -0.035 A 
HETATM    3  C3  UNL     1      23.502   8.176  49.433  1.00  0.00     0.011 A 
HETATM    4  C4  UNL     1      24.818   8.241  49.056  1.00  0.00     0.030 A 
HETATM    5  C5  UNL     1      25.735   7.501  49.761  1.00  0.00     0.037 A 
HETATM    6  C12 UNL     1      25.291   6.739  50.800  1.00  0.00     0.060 A 
HETATM    7  C13 UNL     1      23.989   6.623  51.237  1.00  0.00     0.057 A 
ENDROOT
BRANCH   7   8
HETATM    8  N2  UNL     1      23.538   5.830  52.316  1.00  0.00    -0.188 N 
HETATM    9  H12 UNL     1      23.378   6.353  53.215  1.00  0.00     0.184 HD
BRANCH   8  10
HETATM   10  C14 UNL     1      23.285   4.437  52.323  1.00  0.00     0.727 A 
HETATM   11  N3  UNL     1      22.124   3.822  52.070  1.00  0.00    -0.075 NA
HETATM   12  C15 UNL     1      21.924   2.496  52.087  1.00  0.00     0.139 A 
HETATM   13  C16 UNL     1      22.997   1.702  52.389  1.00  0.00     0.053 A 
HETATM   14  C17 UNL     1      24.200   2.271  52.656  1.00  0.00     0.089 A 
HETATM   15  N5  UNL     1      24.282   3.591  52.609  1.00  0.00    -0.062 NA
BRANCH  14  16
HETATM   16  C18 UNL     1      25.397   1.519  52.986  1.00  0.00     0.011 A 
HETATM   17  C19 UNL     1      25.762   0.445  52.200  1.00  0.00     0.017 A 
HETATM   18  C20 UNL     1      26.914  -0.285  52.509  1.00  0.00     0.020 A 
HETATM   19  C21 UNL     1      27.673   0.072  53.596  1.00  0.00     0.116 A 
HETATM   20  N4  UNL     1      27.326   1.105  54.356  1.00  0.00    -0.272 NA
HETATM   21  C22 UNL     1      26.216   1.810  54.058  1.00  0.00     0.130 A 
ENDBRANCH  14  16
ENDBRANCH   8  10
ENDBRANCH   7   8
BRANCH   5  22
HETATM   22  N1  UNL     1      27.091   7.570  49.370  1.00  0.00    -0.323 N 
HETATM   23  C6  UNL     1      27.566   6.510  48.546  1.00  0.00     0.254 C 
HETATM   24  O1  UNL     1      26.721   5.625  48.257  1.00  0.00    -0.268 OA
HETATM   25  H6  UNL     1      27.747   8.344  49.650  1.00  0.00     0.169 HD
BRANCH  23  26
HETATM   26  C7  UNL     1      28.949   6.489  48.089  1.00  0.00     0.032 A 
HETATM   27  C8  UNL     1      29.716   5.417  48.216  1.00  0.00     0.014 A 
HETATM   28  C9  UNL     1      31.022   5.756  47.656  1.00  0.00    -0.001 A 
HETATM   29  C10 UNL     1      31.027   7.016  47.204  1.00  0.00    -0.002 A 
HETATM   30  C11 UNL     1      29.666   7.612  47.447  1.00  0.00     0.143 A 
HETATM   31 CL1  UNL     1      28.875   7.948  45.890  1.00  0.00    -0.116 Cl
ENDBRANCH  23  26
ENDBRANCH   5  22
TORSDOF 5
ENDMDL
MODEL 9
REMARK VINA RESULT:      -8.7      3.700      7.924
REMARK  5 active torsions:
REMARK  status: ('A' for Active; 'I' for Inactive)
REMARK    1  A    between atoms: C5_5  and  N1_6 
REMARK       I    between atoms: N1_6  and  C6_7 
REMARK    2  A    between atoms: C6_7  and  C7_9 
REMARK    3  A    between atoms: C13_16  and  N2_17 
REMARK    4  A    between atoms: N2_17  and  C14_18 
REMARK    5  A    between atoms: C17_22  and  C18_23 
ROOT
HETATM    1  C1  UNL     1      22.458   4.507  48.212  1.00  0.00     0.050 C 
HETATM    2  C2  UNL     1      23.704   5.248  48.604  1.00  0.00    -0.035 A 
HETATM    3  C3  UNL     1      23.781   6.587  48.314  1.00  0.00     0.011 A 
HETATM    4  C4  UNL     1      24.892   7.319  48.646  1.00  0.00     0.030 A 
HETATM    5  C5  UNL     1      25.928   6.677  49.277  1.00  0.00     0.037 A 
HETATM    6  C12 UNL     1      25.801   5.346  49.543  1.00  0.00     0.060 A 
HETATM    7  C13 UNL     1      24.720   4.547  49.241  1.00  0.00     0.057 A 
ENDROOT
BRANCH   7   8
HETATM    8  N2  UNL     1      24.598   3.168  49.520  1.00  0.00    -0.188 N 
HETATM    9  H12 UNL     1      24.705   2.535  48.686  1.00  0.00     0.184 HD
BRANCH   8  10
HETATM   10  C14 UNL     1      24.351   2.554  50.772  1.00  0.00     0.727 A 
HETATM   11  N3  UNL     1      23.162   2.282  51.323  1.00  0.00    -0.075 NA
HETATM   12  C15 UNL     1      22.971   1.698  52.514  1.00  0.00     0.139 A 
HETATM   13  C16 UNL     1      24.083   1.350  53.231  1.00  0.00     0.053 A 
HETATM   14  C17 UNL     1      25.316   1.603  52.723  1.00  0.00     0.089 A 
HETATM   15  N5  UNL     1      25.387   2.184  51.535  1.00  0.00    -0.062 NA
BRANCH  14  16
HETATM   16  C18 UNL     1      26.557   1.274  53.402  1.00  0.00     0.011 A 
HETATM   17  C19 UNL     1      27.651   2.101  53.253  1.00  0.00     0.017 A 
HETATM   18  C20 UNL     1      28.850   1.793  53.904  1.00  0.00     0.020 A 
HETATM   19  C21 UNL     1      28.928   0.668  54.687  1.00  0.00     0.116 A 
HETATM   20  N4  UNL     1      27.877  -0.132  54.834  1.00  0.00    -0.272 NA
HETATM   21  C22 UNL     1      26.721   0.165  54.206  1.00  0.00     0.130 A 
ENDBRANCH  14  16
ENDBRANCH   8  10
ENDBRANCH   7   8
BRANCH   5  22
HETATM   22  N1  UNL     1      27.073   7.433  49.618  1.00  0.00    -0.323 N 
HETATM   23  C6  UNL     1      28.069   7.561  48.610  1.00  0.00     0.254 C 
HETATM   24  O1  UNL     1      27.820   6.984  47.522  1.00  0.00    -0.268 OA
HETATM   25  H6  UNL     1      27.219   7.893  50.554  1.00  0.00     0.169 HD
BRANCH  23  26
HETATM   26  C7  UNL     1      29.286   8.321  48.863  1.00  0.00     0.032 A 
HETATM   27  C8  UNL     1      30.490   7.817  48.639  1.00  0.00     0.014 A 
HETATM   28  C9  UNL     1      31.460   8.848  49.001  1.00  0.00    -0.001 A 
HETATM   29  C10 UNL     1      30.836   9.949  49.435  1.00  0.00    -0.002 A 
HETATM   30  C11 UNL     1      29.352   9.704  49.383  1.00  0.00     0.143 A 
HETATM   31 CL1  UNL     1      28.610  10.779  48.175  1.00  0.00    -0.116 Cl
ENDBRANCH  23  26
ENDBRANCH   5  22
TORSDOF 5
ENDMDL
