MODEL 1
REMARK VINA RESULT:      -6.4      0.000      0.000
REMARK  2 active torsions:
REMARK  status: ('A' for Active; 'I' for Inactive)
REMARK    1  A    between atoms: O1_2  and  C2_3 
REMARK    2  A    between atoms: C9_12  and  C10_13 
ROOT
HETATM    1  C2  UNL     1      22.797   5.055  49.567  1.00  0.00     0.184 C 
HETATM    2  C3  UNL     1      23.598   3.784  49.424  1.00  0.00    -0.021 C 
HETATM    3  C4  UNL     1      24.656   3.739  50.328  1.00  0.00     0.034 C 
HETATM    4  C5  UNL     1      24.492   2.421  51.119  1.00  0.00     0.206 C 
HETATM    5  N1  UNL     1      22.974   2.561  51.403  1.00  0.00    -0.291 NA
HETATM    6  C6  UNL     1      22.769   3.563  52.189  1.00  0.00     0.025 C 
HETATM    7  C7  UNL     1      23.642   4.594  52.916  1.00  0.00     0.169 C 
HETATM    8  N2  UNL     1      23.250   5.605  52.147  1.00  0.00    -0.401 N 
HETATM    9  C8  UNL     1      22.743   5.679  50.864  1.00  0.00     0.088 C 
HETATM   10  C9  UNL     1      23.831   6.658  50.592  1.00  0.00    -0.024 C 
HETATM   11  C11 UNL     1      25.143   6.190  50.435  1.00  0.00     0.094 C 
HETATM   12  N3  UNL     1      25.645   4.801  50.508  1.00  0.00    -0.367 N 
HETATM   13  C12 UNL     1      21.450   5.456  51.251  1.00  0.00     0.050 C 
HETATM   14  C13 UNL     1      20.429   4.884  50.229  1.00  0.00     0.182 C 
HETATM   15  O2  UNL     1      20.701   3.566  49.919  1.00  0.00    -0.363 OA
HETATM   16  C14 UNL     1      20.614   2.665  48.969  1.00  0.00     0.131 C 
HETATM   17  C15 UNL     1      21.826   2.483  48.486  1.00  0.00     0.002 C 
HETATM   18  C16 UNL     1      23.271   2.774  48.459  1.00  0.00     0.068 C 
HETATM   19  C17 UNL     1      21.427   4.188  52.226  1.00  0.00     0.065 C 
HETATM   20  H9  UNL     1      22.919   6.408  52.698  1.00  0.00     0.154 HD
HETATM   21  H13 UNL     1      26.504   4.309  50.667  1.00  0.00     0.165 HD
ENDROOT
BRANCH   1  22
HETATM   22  O1  UNL     1      23.590   5.751  48.554  1.00  0.00    -0.383 OA
HETATM   23  C1  UNL     1      22.843   6.040  47.449  1.00  0.00     0.202 C 
ENDBRANCH   1  22
BRANCH  10  24
HETATM   24  C10 UNL     1      23.799   8.083  50.456  1.00  0.00     0.123 C 
HETATM   25 BR1  UNL     1      25.480   8.729  49.774  1.00  0.00    -0.092 Br
ENDBRANCH  10  24
TORSDOF 2
ENDMDL
MODEL 2
REMARK VINA RESULT:      -6.3      3.010      4.836
REMARK  2 active torsions:
REMARK  status: ('A' for Active; 'I' for Inactive)
REMARK    1  A    between atoms: O1_2  and  C2_3 
REMARK    2  A    between atoms: C9_12  and  C10_13 
ROOT
HETATM    1  C2  UNL     1      23.326   2.831  51.319  1.00  0.00     0.184 C 
HETATM    2  C3  UNL     1      23.436   2.749  49.816  1.00  0.00    -0.021 C 
HETATM    3  C4  UNL     1      22.290   2.201  49.245  1.00  0.00     0.034 C 
HETATM    4  C5  UNL     1      21.794   3.229  48.202  1.00  0.00     0.206 C 
HETATM    5  N1  UNL     1      21.929   4.486  49.098  1.00  0.00    -0.291 NA
HETATM    6  C6  UNL     1      21.084   4.420  50.071  1.00  0.00     0.025 C 
HETATM    7  C7  UNL     1      19.990   3.444  50.520  1.00  0.00     0.169 C 
HETATM    8  N2  UNL     1      20.669   3.025  51.583  1.00  0.00    -0.401 N 
HETATM    9  C8  UNL     1      22.015   2.990  51.894  1.00  0.00     0.088 C 
HETATM   10  C9  UNL     1      21.813   1.542  52.180  1.00  0.00    -0.024 C 
HETATM   11  C11 UNL     1      21.668   0.652  51.107  1.00  0.00     0.094 C 
HETATM   12  N3  UNL     1      21.676   0.940  49.657  1.00  0.00    -0.367 N 
HETATM   13  C12 UNL     1      22.046   4.273  52.365  1.00  0.00     0.050 C 
HETATM   14  C13 UNL     1      23.389   5.052  52.384  1.00  0.00     0.182 C 
HETATM   15  O2  UNL     1      23.814   5.371  51.109  1.00  0.00    -0.363 OA
HETATM   16  C14 UNL     1      24.879   5.574  50.370  1.00  0.00     0.131 C 
HETATM   17  C15 UNL     1      25.025   4.520  49.591  1.00  0.00     0.002 C 
HETATM   18  C16 UNL     1      24.600   3.195  49.105  1.00  0.00     0.068 C 
HETATM   19  C17 UNL     1      21.328   5.220  51.293  1.00  0.00     0.065 C 
HETATM   20  H9  UNL     1      20.114   3.081  52.447  1.00  0.00     0.154 HD
HETATM   21  H13 UNL     1      21.361   0.531  48.798  1.00  0.00     0.165 HD
ENDROOT
BRANCH   1  22
HETATM   22  O1  UNL     1      23.953   1.523  51.505  1.00  0.00    -0.383 OA
HETATM   23  C1  UNL     1      25.169   1.637  52.115  1.00  0.00     0.202 C 
ENDBRANCH   1  22
BRANCH  10  24
HETATM   24  C10 UNL     1      21.728   0.833  53.421  1.00  0.00     0.123 C 
HETATM   25 BR1  UNL     1      22.311  -0.987  53.195  1.00  0.00    -0.092 Br
ENDBRANCH  10  24
TORSDOF 2
ENDMDL
MODEL 3
REMARK VINA RESULT:      -6.3      2.406      4.378
REMARK  2 active torsions:
REMARK  status: ('A' for Active; 'I' for Inactive)
REMARK    1  A    between atoms: O1_2  and  C2_3 
REMARK    2  A    between atoms: C9_12  and  C10_13 
ROOT
HETATM    1  C2  UNL     1      22.251   2.233  51.433  1.00  0.00     0.184 C 
HETATM    2  C3  UNL     1      21.581   3.473  51.974  1.00  0.00    -0.021 C 
HETATM    3  C4  UNL     1      22.492   4.507  52.169  1.00  0.00     0.034 C 
HETATM    4  C5  UNL     1      21.951   5.716  51.371  1.00  0.00     0.206 C 
HETATM    5  N1  UNL     1      21.616   4.946  50.068  1.00  0.00    -0.291 NA
HETATM    6  C6  UNL     1      22.704   4.524  49.520  1.00  0.00     0.025 C 
HETATM    7  C7  UNL     1      24.205   4.627  49.821  1.00  0.00     0.169 C 
HETATM    8  N2  UNL     1      24.322   3.345  50.151  1.00  0.00    -0.401 N 
HETATM    9  C8  UNL     1      23.427   2.401  50.619  1.00  0.00     0.088 C 
HETATM   10  C9  UNL     1      24.396   2.172  51.727  1.00  0.00    -0.024 C 
HETATM   11  C11 UNL     1      24.489   3.120  52.754  1.00  0.00     0.094 C 
HETATM   12  N3  UNL     1      23.743   4.386  52.916  1.00  0.00    -0.367 N 
HETATM   13  C12 UNL     1      22.983   2.052  49.373  1.00  0.00     0.050 C 
HETATM   14  C13 UNL     1      21.579   1.409  49.209  1.00  0.00     0.182 C 
HETATM   15  O2  UNL     1      20.569   2.317  49.458  1.00  0.00    -0.363 OA
HETATM   16  C14 UNL     1      19.341   2.435  49.906  1.00  0.00     0.131 C 
HETATM   17  C15 UNL     1      19.410   2.974  51.107  1.00  0.00     0.002 C 
HETATM   18  C16 UNL     1      20.172   3.531  52.240  1.00  0.00     0.068 C 
HETATM   19  C17 UNL     1      22.640   3.391  48.568  1.00  0.00     0.065 C 
HETATM   20  H9  UNL     1      25.083   2.878  49.639  1.00  0.00     0.154 HD
HETATM   21  H13 UNL     1      23.826   5.262  53.396  1.00  0.00     0.165 HD
ENDROOT
BRANCH   1  22
HETATM   22  O1  UNL     1      22.470   1.684  52.770  1.00  0.00    -0.383 OA
HETATM   23  C1  UNL     1      21.739   0.548  52.967  1.00  0.00     0.202 C 
ENDBRANCH   1  22
BRANCH  10  24
HETATM   24  C10 UNL     1      25.317   1.100  51.961  1.00  0.00     0.123 C 
HETATM   25 BR1  UNL     1      27.067   1.797  52.361  1.00  0.00    -0.092 Br
ENDBRANCH  10  24
TORSDOF 2
ENDMDL
MODEL 4
REMARK VINA RESULT:      -6.2      9.164     10.833
REMARK  2 active torsions:
REMARK  status: ('A' for Active; 'I' for Inactive)
REMARK    1  A    between atoms: O1_2  and  C2_3 
REMARK    2  A    between atoms: C9_12  and  C10_13 
ROOT
HETATM    1  C2  UNL     1      32.829   5.613  46.167  1.00  0.00     0.184 C 
HETATM    2  C3  UNL     1      34.240   5.539  46.700  1.00  0.00    -0.021 C 
HETATM    3  C4  UNL     1      34.686   6.779  47.149  1.00  0.00     0.034 C 
HETATM    4  C5  UNL     1      35.135   6.572  48.614  1.00  0.00     0.206 C 
HETATM    5  N1  UNL     1      33.900   5.756  49.074  1.00  0.00    -0.291 NA
HETATM    6  C6  UNL     1      32.850   6.504  49.050  1.00  0.00     0.025 C 
HETATM    7  C7  UNL     1      32.546   7.970  48.717  1.00  0.00     0.169 C 
HETATM    8  N2  UNL     1      31.900   7.678  47.593  1.00  0.00    -0.401 N 
HETATM    9  C8  UNL     1      31.947   6.605  46.724  1.00  0.00     0.088 C 
HETATM   10  C9  UNL     1      32.170   7.610  45.647  1.00  0.00    -0.024 C 
HETATM   11  C11 UNL     1      33.427   8.219  45.537  1.00  0.00     0.094 C 
HETATM   12  N3  UNL     1      34.631   8.016  46.371  1.00  0.00    -0.367 N 
HETATM   13  C12 UNL     1      31.062   5.850  47.443  1.00  0.00     0.050 C 
HETATM   14  C13 UNL     1      31.075   4.304  47.298  1.00  0.00     0.182 C 
HETATM   15  O2  UNL     1      32.206   3.747  47.860  1.00  0.00    -0.363 OA
HETATM   16  C14 UNL     1      33.048   2.744  47.766  1.00  0.00     0.131 C 
HETATM   17  C15 UNL     1      34.168   3.215  47.256  1.00  0.00     0.002 C 
HETATM   18  C16 UNL     1      34.990   4.316  46.720  1.00  0.00     0.068 C 
HETATM   19  C17 UNL     1      31.514   5.869  48.978  1.00  0.00     0.065 C 
HETATM   20  H9  UNL     1      30.970   8.118  47.553  1.00  0.00     0.154 HD
HETATM   21  H13 UNL     1      35.481   8.491  46.609  1.00  0.00     0.165 HD
ENDROOT
BRANCH   1  22
HETATM   22  O1  UNL     1      33.285   5.857  44.799  1.00  0.00    -0.383 OA
HETATM   23  C1  UNL     1      33.089   4.764  44.006  1.00  0.00     0.202 C 
ENDBRANCH   1  22
BRANCH  10  24
HETATM   24  C10 UNL     1      31.290   8.113  44.636  1.00  0.00     0.123 C 
HETATM   25 BR1  UNL     1      32.299   8.937  43.219  1.00  0.00    -0.092 Br
ENDBRANCH  10  24
TORSDOF 2
ENDMDL
MODEL 5
REMARK VINA RESULT:      -6.0      9.183     11.280
REMARK  2 active torsions:
REMARK  status: ('A' for Active; 'I' for Inactive)
REMARK    1  A    between atoms: O1_2  and  C2_3 
REMARK    2  A    between atoms: C9_12  and  C10_13 
ROOT
HETATM    1  C2  UNL     1      32.456   7.428  46.074  1.00  0.00     0.184 C 
HETATM    2  C3  UNL     1      31.487   6.674  46.953  1.00  0.00    -0.021 C 
HETATM    3  C4  UNL     1      31.912   5.369  47.187  1.00  0.00     0.034 C 
HETATM    4  C5  UNL     1      31.961   5.200  48.723  1.00  0.00     0.206 C 
HETATM    5  N1  UNL     1      32.689   6.532  49.035  1.00  0.00    -0.291 NA
HETATM    6  C6  UNL     1      33.888   6.494  48.561  1.00  0.00     0.025 C 
HETATM    7  C7  UNL     1      34.750   5.467  47.817  1.00  0.00     0.169 C 
HETATM    8  N2  UNL     1      34.725   6.138  46.670  1.00  0.00    -0.401 N 
HETATM    9  C8  UNL     1      33.847   7.058  46.129  1.00  0.00     0.088 C 
HETATM   10  C9  UNL     1      33.801   6.169  44.935  1.00  0.00    -0.024 C 
HETATM   11  C11 UNL     1      33.072   4.974  45.006  1.00  0.00     0.094 C 
HETATM   12  N3  UNL     1      32.307   4.422  46.145  1.00  0.00    -0.367 N 
HETATM   13  C12 UNL     1      34.419   8.130  46.758  1.00  0.00     0.050 C 
HETATM   14  C13 UNL     1      33.582   9.415  47.000  1.00  0.00     0.182 C 
HETATM   15  O2  UNL     1      32.601   9.215  47.951  1.00  0.00    -0.363 OA
HETATM   16  C14 UNL     1      31.398   9.587  48.323  1.00  0.00     0.131 C 
HETATM   17  C15 UNL     1      30.570   8.607  48.018  1.00  0.00     0.002 C 
HETATM   18  C16 UNL     1      30.286   7.272  47.461  1.00  0.00     0.068 C 
HETATM   19  C17 UNL     1      34.603   7.766  48.306  1.00  0.00     0.065 C 
HETATM   20  H9  UNL     1      35.668   6.291  46.287  1.00  0.00     0.154 HD
HETATM   21  H13 UNL     1      31.955   3.542  46.470  1.00  0.00     0.165 HD
ENDROOT
BRANCH   1  22
HETATM   22  O1  UNL     1      31.743   7.059  44.852  1.00  0.00    -0.383 OA
HETATM   23  C1  UNL     1      31.198   8.153  44.245  1.00  0.00     0.202 C 
ENDBRANCH   1  22
BRANCH  10  24
HETATM   24  C10 UNL     1      34.400   6.303  43.641  1.00  0.00     0.123 C 
HETATM   25 BR1  UNL     1      33.862   4.848  42.500  1.00  0.00    -0.092 Br
ENDBRANCH  10  24
TORSDOF 2
ENDMDL
MODEL 6
REMARK VINA RESULT:      -5.8      6.663      9.151
REMARK  2 active torsions:
REMARK  status: ('A' for Active; 'I' for Inactive)
REMARK    1  A    between atoms: O1_2  and  C2_3 
REMARK    2  A    between atoms: C9_12  and  C10_13 
ROOT
HETATM    1  C2  UNL     1      29.324   7.528  47.704  1.00  0.00     0.184 C 
HETATM    2  C3  UNL     1      29.209   8.553  48.807  1.00  0.00    -0.021 C 
HETATM    3  C4  UNL     1      30.446   8.834  49.380  1.00  0.00     0.034 C 
HETATM    4  C5  UNL     1      30.633  10.365  49.274  1.00  0.00     0.206 C 
HETATM    5  N1  UNL     1      30.190  10.506  47.795  1.00  0.00    -0.291 NA
HETATM    6  C6  UNL     1      31.042   9.915  47.027  1.00  0.00     0.025 C 
HETATM    7  C7  UNL     1      32.364   9.161  47.218  1.00  0.00     0.169 C 
HETATM    8  N2  UNL     1      31.841   7.979  46.911  1.00  0.00    -0.401 N 
HETATM    9  C8  UNL     1      30.559   7.466  46.965  1.00  0.00     0.088 C 
HETATM   10  C9  UNL     1      31.140   6.350  47.761  1.00  0.00    -0.024 C 
HETATM   11  C11 UNL     1      31.493   6.580  49.097  1.00  0.00     0.094 C 
HETATM   12  N3  UNL     1      31.379   7.827  49.883  1.00  0.00    -0.367 N 
HETATM   13  C12 UNL     1      30.200   7.956  45.739  1.00  0.00     0.050 C 
HETATM   14  C13 UNL     1      28.700   8.191  45.414  1.00  0.00     0.182 C 
HETATM   15  O2  UNL     1      28.180   9.249  46.134  1.00  0.00    -0.363 OA
HETATM   16  C14 UNL     1      27.084   9.715  46.685  1.00  0.00     0.131 C 
HETATM   17  C15 UNL     1      27.205   9.567  47.989  1.00  0.00     0.002 C 
HETATM   18  C16 UNL     1      27.954   9.137  49.184  1.00  0.00     0.068 C 
HETATM   19  C17 UNL     1      30.621   9.498  45.670  1.00  0.00     0.065 C 
HETATM   20  H9  UNL     1      32.379   7.491  46.182  1.00  0.00     0.154 HD
HETATM   21  H13 UNL     1      31.773   8.248  50.703  1.00  0.00     0.165 HD
ENDROOT
BRANCH   1  22
HETATM   22  O1  UNL     1      29.067   6.415  48.617  1.00  0.00    -0.383 OA
HETATM   23  C1  UNL     1      27.873   5.814  48.344  1.00  0.00     0.202 C 
ENDBRANCH   1  22
BRANCH  10  24
HETATM   24  C10 UNL     1      31.434   4.995  47.401  1.00  0.00     0.123 C 
HETATM   25 BR1  UNL     1      33.283   4.594  47.757  1.00  0.00    -0.092 Br
ENDBRANCH  10  24
TORSDOF 2
ENDMDL
MODEL 7
REMARK VINA RESULT:      -5.8     23.775     25.653
REMARK  2 active torsions:
REMARK  status: ('A' for Active; 'I' for Inactive)
REMARK    1  A    between atoms: O1_2  and  C2_3 
REMARK    2  A    between atoms: C9_12  and  C10_13 
ROOT
HETATM    1  C2  UNL     1      39.003  -1.326  69.840  1.00  0.00     0.184 C 
HETATM    2  C3  UNL     1      37.976  -1.877  68.880  1.00  0.00    -0.021 C 
HETATM    3  C4  UNL     1      37.808  -1.047  67.774  1.00  0.00     0.034 C 
HETATM    4  C5  UNL     1      38.053  -1.932  66.530  1.00  0.00     0.206 C 
HETATM    5  N1  UNL     1      39.343  -2.622  67.042  1.00  0.00    -0.291 NA
HETATM    6  C6  UNL     1      40.291  -1.754  67.144  1.00  0.00     0.025 C 
HETATM    7  C7  UNL     1      40.452  -0.256  66.857  1.00  0.00     0.169 C 
HETATM    8  N2  UNL     1      40.523   0.078  68.142  1.00  0.00    -0.401 N 
HETATM    9  C8  UNL     1      40.066  -0.517  69.302  1.00  0.00     0.088 C 
HETATM   10  C9  UNL     1      39.412   0.787  69.601  1.00  0.00    -0.024 C 
HETATM   11  C11 UNL     1      38.253   1.142  68.898  1.00  0.00     0.094 C 
HETATM   12  N3  UNL     1      37.543   0.389  67.843  1.00  0.00    -0.367 N 
HETATM   13  C12 UNL     1      41.160  -1.327  69.441  1.00  0.00     0.050 C 
HETATM   14  C13 UNL     1      41.044  -2.641  70.260  1.00  0.00     0.182 C 
HETATM   15  O2  UNL     1      40.267  -3.581  69.613  1.00  0.00    -0.363 OA
HETATM   16  C14 UNL     1      39.447  -4.588  69.805  1.00  0.00     0.131 C 
HETATM   17  C15 UNL     1      38.229  -4.161  69.537  1.00  0.00     0.002 C 
HETATM   18  C16 UNL     1      37.283  -3.109  69.120  1.00  0.00     0.068 C 
HETATM   19  C17 UNL     1      41.439  -2.041  68.036  1.00  0.00     0.065 C 
HETATM   20  H9  UNL     1      41.348   0.657  68.350  1.00  0.00     0.154 HD
HETATM   21  H13 UNL     1      36.900   0.553  67.091  1.00  0.00     0.165 HD
ENDROOT
BRANCH   1  22
HETATM   22  O1  UNL     1      37.992  -0.617  70.623  1.00  0.00    -0.383 OA
HETATM   23  C1  UNL     1      37.893  -1.126  71.886  1.00  0.00     0.202 C 
ENDBRANCH   1  22
BRANCH  10  24
HETATM   24  C10 UNL     1      39.763   1.823  70.526  1.00  0.00     0.123 C 
HETATM   25 BR1  UNL     1      38.239   2.944  70.885  1.00  0.00    -0.092 Br
ENDBRANCH  10  24
TORSDOF 2
ENDMDL
MODEL 8
REMARK VINA RESULT:      -5.7      6.352      8.989
REMARK  2 active torsions:
REMARK  status: ('A' for Active; 'I' for Inactive)
REMARK    1  A    between atoms: O1_2  and  C2_3 
REMARK    2  A    between atoms: C9_12  and  C10_13 
ROOT
HETATM    1  C2  UNL     1      29.088   8.519  48.081  1.00  0.00     0.184 C 
HETATM    2  C3  UNL     1      29.022   8.898  46.621  1.00  0.00    -0.021 C 
HETATM    3  C4  UNL     1      28.231  10.026  46.417  1.00  0.00     0.034 C 
HETATM    4  C5  UNL     1      29.117  11.043  45.662  1.00  0.00     0.206 C 
HETATM    5  N1  UNL     1      30.379  10.887  46.548  1.00  0.00    -0.291 NA
HETATM    6  C6  UNL     1      30.136  11.328  47.735  1.00  0.00     0.025 C 
HETATM    7  C7  UNL     1      28.945  11.981  48.448  1.00  0.00     0.169 C 
HETATM    8  N2  UNL     1      28.694  10.917  49.203  1.00  0.00    -0.401 N 
HETATM    9  C8  UNL     1      28.958   9.569  49.059  1.00  0.00     0.088 C 
HETATM   10  C9  UNL     1      27.503   9.355  49.297  1.00  0.00    -0.024 C 
HETATM   11  C11 UNL     1      26.596   9.657  48.273  1.00  0.00     0.094 C 
HETATM   12  N3  UNL     1      26.869  10.190  46.921  1.00  0.00    -0.367 N 
HETATM   13  C12 UNL     1      30.220   9.654  49.578  1.00  0.00     0.050 C 
HETATM   14  C13 UNL     1      31.276   8.575  49.212  1.00  0.00     0.182 C 
HETATM   15  O2  UNL     1      31.672   8.674  47.893  1.00  0.00    -0.363 OA
HETATM   16  C14 UNL     1      32.099   7.980  46.864  1.00  0.00     0.131 C 
HETATM   17  C15 UNL     1      31.098   7.882  46.012  1.00  0.00     0.002 C 
HETATM   18  C16 UNL     1      29.708   8.156  45.603  1.00  0.00     0.068 C 
HETATM   19  C17 UNL     1      30.979  10.868  48.862  1.00  0.00     0.065 C 
HETATM   20  H9  UNL     1      28.633  11.154  50.202  1.00  0.00     0.154 HD
HETATM   21  H13 UNL     1      26.394  10.677  46.185  1.00  0.00     0.165 HD
ENDROOT
BRANCH   1  22
HETATM   22  O1  UNL     1      27.952   7.606  47.966  1.00  0.00    -0.383 OA
HETATM   23  C1  UNL     1      28.329   6.313  48.187  1.00  0.00     0.202 C 
ENDBRANCH   1  22
BRANCH  10  24
HETATM   24  C10 UNL     1      26.802   8.874  50.450  1.00  0.00     0.123 C 
HETATM   25 BR1  UNL     1      24.995   8.399  49.984  1.00  0.00    -0.092 Br
ENDBRANCH  10  24
TORSDOF 2
ENDMDL
MODEL 9
REMARK VINA RESULT:      -5.7      8.558     10.910
REMARK  2 active torsions:
REMARK  status: ('A' for Active; 'I' for Inactive)
REMARK    1  A    between atoms: O1_2  and  C2_3 
REMARK    2  A    between atoms: C9_12  and  C10_13 
ROOT
HETATM    1  C2  UNL     1      31.952   7.024  46.397  1.00  0.00     0.184 C 
HETATM    2  C3  UNL     1      32.815   8.175  46.854  1.00  0.00    -0.021 C 
HETATM    3  C4  UNL     1      33.022   8.149  48.231  1.00  0.00     0.034 C 
HETATM    4  C5  UNL     1      34.554   8.160  48.438  1.00  0.00     0.206 C 
HETATM    5  N1  UNL     1      34.894   7.078  47.381  1.00  0.00    -0.291 NA
HETATM    6  C6  UNL     1      34.418   5.939  47.756  1.00  0.00     0.025 C 
HETATM    7  C7  UNL     1      33.652   5.409  48.974  1.00  0.00     0.169 C 
HETATM    8  N2  UNL     1      32.520   5.231  48.302  1.00  0.00    -0.401 N 
HETATM    9  C8  UNL     1      31.998   5.801  47.156  1.00  0.00     0.088 C 
HETATM   10  C9  UNL     1      30.786   6.097  47.969  1.00  0.00    -0.024 C 
HETATM   11  C11 UNL     1      30.833   7.141  48.902  1.00  0.00     0.094 C 
HETATM   12  N3  UNL     1      31.960   8.040  49.230  1.00  0.00    -0.367 N 
HETATM   13  C12 UNL     1      32.649   4.946  46.309  1.00  0.00     0.050 C 
HETATM   14  C13 UNL     1      32.919   5.375  44.841  1.00  0.00     0.182 C 
HETATM   15  O2  UNL     1      33.866   6.377  44.767  1.00  0.00    -0.363 OA
HETATM   16  C14 UNL     1      34.246   7.422  44.070  1.00  0.00     0.131 C 
HETATM   17  C15 UNL     1      33.921   8.497  44.760  1.00  0.00     0.002 C 
HETATM   18  C16 UNL     1      33.336   9.154  45.943  1.00  0.00     0.068 C 
HETATM   19  C17 UNL     1      34.189   4.884  46.742  1.00  0.00     0.065 C 
HETATM   20  H9  UNL     1      32.140   4.282  48.421  1.00  0.00     0.154 HD
HETATM   21  H13 UNL     1      32.268   8.635  49.977  1.00  0.00     0.165 HD
ENDROOT
BRANCH   1  22
HETATM   22  O1  UNL     1      30.723   7.807  46.518  1.00  0.00    -0.383 OA
HETATM   23  C1  UNL     1      30.194   8.094  45.293  1.00  0.00     0.202 C 
ENDBRANCH   1  22
BRANCH  10  24
HETATM   24  C10 UNL     1      29.495   5.478  47.989  1.00  0.00     0.123 C 
HETATM   25 BR1  UNL     1      28.124   6.797  48.281  1.00  0.00    -0.092 Br
ENDBRANCH  10  24
TORSDOF 2
ENDMDL
