MODEL 1
REMARK VINA RESULT:      -7.5      0.000      0.000
REMARK  7 active torsions:
REMARK  status: ('A' for Active; 'I' for Inactive)
REMARK    1  A    between atoms: C2_2  and  C3_3 
REMARK       I    between atoms: C3_3  and  N1_5 
REMARK    2  A    between atoms: C5_7  and  C6_8 
REMARK    3  A    between atoms: C6_8  and  O2_9 
REMARK    4  A    between atoms: O2_9  and  C7_10 
REMARK    5  A    between atoms: N3_13  and  C9_14 
REMARK    6  A    between atoms: C11_16  and  N4_17 
REMARK    7  A    between atoms: C15_21  and  O3_22 
ROOT
HETATM    1  O2  UNL     1      23.439   1.215  53.295  1.00  0.00    -0.334 OA
ENDROOT
BRANCH   1   2
HETATM    2  C6  UNL     1      24.256   1.280  52.149  1.00  0.00     0.186 C 
BRANCH   2   3
HETATM    3  C5  UNL     1      25.650   0.750  52.365  1.00  0.00     0.058 C 
HETATM    4  C4  UNL     1      25.582  -0.595  53.071  1.00  0.00     0.135 C 
HETATM    5  N1  UNL     1      27.005  -0.782  53.396  1.00  0.00    -0.346 N 
HETATM    6  C3  UNL     1      27.738  -1.893  52.899  1.00  0.00     0.242 C 
HETATM    7  C17 UNL     1      27.053   0.423  54.201  1.00  0.00     0.158 C 
HETATM    8  O1  UNL     1      27.053  -2.662  52.179  1.00  0.00    -0.268 OA
HETATM    9  C15 UNL     1      26.448   1.539  53.353  1.00  0.00     0.146 C 
BRANCH   6  10
HETATM   10  C2  UNL     1      29.145  -2.086  53.215  1.00  0.00     0.064 C 
HETATM   11  C1  UNL     1      29.906  -1.048  53.508  1.00  0.00     0.017 C 
ENDBRANCH   6  10
BRANCH   9  12
HETATM   12  O3  UNL     1      27.430   2.310  52.735  1.00  0.00    -0.389 OA
HETATM   13  C16 UNL     1      28.528   2.545  53.540  1.00  0.00     0.202 C 
ENDBRANCH   9  12
ENDBRANCH   2   3
ENDBRANCH   1   2
BRANCH   1  14
HETATM   14  C7  UNL     1      22.189   0.637  53.177  1.00  0.00     0.162 A 
HETATM   15  N2  UNL     1      21.362   1.094  52.316  1.00  0.00    -0.247 NA
HETATM   16  C8  UNL     1      20.041   0.574  52.107  1.00  0.00     0.280 A 
HETATM   17  N3  UNL     1      19.829  -0.528  53.023  1.00  0.00    -0.341 N 
HETATM   18  C13 UNL     1      20.711  -1.072  53.993  1.00  0.00     0.097 A 
HETATM   19  C14 UNL     1      21.886  -0.468  54.048  1.00  0.00     0.075 A 
BRANCH  17  20
HETATM   20  C9  UNL     1      18.527  -1.139  52.907  1.00  0.00     0.024 C 
HETATM   21  C10 UNL     1      17.532  -0.630  51.951  1.00  0.00     0.070 C 
HETATM   22  C11 UNL     1      18.218  -2.172  53.671  1.00  0.00     0.107 C 
BRANCH  22  23
HETATM   23  N4  UNL     1      16.961  -2.851  53.640  1.00  0.00    -0.402 N 
HETATM   24  C12 UNL     1      16.884  -4.282  53.330  1.00  0.00     0.145 C 
HETATM   25  H15 UNL     1      16.014  -2.440  53.820  1.00  0.00     0.158 HD
ENDBRANCH  22  23
ENDBRANCH  17  20
ENDBRANCH   1  14
TORSDOF 7
ENDMDL
MODEL 2
REMARK VINA RESULT:      -7.3      4.016      6.885
REMARK  7 active torsions:
REMARK  status: ('A' for Active; 'I' for Inactive)
REMARK    1  A    between atoms: C2_2  and  C3_3 
REMARK       I    between atoms: C3_3  and  N1_5 
REMARK    2  A    between atoms: C5_7  and  C6_8 
REMARK    3  A    between atoms: C6_8  and  O2_9 
REMARK    4  A    between atoms: O2_9  and  C7_10 
REMARK    5  A    between atoms: N3_13  and  C9_14 
REMARK    6  A    between atoms: C11_16  and  N4_17 
REMARK    7  A    between atoms: C15_21  and  O3_22 
ROOT
HETATM    1  O2  UNL     1      23.732   1.547  51.145  1.00  0.00    -0.334 OA
ENDROOT
BRANCH   1   2
HETATM    2  C6  UNL     1      24.006   0.949  52.390  1.00  0.00     0.186 C 
BRANCH   2   3
HETATM    3  C5  UNL     1      25.450   0.559  52.573  1.00  0.00     0.058 C 
HETATM    4  C4  UNL     1      25.530  -0.809  53.233  1.00  0.00     0.135 C 
HETATM    5  N1  UNL     1      26.969  -0.859  53.537  1.00  0.00    -0.346 N 
HETATM    6  C3  UNL     1      27.806  -1.870  52.994  1.00  0.00     0.242 C 
HETATM    7  C17 UNL     1      26.903   0.317  54.384  1.00  0.00     0.158 C 
HETATM    8  O1  UNL     1      27.195  -2.681  52.254  1.00  0.00    -0.268 OA
HETATM    9  C15 UNL     1      26.176   1.392  53.581  1.00  0.00     0.146 C 
BRANCH   6  10
HETATM   10  C2  UNL     1      29.230  -1.928  53.290  1.00  0.00     0.064 C 
HETATM   11  C1  UNL     1      29.925  -0.812  53.410  1.00  0.00     0.017 C 
ENDBRANCH   6  10
BRANCH   9  12
HETATM   12  O3  UNL     1      27.065   2.282  52.981  1.00  0.00    -0.389 OA
HETATM   13  C16 UNL     1      28.270   2.385  53.649  1.00  0.00     0.202 C 
ENDBRANCH   9  12
ENDBRANCH   2   3
ENDBRANCH   1   2
BRANCH   1  14
HETATM   14  C7  UNL     1      23.909   2.912  51.019  1.00  0.00     0.162 A 
HETATM   15  N2  UNL     1      23.451   3.692  51.923  1.00  0.00    -0.247 NA
HETATM   16  C8  UNL     1      23.576   5.122  51.897  1.00  0.00     0.280 A 
HETATM   17  N3  UNL     1      24.293   5.501  50.697  1.00  0.00    -0.341 N 
HETATM   18  C13 UNL     1      24.820   4.676  49.668  1.00  0.00     0.097 A 
HETATM   19  C14 UNL     1      24.612   3.384  49.856  1.00  0.00     0.075 A 
BRANCH  17  20
HETATM   20  C9  UNL     1      24.483   6.924  50.558  1.00  0.00     0.024 C 
HETATM   21  C10 UNL     1      23.335   7.840  50.487  1.00  0.00     0.070 C 
HETATM   22  C11 UNL     1      25.708   7.417  50.492  1.00  0.00     0.107 C 
BRANCH  22  23
HETATM   23  N4  UNL     1      26.011   8.807  50.354  1.00  0.00    -0.402 N 
HETATM   24  C12 UNL     1      27.378   9.257  50.078  1.00  0.00     0.145 C 
HETATM   25  H15 UNL     1      25.344   9.611  50.428  1.00  0.00     0.158 HD
ENDBRANCH  22  23
ENDBRANCH  17  20
ENDBRANCH   1  14
TORSDOF 7
ENDMDL
MODEL 3
REMARK VINA RESULT:      -7.1      5.523      9.169
REMARK  7 active torsions:
REMARK  status: ('A' for Active; 'I' for Inactive)
REMARK    1  A    between atoms: C2_2  and  C3_3 
REMARK       I    between atoms: C3_3  and  N1_5 
REMARK    2  A    between atoms: C5_7  and  C6_8 
REMARK    3  A    between atoms: C6_8  and  O2_9 
REMARK    4  A    between atoms: O2_9  and  C7_10 
REMARK    5  A    between atoms: N3_13  and  C9_14 
REMARK    6  A    between atoms: C11_16  and  N4_17 
REMARK    7  A    between atoms: C15_21  and  O3_22 
ROOT
HETATM    1  O2  UNL     1      25.326   3.650  49.863  1.00  0.00    -0.334 OA
ENDROOT
BRANCH   1   2
HETATM    2  C6  UNL     1      24.576   3.268  50.994  1.00  0.00     0.186 C 
BRANCH   2   3
HETATM    3  C5  UNL     1      25.353   2.448  51.991  1.00  0.00     0.058 C 
HETATM    4  C4  UNL     1      26.766   2.221  51.476  1.00  0.00     0.135 C 
HETATM    5  N1  UNL     1      27.231   1.219  52.450  1.00  0.00    -0.346 N 
HETATM    6  C3  UNL     1      28.350   1.467  53.288  1.00  0.00     0.242 C 
HETATM    7  C17 UNL     1      26.196   0.274  52.078  1.00  0.00     0.158 C 
HETATM    8  O1  UNL     1      28.871   2.596  53.107  1.00  0.00    -0.268 OA
HETATM    9  C15 UNL     1      24.875   1.037  52.113  1.00  0.00     0.146 C 
BRANCH   6  10
HETATM   10  C2  UNL     1      28.817   0.483  54.253  1.00  0.00     0.064 C 
HETATM   11  C1  UNL     1      29.671  -0.453  53.883  1.00  0.00     0.017 C 
ENDBRANCH   6  10
BRANCH   9  12
HETATM   12  O3  UNL     1      24.182   0.820  53.303  1.00  0.00    -0.389 OA
HETATM   13  C16 UNL     1      23.689  -0.465  53.423  1.00  0.00     0.202 C 
ENDBRANCH   9  12
ENDBRANCH   2   3
ENDBRANCH   1   2
BRANCH   1  14
HETATM   14  C7  UNL     1      25.717   4.971  49.752  1.00  0.00     0.162 A 
HETATM   15  N2  UNL     1      25.123   5.865  50.445  1.00  0.00    -0.247 NA
HETATM   16  C8  UNL     1      25.444   7.263  50.410  1.00  0.00     0.280 A 
HETATM   17  N3  UNL     1      26.531   7.463  49.473  1.00  0.00    -0.341 N 
HETATM   18  C13 UNL     1      27.222   6.508  48.683  1.00  0.00     0.097 A 
HETATM   19  C14 UNL     1      26.793   5.267  48.843  1.00  0.00     0.075 A 
BRANCH  17  20
HETATM   20  C9  UNL     1      26.946   8.839  49.350  1.00  0.00     0.024 C 
HETATM   21  C10 UNL     1      26.005   9.881  48.915  1.00  0.00     0.070 C 
HETATM   22  C11 UNL     1      28.195   9.173  49.632  1.00  0.00     0.107 C 
BRANCH  22  23
HETATM   23  N4  UNL     1      28.712  10.502  49.545  1.00  0.00    -0.402 N 
HETATM   24  C12 UNL     1      29.999  10.770  48.898  1.00  0.00     0.145 C 
HETATM   25  H15 UNL     1      28.268  11.380  49.906  1.00  0.00     0.158 HD
ENDBRANCH  22  23
ENDBRANCH  17  20
ENDBRANCH   1  14
TORSDOF 7
ENDMDL
MODEL 4
REMARK VINA RESULT:      -7.1      1.474      2.676
REMARK  7 active torsions:
REMARK  status: ('A' for Active; 'I' for Inactive)
REMARK    1  A    between atoms: C2_2  and  C3_3 
REMARK       I    between atoms: C3_3  and  N1_5 
REMARK    2  A    between atoms: C5_7  and  C6_8 
REMARK    3  A    between atoms: C6_8  and  O2_9 
REMARK    4  A    between atoms: O2_9  and  C7_10 
REMARK    5  A    between atoms: N3_13  and  C9_14 
REMARK    6  A    between atoms: C11_16  and  N4_17 
REMARK    7  A    between atoms: C15_21  and  O3_22 
ROOT
HETATM    1  O2  UNL     1      22.992   1.389  51.919  1.00  0.00    -0.334 OA
ENDROOT
BRANCH   1   2
HETATM    2  C6  UNL     1      23.695   1.947  53.004  1.00  0.00     0.186 C 
BRANCH   2   3
HETATM    3  C5  UNL     1      25.036   1.306  53.255  1.00  0.00     0.058 C 
HETATM    4  C4  UNL     1      26.140   2.199  52.712  1.00  0.00     0.135 C 
HETATM    5  N1  UNL     1      27.286   1.283  52.829  1.00  0.00    -0.346 N 
HETATM    6  C3  UNL     1      28.411   1.606  53.634  1.00  0.00     0.242 C 
HETATM    7  C17 UNL     1      26.686   0.305  51.942  1.00  0.00     0.158 C 
HETATM    8  O1  UNL     1      28.312   2.718  54.210  1.00  0.00    -0.268 OA
HETATM    9  C15 UNL     1      25.269   0.064  52.454  1.00  0.00     0.146 C 
BRANCH   6  10
HETATM   10  C2  UNL     1      29.549   0.707  53.756  1.00  0.00     0.064 C 
HETATM   11  C1  UNL     1      29.354  -0.589  53.912  1.00  0.00     0.017 C 
ENDBRANCH   6  10
BRANCH   9  12
HETATM   12  O3  UNL     1      25.188  -1.085  53.237  1.00  0.00    -0.389 OA
HETATM   13  C16 UNL     1      25.093  -0.820  54.590  1.00  0.00     0.202 C 
ENDBRANCH   9  12
ENDBRANCH   2   3
ENDBRANCH   1   2
BRANCH   1  14
HETATM   14  C7  UNL     1      21.761   0.808  52.164  1.00  0.00     0.162 A 
HETATM   15  N2  UNL     1      20.771   1.085  51.405  1.00  0.00    -0.247 NA
HETATM   16  C8  UNL     1      19.452   0.543  51.564  1.00  0.00     0.280 A 
HETATM   17  N3  UNL     1      19.454  -0.346  52.708  1.00  0.00    -0.341 N 
HETATM   18  C13 UNL     1      20.522  -0.685  53.580  1.00  0.00     0.097 A 
HETATM   19  C14 UNL     1      21.666  -0.092  53.283  1.00  0.00     0.075 A 
BRANCH  17  20
HETATM   20  C9  UNL     1      18.174  -0.957  52.972  1.00  0.00     0.024 C 
HETATM   21  C10 UNL     1      18.078  -2.257  53.650  1.00  0.00     0.070 C 
HETATM   22  C11 UNL     1      17.065  -0.340  52.597  1.00  0.00     0.107 C 
BRANCH  22  23
HETATM   23  N4  UNL     1      15.748  -0.853  52.807  1.00  0.00    -0.402 N 
HETATM   24  C12 UNL     1      14.618   0.047  53.050  1.00  0.00     0.145 C 
HETATM   25  H15 UNL     1      15.453  -1.859  52.812  1.00  0.00     0.158 HD
ENDBRANCH  22  23
ENDBRANCH  17  20
ENDBRANCH   1  14
TORSDOF 7
ENDMDL
MODEL 5
REMARK VINA RESULT:      -6.8      5.572      9.579
REMARK  7 active torsions:
REMARK  status: ('A' for Active; 'I' for Inactive)
REMARK    1  A    between atoms: C2_2  and  C3_3 
REMARK       I    between atoms: C3_3  and  N1_5 
REMARK    2  A    between atoms: C5_7  and  C6_8 
REMARK    3  A    between atoms: C6_8  and  O2_9 
REMARK    4  A    between atoms: O2_9  and  C7_10 
REMARK    5  A    between atoms: N3_13  and  C9_14 
REMARK    6  A    between atoms: C11_16  and  N4_17 
REMARK    7  A    between atoms: C15_21  and  O3_22 
ROOT
HETATM    1  O2  UNL     1      26.154   3.126  49.816  1.00  0.00    -0.334 OA
ENDROOT
BRANCH   1   2
HETATM    2  C6  UNL     1      26.528   2.698  51.105  1.00  0.00     0.186 C 
BRANCH   2   3
HETATM    3  C5  UNL     1      25.701   1.553  51.630  1.00  0.00     0.058 C 
HETATM    4  C4  UNL     1      24.684   2.073  52.634  1.00  0.00     0.135 C 
HETATM    5  N1  UNL     1      24.195   0.798  53.182  1.00  0.00    -0.346 N 
HETATM    6  C3  UNL     1      22.828   0.425  53.079  1.00  0.00     0.242 C 
HETATM    7  C17 UNL     1      25.510   0.418  53.660  1.00  0.00     0.158 C 
HETATM    8  O1  UNL     1      22.120   1.278  52.489  1.00  0.00    -0.268 OA
HETATM    9  C15 UNL     1      26.470   0.599  52.488  1.00  0.00     0.146 C 
BRANCH   6  10
HETATM   10  C2  UNL     1      22.335  -0.834  53.619  1.00  0.00     0.064 C 
HETATM   11  C1  UNL     1      22.202  -0.987  54.923  1.00  0.00     0.017 C 
ENDBRANCH   6  10
BRANCH   9  12
HETATM   12  O3  UNL     1      26.724  -0.604  51.834  1.00  0.00    -0.389 OA
HETATM   13  C16 UNL     1      26.817  -1.684  52.692  1.00  0.00     0.202 C 
ENDBRANCH   9  12
ENDBRANCH   2   3
ENDBRANCH   1   2
BRANCH   1  14
HETATM   14  C7  UNL     1      26.655   4.329  49.353  1.00  0.00     0.162 A 
HETATM   15  N2  UNL     1      27.812   4.362  48.811  1.00  0.00    -0.247 NA
HETATM   16  C8  UNL     1      28.431   5.551  48.297  1.00  0.00     0.280 A 
HETATM   17  N3  UNL     1      27.529   6.665  48.500  1.00  0.00    -0.341 N 
HETATM   18  C13 UNL     1      26.239   6.680  49.094  1.00  0.00     0.097 A 
HETATM   19  C14 UNL     1      25.827   5.495  49.512  1.00  0.00     0.075 A 
BRANCH  17  20
HETATM   20  C9  UNL     1      28.043   7.925  48.020  1.00  0.00     0.024 C 
HETATM   21  C10 UNL     1      28.135   8.208  46.580  1.00  0.00     0.070 C 
HETATM   22  C11 UNL     1      28.440   8.842  48.885  1.00  0.00     0.107 C 
BRANCH  22  23
HETATM   23  N4  UNL     1      28.965  10.120  48.521  1.00  0.00    -0.402 N 
HETATM   24  C12 UNL     1      28.200  11.347  48.763  1.00  0.00     0.145 C 
HETATM   25  H15 UNL     1      29.890  10.320  48.071  1.00  0.00     0.158 HD
ENDBRANCH  22  23
ENDBRANCH  17  20
ENDBRANCH   1  14
TORSDOF 7
ENDMDL
MODEL 6
REMARK VINA RESULT:      -6.7      1.720      2.556
REMARK  7 active torsions:
REMARK  status: ('A' for Active; 'I' for Inactive)
REMARK    1  A    between atoms: C2_2  and  C3_3 
REMARK       I    between atoms: C3_3  and  N1_5 
REMARK    2  A    between atoms: C5_7  and  C6_8 
REMARK    3  A    between atoms: C6_8  and  O2_9 
REMARK    4  A    between atoms: O2_9  and  C7_10 
REMARK    5  A    between atoms: N3_13  and  C9_14 
REMARK    6  A    between atoms: C11_16  and  N4_17 
REMARK    7  A    between atoms: C15_21  and  O3_22 
ROOT
HETATM    1  O2  UNL     1      23.070  -0.075  53.294  1.00  0.00    -0.334 OA
ENDROOT
BRANCH   1   2
HETATM    2  C6  UNL     1      23.956   0.957  52.928  1.00  0.00     0.186 C 
BRANCH   2   3
HETATM    3  C5  UNL     1      25.411   0.580  53.041  1.00  0.00     0.058 C 
HETATM    4  C4  UNL     1      25.529  -0.874  53.472  1.00  0.00     0.135 C 
HETATM    5  N1  UNL     1      26.972  -0.935  53.760  1.00  0.00    -0.346 N 
HETATM    6  C3  UNL     1      27.829  -1.824  53.059  1.00  0.00     0.242 C 
HETATM    7  C17 UNL     1      26.882   0.088  54.784  1.00  0.00     0.158 C 
HETATM    8  O1  UNL     1      27.233  -2.521  52.200  1.00  0.00    -0.268 OA
HETATM    9  C15 UNL     1      26.123   1.259  54.167  1.00  0.00     0.146 C 
BRANCH   6  10
HETATM   10  C2  UNL     1      29.256  -1.892  53.337  1.00  0.00     0.064 C 
HETATM   11  C1  UNL     1      29.936  -0.786  53.574  1.00  0.00     0.017 C 
ENDBRANCH   6  10
BRANCH   9  12
HETATM   12  O3  UNL     1      26.985   2.256  53.715  1.00  0.00    -0.389 OA
HETATM   13  C16 UNL     1      27.309   2.133  52.377  1.00  0.00     0.202 C 
ENDBRANCH   9  12
ENDBRANCH   2   3
ENDBRANCH   1   2
BRANCH   1  14
HETATM   14  C7  UNL     1      21.788  -0.052  52.778  1.00  0.00     0.162 A 
HETATM   15  N2  UNL     1      20.810  -0.444  53.503  1.00  0.00    -0.247 NA
HETATM   16  C8  UNL     1      19.441  -0.464  53.074  1.00  0.00     0.280 A 
HETATM   17  N3  UNL     1      19.377   0.028  51.712  1.00  0.00    -0.341 N 
HETATM   18  C13 UNL     1      20.429   0.473  50.869  1.00  0.00     0.097 A 
HETATM   19  C14 UNL     1      21.625   0.422  51.429  1.00  0.00     0.075 A 
BRANCH  17  20
HETATM   20  C9  UNL     1      18.042   0.056  51.166  1.00  0.00     0.024 C 
HETATM   21  C10 UNL     1      16.899  -0.468  51.927  1.00  0.00     0.070 C 
HETATM   22  C11 UNL     1      17.840   0.560  49.961  1.00  0.00     0.107 C 
BRANCH  22  23
HETATM   23  N4  UNL     1      16.562   0.638  49.324  1.00  0.00    -0.402 N 
HETATM   24  C12 UNL     1      16.193   1.800  48.512  1.00  0.00     0.145 C 
HETATM   25  H15 UNL     1      15.794  -0.073  49.358  1.00  0.00     0.158 HD
ENDBRANCH  22  23
ENDBRANCH  17  20
ENDBRANCH   1  14
TORSDOF 7
ENDMDL
MODEL 7
REMARK VINA RESULT:      -6.6      4.114      6.178
REMARK  7 active torsions:
REMARK  status: ('A' for Active; 'I' for Inactive)
REMARK    1  A    between atoms: C2_2  and  C3_3 
REMARK       I    between atoms: C3_3  and  N1_5 
REMARK    2  A    between atoms: C5_7  and  C6_8 
REMARK    3  A    between atoms: C6_8  and  O2_9 
REMARK    4  A    between atoms: O2_9  and  C7_10 
REMARK    5  A    between atoms: N3_13  and  C9_14 
REMARK    6  A    between atoms: C11_16  and  N4_17 
REMARK    7  A    between atoms: C15_21  and  O3_22 
ROOT
HETATM    1  O2  UNL     1      23.104   1.284  51.380  1.00  0.00    -0.334 OA
ENDROOT
BRANCH   1   2
HETATM    2  C6  UNL     1      23.537   1.957  52.539  1.00  0.00     0.186 C 
BRANCH   2   3
HETATM    3  C5  UNL     1      24.678   1.275  53.249  1.00  0.00     0.058 C 
HETATM    4  C4  UNL     1      25.978   1.548  52.508  1.00  0.00     0.135 C 
HETATM    5  N1  UNL     1      26.868   0.606  53.204  1.00  0.00    -0.346 N 
HETATM    6  C3  UNL     1      28.016   1.056  53.909  1.00  0.00     0.242 C 
HETATM    7  C17 UNL     1      26.075  -0.543  52.813  1.00  0.00     0.158 C 
HETATM    8  O1  UNL     1      28.171   2.302  53.868  1.00  0.00    -0.268 OA
HETATM    9  C15 UNL     1      24.628  -0.218  53.174  1.00  0.00     0.146 C 
BRANCH   6  10
HETATM   10  C2  UNL     1      28.903   0.132  54.600  1.00  0.00     0.064 C 
HETATM   11  C1  UNL     1      29.641  -0.717  53.910  1.00  0.00     0.017 C 
ENDBRANCH   6  10
BRANCH   9  12
HETATM   12  O3  UNL     1      24.254  -0.790  54.389  1.00  0.00    -0.389 OA
HETATM   13  C16 UNL     1      22.890  -0.965  54.514  1.00  0.00     0.202 C 
ENDBRANCH   9  12
ENDBRANCH   2   3
ENDBRANCH   1   2
BRANCH   1  14
HETATM   14  C7  UNL     1      22.839   2.031  50.248  1.00  0.00     0.162 A 
HETATM   15  N2  UNL     1      21.848   1.718  49.504  1.00  0.00    -0.247 NA
HETATM   16  C8  UNL     1      21.479   2.421  48.308  1.00  0.00     0.280 A 
HETATM   17  N3  UNL     1      22.409   3.514  48.110  1.00  0.00    -0.341 N 
HETATM   18  C13 UNL     1      23.521   3.901  48.903  1.00  0.00     0.097 A 
HETATM   19  C14 UNL     1      23.712   3.141  49.968  1.00  0.00     0.075 A 
BRANCH  17  20
HETATM   20  C9  UNL     1      22.140   4.300  46.931  1.00  0.00     0.024 C 
HETATM   21  C10 UNL     1      22.410   5.745  46.903  1.00  0.00     0.070 C 
HETATM   22  C11 UNL     1      21.640   3.716  45.855  1.00  0.00     0.107 C 
BRANCH  22  23
HETATM   23  N4  UNL     1      21.336   4.397  44.636  1.00  0.00    -0.402 N 
HETATM   24  C12 UNL     1      20.450   3.794  43.636  1.00  0.00     0.145 C 
HETATM   25  H15 UNL     1      21.682   5.338  44.333  1.00  0.00     0.158 HD
ENDBRANCH  22  23
ENDBRANCH  17  20
ENDBRANCH   1  14
TORSDOF 7
ENDMDL
MODEL 8
REMARK VINA RESULT:      -6.6      5.455      9.301
REMARK  7 active torsions:
REMARK  status: ('A' for Active; 'I' for Inactive)
REMARK    1  A    between atoms: C2_2  and  C3_3 
REMARK       I    between atoms: C3_3  and  N1_5 
REMARK    2  A    between atoms: C5_7  and  C6_8 
REMARK    3  A    between atoms: C6_8  and  O2_9 
REMARK    4  A    between atoms: O2_9  and  C7_10 
REMARK    5  A    between atoms: N3_13  and  C9_14 
REMARK    6  A    between atoms: C11_16  and  N4_17 
REMARK    7  A    between atoms: C15_21  and  O3_22 
ROOT
HETATM    1  O2  UNL     1      26.089   2.923  50.117  1.00  0.00    -0.334 OA
ENDROOT
BRANCH   1   2
HETATM    2  C6  UNL     1      26.660   2.465  51.320  1.00  0.00     0.186 C 
BRANCH   2   3
HETATM    3  C5  UNL     1      25.655   1.933  52.308  1.00  0.00     0.058 C 
HETATM    4  C4  UNL     1      25.576   0.419  52.192  1.00  0.00     0.135 C 
HETATM    5  N1  UNL     1      24.392   0.162  53.029  1.00  0.00    -0.346 N 
HETATM    6  C3  UNL     1      24.470  -0.653  54.189  1.00  0.00     0.242 C 
HETATM    7  C17 UNL     1      23.533   0.969  52.184  1.00  0.00     0.158 C 
HETATM    8  O1  UNL     1      25.621  -1.107  54.406  1.00  0.00    -0.268 OA
HETATM    9  C15 UNL     1      24.242   2.306  51.990  1.00  0.00     0.146 C 
BRANCH   6  10
HETATM   10  C2  UNL     1      23.305  -0.912  55.022  1.00  0.00     0.064 C 
HETATM   11  C1  UNL     1      22.190  -1.362  54.478  1.00  0.00     0.017 C 
ENDBRANCH   6  10
BRANCH   9  12
HETATM   12  O3  UNL     1      23.752   3.283  52.854  1.00  0.00    -0.389 OA
HETATM   13  C16 UNL     1      22.875   4.161  52.247  1.00  0.00     0.202 C 
ENDBRANCH   9  12
ENDBRANCH   2   3
ENDBRANCH   1   2
BRANCH   1  14
HETATM   14  C7  UNL     1      26.476   4.159  49.635  1.00  0.00     0.162 A 
HETATM   15  N2  UNL     1      27.562   4.264  48.969  1.00  0.00    -0.247 NA
HETATM   16  C8  UNL     1      28.061   5.494  48.423  1.00  0.00     0.280 A 
HETATM   17  N3  UNL     1      27.134   6.556  48.756  1.00  0.00    -0.341 N 
HETATM   18  C13 UNL     1      25.921   6.492  49.490  1.00  0.00     0.097 A 
HETATM   19  C14 UNL     1      25.616   5.278  49.918  1.00  0.00     0.075 A 
BRANCH  17  20
HETATM   20  C9  UNL     1      27.530   7.851  48.257  1.00  0.00     0.024 C 
HETATM   21  C10 UNL     1      27.621   8.113  46.814  1.00  0.00     0.070 C 
HETATM   22  C11 UNL     1      27.818   8.820  49.109  1.00  0.00     0.107 C 
BRANCH  22  23
HETATM   23  N4  UNL     1      28.220  10.137  48.726  1.00  0.00    -0.402 N 
HETATM   24  C12 UNL     1      29.620  10.557  48.824  1.00  0.00     0.145 C 
HETATM   25  H15 UNL     1      27.608  10.903  48.356  1.00  0.00     0.158 HD
ENDBRANCH  22  23
ENDBRANCH  17  20
ENDBRANCH   1  14
TORSDOF 7
ENDMDL
MODEL 9
REMARK VINA RESULT:      -6.5      5.241      9.639
REMARK  7 active torsions:
REMARK  status: ('A' for Active; 'I' for Inactive)
REMARK    1  A    between atoms: C2_2  and  C3_3 
REMARK       I    between atoms: C3_3  and  N1_5 
REMARK    2  A    between atoms: C5_7  and  C6_8 
REMARK    3  A    between atoms: C6_8  and  O2_9 
REMARK    4  A    between atoms: O2_9  and  C7_10 
REMARK    5  A    between atoms: N3_13  and  C9_14 
REMARK    6  A    between atoms: C11_16  and  N4_17 
REMARK    7  A    between atoms: C15_21  and  O3_22 
ROOT
HETATM    1  O2  UNL     1      24.585   4.614  50.355  1.00  0.00    -0.334 OA
ENDROOT
BRANCH   1   2
HETATM    2  C6  UNL     1      24.047   3.436  49.801  1.00  0.00     0.186 C 
BRANCH   2   3
HETATM    3  C5  UNL     1      23.976   2.285  50.770  1.00  0.00     0.058 C 
HETATM    4  C4  UNL     1      22.637   2.307  51.493  1.00  0.00     0.135 C 
HETATM    5  N1  UNL     1      22.893   1.294  52.529  1.00  0.00    -0.346 N 
HETATM    6  C3  UNL     1      22.107   0.114  52.621  1.00  0.00     0.242 C 
HETATM    7  C17 UNL     1      23.998   2.046  53.092  1.00  0.00     0.158 C 
HETATM    8  O1  UNL     1      21.207   0.044  51.747  1.00  0.00    -0.268 OA
HETATM    9  C15 UNL     1      24.914   2.413  51.928  1.00  0.00     0.146 C 
BRANCH   6  10
HETATM   10  C2  UNL     1      22.352  -0.893  53.643  1.00  0.00     0.064 C 
HETATM   11  C1  UNL     1      21.394  -1.224  54.488  1.00  0.00     0.017 C 
ENDBRANCH   6  10
BRANCH   9  12
HETATM   12  O3  UNL     1      25.995   1.540  51.823  1.00  0.00    -0.389 OA
HETATM   13  C16 UNL     1      27.188   2.095  52.246  1.00  0.00     0.202 C 
ENDBRANCH   9  12
ENDBRANCH   2   3
ENDBRANCH   1   2
BRANCH   1  14
HETATM   14  C7  UNL     1      25.670   5.198  49.728  1.00  0.00     0.162 A 
HETATM   15  N2  UNL     1      25.719   6.469  49.608  1.00  0.00    -0.247 NA
HETATM   16  C8  UNL     1      26.793   7.182  48.977  1.00  0.00     0.280 A 
HETATM   17  N3  UNL     1      27.777   6.223  48.518  1.00  0.00    -0.341 N 
HETATM   18  C13 UNL     1      27.768   4.807  48.626  1.00  0.00     0.097 A 
HETATM   19  C14 UNL     1      26.701   4.321  49.237  1.00  0.00     0.075 A 
BRANCH  17  20
HETATM   20  C9  UNL     1      28.913   6.823  47.862  1.00  0.00     0.024 C 
HETATM   21  C10 UNL     1      28.741   7.692  46.689  1.00  0.00     0.070 C 
HETATM   22  C11 UNL     1      30.131   6.590  48.320  1.00  0.00     0.107 C 
BRANCH  22  23
HETATM   23  N4  UNL     1      31.324   7.131  47.749  1.00  0.00    -0.402 N 
HETATM   24  C12 UNL     1      32.317   7.814  48.583  1.00  0.00     0.145 C 
HETATM   25  H15 UNL     1      31.612   7.106  46.742  1.00  0.00     0.158 HD
ENDBRANCH  22  23
ENDBRANCH  17  20
ENDBRANCH   1  14
TORSDOF 7
ENDMDL
