MODEL 1
REMARK VINA RESULT:      -9.4      0.000      0.000
REMARK  3 active torsions:
REMARK  status: ('A' for Active; 'I' for Inactive)
REMARK       I    between atoms: C2_2  and  N1_4 
REMARK    1  A    between atoms: N2_7  and  C5_8 
REMARK    2  A    between atoms: C12_16  and  C13_17 
REMARK    3  A    between atoms: C18_25  and  N6_26 
ROOT
HETATM    1  C5  UNL     1      25.655   1.802  52.538  1.00  0.00     0.259 A 
HETATM    2  C6  UNL     1      25.827   2.872  51.448  1.00  0.00     0.078 A 
HETATM    3  C7  UNL     1      24.536   2.651  52.188  1.00  0.00     0.100 A 
HETATM    4  N3  UNL     1      24.008   3.712  53.062  1.00  0.00    -0.399 N 
HETATM    5  C8  UNL     1      23.104   4.585  52.366  1.00  0.00     0.157 C 
HETATM    6  C9  UNL     1      21.842   4.217  51.963  1.00  0.00     0.029 C 
HETATM    7  C10 UNL     1      20.637   3.321  51.782  1.00  0.00    -0.019 C 
HETATM    8  C11 UNL     1      21.036   2.205  52.348  1.00  0.00    -0.021 C 
HETATM    9  C12 UNL     1      22.074   1.432  53.085  1.00  0.00     0.038 C 
HETATM   10  C15 UNL     1      22.877   0.745  51.926  1.00  0.00     0.070 C 
HETATM   11  C16 UNL     1      23.446   2.085  51.320  1.00  0.00     0.044 C 
HETATM   12  N4  UNL     1      22.784   2.496  50.299  1.00  0.00    -0.248 NA
HETATM   13  C17 UNL     1      23.053   3.806  49.763  1.00  0.00     0.229 C 
HETATM   14  N5  UNL     1      22.770   5.094  49.908  1.00  0.00    -0.257 NA
HETATM   15  C18 UNL     1      21.832   5.401  51.014  1.00  0.00     0.210 C 
HETATM   16  H11 UNL     1      24.405   3.624  54.027  1.00  0.00     0.154 HD
ENDROOT
BRANCH   1  17
HETATM   17  N2  UNL     1      26.516   2.008  53.655  1.00  0.00     0.099 N 
HETATM   18  C4  UNL     1      26.418   0.944  54.644  1.00  0.00     0.293 C 
HETATM   19  C3  UNL     1      27.075  -0.332  54.209  1.00  0.00     0.156 C 
HETATM   20  N1  UNL     1      28.435  -0.047  53.841  1.00  0.00    -0.349 N 
HETATM   21  C2  UNL     1      29.364  -1.045  53.392  1.00  0.00     0.215 C 
HETATM   22  C20 UNL     1      28.859   1.335  53.942  1.00  0.00     0.156 C 
HETATM   23  C1  UNL     1      28.959  -2.460  53.289  1.00  0.00     0.117 C 
HETATM   24  O1  UNL     1      30.552  -0.697  53.080  1.00  0.00    -0.274 OA
HETATM   25  C19 UNL     1      27.863   2.191  53.182  1.00  0.00     0.293 C 
ENDBRANCH   1  17
BRANCH   9  26
HETATM   26  C13 UNL     1      21.446   0.359  53.899  1.00  0.00     0.011 C 
HETATM   27  C14 UNL     1      21.734  -0.617  54.729  1.00  0.00     0.185 C 
HETATM   28  F1  UNL     1      22.989  -0.991  55.169  1.00  0.00    -0.220 F 
ENDBRANCH   9  26
BRANCH  15  29
HETATM   29  N6  UNL     1      22.091   6.660  51.595  1.00  0.00    -0.409 N 
HETATM   30  H22 UNL     1      22.466   7.382  50.969  1.00  0.00     0.152 HD
HETATM   31  H23 UNL     1      22.537   6.617  52.534  1.00  0.00     0.152 HD
ENDBRANCH  15  29
TORSDOF 3
ENDMDL
MODEL 2
REMARK VINA RESULT:      -8.7      2.533      4.230
REMARK  3 active torsions:
REMARK  status: ('A' for Active; 'I' for Inactive)
REMARK       I    between atoms: C2_2  and  N1_4 
REMARK    1  A    between atoms: N2_7  and  C5_8 
REMARK    2  A    between atoms: C12_16  and  C13_17 
REMARK    3  A    between atoms: C18_25  and  N6_26 
ROOT
HETATM    1  C5  UNL     1      23.809   1.438  52.928  1.00  0.00     0.259 A 
HETATM    2  C6  UNL     1      22.332   1.097  53.183  1.00  0.00     0.078 A 
HETATM    3  C7  UNL     1      22.797   1.928  52.018  1.00  0.00     0.100 A 
HETATM    4  N3  UNL     1      22.614   1.424  50.647  1.00  0.00    -0.399 N 
HETATM    5  C8  UNL     1      21.374   1.862  50.070  1.00  0.00     0.157 C 
HETATM    6  C9  UNL     1      21.125   3.158  49.682  1.00  0.00     0.029 C 
HETATM    7  C10 UNL     1      21.403   4.626  49.450  1.00  0.00    -0.019 C 
HETATM    8  C11 UNL     1      22.632   4.749  49.899  1.00  0.00    -0.021 C 
HETATM    9  C12 UNL     1      23.856   4.139  50.488  1.00  0.00     0.038 C 
HETATM   10  C15 UNL     1      23.627   4.329  52.028  1.00  0.00     0.070 C 
HETATM   11  C16 UNL     1      22.378   3.369  52.115  1.00  0.00     0.044 C 
HETATM   12  N4  UNL     1      21.258   3.999  52.111  1.00  0.00    -0.248 NA
HETATM   13  C17 UNL     1      20.031   3.256  51.978  1.00  0.00     0.229 C 
HETATM   14  N5  UNL     1      19.214   2.698  51.093  1.00  0.00    -0.257 NA
HETATM   15  C18 UNL     1      19.641   2.841  49.681  1.00  0.00     0.210 C 
HETATM   16  H11 UNL     1      23.430   0.833  50.362  1.00  0.00     0.154 HD
ENDROOT
BRANCH   1  17
HETATM   17  N2  UNL     1      24.613   0.280  52.708  1.00  0.00     0.099 N 
HETATM   18  C4  UNL     1      25.655   0.500  51.716  1.00  0.00     0.293 C 
HETATM   19  C3  UNL     1      26.786   1.346  52.222  1.00  0.00     0.156 C 
HETATM   20  N1  UNL     1      27.292   0.760  53.432  1.00  0.00    -0.349 N 
HETATM   21  C2  UNL     1      28.393   1.300  54.179  1.00  0.00     0.215 C 
HETATM   22  C20 UNL     1      26.634  -0.445  53.896  1.00  0.00     0.156 C 
HETATM   23  C1  UNL     1      29.086   2.521  53.722  1.00  0.00     0.117 C 
HETATM   24  O1  UNL     1      28.771   0.714  55.247  1.00  0.00    -0.274 OA
HETATM   25  C19 UNL     1      25.143  -0.169  53.967  1.00  0.00     0.293 C 
ENDBRANCH   1  17
BRANCH   9  26
HETATM   26  C13 UNL     1      25.062   4.921  50.110  1.00  0.00     0.011 C 
HETATM   27  C14 UNL     1      26.237   4.803  49.536  1.00  0.00     0.185 C 
HETATM   28  F1  UNL     1      26.792   3.653  49.008  1.00  0.00    -0.220 F 
ENDBRANCH   9  26
BRANCH  15  29
HETATM   29  N6  UNL     1      19.246   1.738  48.894  1.00  0.00    -0.409 N 
HETATM   30  H22 UNL     1      19.663   1.674  47.959  1.00  0.00     0.152 HD
HETATM   31  H23 UNL     1      18.231   1.519  48.940  1.00  0.00     0.152 HD
ENDBRANCH  15  29
TORSDOF 3
ENDMDL
MODEL 3
REMARK VINA RESULT:      -8.4      2.840      4.776
REMARK  3 active torsions:
REMARK  status: ('A' for Active; 'I' for Inactive)
REMARK       I    between atoms: C2_2  and  N1_4 
REMARK    1  A    between atoms: N2_7  and  C5_8 
REMARK    2  A    between atoms: C12_16  and  C13_17 
REMARK    3  A    between atoms: C18_25  and  N6_26 
ROOT
HETATM    1  C5  UNL     1      21.460   1.320  53.217  1.00  0.00     0.259 A 
HETATM    2  C6  UNL     1      20.070   1.785  52.752  1.00  0.00     0.078 A 
HETATM    3  C7  UNL     1      21.313   1.944  51.920  1.00  0.00     0.100 A 
HETATM    4  N3  UNL     1      21.431   1.220  50.643  1.00  0.00    -0.399 N 
HETATM    5  C8  UNL     1      20.957   1.998  49.534  1.00  0.00     0.157 C 
HETATM    6  C9  UNL     1      21.617   3.096  49.031  1.00  0.00     0.029 C 
HETATM    7  C10 UNL     1      22.706   4.140  48.910  1.00  0.00    -0.019 C 
HETATM    8  C11 UNL     1      23.521   3.802  49.883  1.00  0.00    -0.021 C 
HETATM    9  C12 UNL     1      23.885   2.889  51.002  1.00  0.00     0.038 C 
HETATM   10  C15 UNL     1      23.225   3.587  52.242  1.00  0.00     0.070 C 
HETATM   11  C16 UNL     1      21.737   3.378  51.759  1.00  0.00     0.044 C 
HETATM   12  N4  UNL     1      21.238   4.423  51.203  1.00  0.00    -0.248 NA
HETATM   13  C17 UNL     1      19.969   4.326  50.529  1.00  0.00     0.229 C 
HETATM   14  N5  UNL     1      19.395   3.985  49.382  1.00  0.00    -0.257 NA
HETATM   15  C18 UNL     1      20.334   3.512  48.337  1.00  0.00     0.210 C 
HETATM   16  H11 UNL     1      21.835   0.266  50.800  1.00  0.00     0.154 HD
ENDROOT
BRANCH   1  17
HETATM   17  N2  UNL     1      21.524  -0.086  53.443  1.00  0.00     0.099 N 
HETATM   18  C4  UNL     1      22.529  -0.743  52.620  1.00  0.00     0.293 C 
HETATM   19  C3  UNL     1      23.934  -0.476  53.074  1.00  0.00     0.156 C 
HETATM   20  N1  UNL     1      24.041  -0.831  54.463  1.00  0.00    -0.349 N 
HETATM   21  C2  UNL     1      25.256  -0.721  55.221  1.00  0.00     0.215 C 
HETATM   22  C20 UNL     1      22.840  -1.325  55.103  1.00  0.00     0.156 C 
HETATM   23  C1  UNL     1      26.496  -0.229  54.589  1.00  0.00     0.117 C 
HETATM   24  O1  UNL     1      25.257  -1.054  56.452  1.00  0.00    -0.274 OA
HETATM   25  C19 UNL     1      21.725  -0.328  54.847  1.00  0.00     0.293 C 
ENDBRANCH   1  17
BRANCH   9  26
HETATM   26  C13 UNL     1      25.356   2.886  51.215  1.00  0.00     0.011 C 
HETATM   27  C14 UNL     1      26.498   2.882  50.567  1.00  0.00     0.185 C 
HETATM   28  F1  UNL     1      26.676   2.880  49.197  1.00  0.00    -0.220 F 
ENDBRANCH   9  26
BRANCH  15  29
HETATM   29  N6  UNL     1      19.746   2.546  47.495  1.00  0.00    -0.409 N 
HETATM   30  H22 UNL     1      19.387   1.700  47.953  1.00  0.00     0.152 HD
HETATM   31  H23 UNL     1      20.260   2.380  46.606  1.00  0.00     0.152 HD
ENDBRANCH  15  29
TORSDOF 3
ENDMDL
MODEL 4
REMARK VINA RESULT:      -8.4      3.354      5.632
REMARK  3 active torsions:
REMARK  status: ('A' for Active; 'I' for Inactive)
REMARK       I    between atoms: C2_2  and  N1_4 
REMARK    1  A    between atoms: N2_7  and  C5_8 
REMARK    2  A    between atoms: C12_16  and  C13_17 
REMARK    3  A    between atoms: C18_25  and  N6_26 
ROOT
HETATM    1  C5  UNL     1      23.706   4.492  51.537  1.00  0.00     0.259 A 
HETATM    2  C6  UNL     1      22.301   5.107  51.646  1.00  0.00     0.078 A 
HETATM    3  C7  UNL     1      23.222   5.358  50.483  1.00  0.00     0.100 A 
HETATM    4  N3  UNL     1      22.845   4.884  49.141  1.00  0.00    -0.399 N 
HETATM    5  C8  UNL     1      22.130   5.882  48.396  1.00  0.00     0.157 C 
HETATM    6  C9  UNL     1      22.712   7.020  47.887  1.00  0.00     0.029 C 
HETATM    7  C10 UNL     1      23.813   8.011  47.579  1.00  0.00    -0.019 C 
HETATM    8  C11 UNL     1      24.854   7.453  48.155  1.00  0.00    -0.021 C 
HETATM    9  C12 UNL     1      25.454   6.328  48.924  1.00  0.00     0.038 C 
HETATM   10  C15 UNL     1      25.306   6.810  50.409  1.00  0.00     0.070 C 
HETATM   11  C16 UNL     1      23.729   6.773  50.425  1.00  0.00     0.044 C 
HETATM   12  N4  UNL     1      23.197   7.928  50.245  1.00  0.00    -0.248 NA
HETATM   13  C17 UNL     1      21.776   8.025  50.029  1.00  0.00     0.229 C 
HETATM   14  N5  UNL     1      20.831   7.938  49.101  1.00  0.00    -0.257 NA
HETATM   15  C18 UNL     1      21.329   7.625  47.740  1.00  0.00     0.210 C 
HETATM   16  H11 UNL     1      23.169   3.899  48.997  1.00  0.00     0.154 HD
ENDROOT
BRANCH   1  17
HETATM   17  N2  UNL     1      23.683   3.067  51.497  1.00  0.00     0.099 N 
HETATM   18  C4  UNL     1      24.796   2.508  50.745  1.00  0.00     0.293 C 
HETATM   19  C3  UNL     1      26.105   2.594  51.471  1.00  0.00     0.156 C 
HETATM   20  N1  UNL     1      25.954   1.985  52.764  1.00  0.00    -0.349 N 
HETATM   21  C2  UNL     1      27.018   1.875  53.722  1.00  0.00     0.215 C 
HETATM   22  C20 UNL     1      24.642   1.462  53.086  1.00  0.00     0.156 C 
HETATM   23  C1  UNL     1      28.366   2.392  53.413  1.00  0.00     0.117 C 
HETATM   24  O1  UNL     1      26.789   1.323  54.849  1.00  0.00    -0.274 OA
HETATM   25  C19 UNL     1      23.624   2.561  52.842  1.00  0.00     0.293 C 
ENDBRANCH   1  17
BRANCH   9  26
HETATM   26  C13 UNL     1      26.905   6.210  48.629  1.00  0.00     0.011 C 
HETATM   27  C14 UNL     1      27.863   5.326  48.472  1.00  0.00     0.185 C 
HETATM   28  F1  UNL     1      27.749   3.952  48.558  1.00  0.00    -0.220 F 
ENDBRANCH   9  26
BRANCH  15  29
HETATM   29  N6  UNL     1      20.399   6.867  46.997  1.00  0.00    -0.409 N 
HETATM   30  H22 UNL     1      20.278   5.888  47.283  1.00  0.00     0.152 HD
HETATM   31  H23 UNL     1      20.438   7.024  45.970  1.00  0.00     0.152 HD
ENDBRANCH  15  29
TORSDOF 3
ENDMDL
MODEL 5
REMARK VINA RESULT:      -8.4      8.527      9.782
REMARK  3 active torsions:
REMARK  status: ('A' for Active; 'I' for Inactive)
REMARK       I    between atoms: C2_2  and  N1_4 
REMARK    1  A    between atoms: N2_7  and  C5_8 
REMARK    2  A    between atoms: C12_16  and  C13_17 
REMARK    3  A    between atoms: C18_25  and  N6_26 
ROOT
HETATM    1  C5  UNL     1      31.827   7.855  47.539  1.00  0.00     0.259 A 
HETATM    2  C6  UNL     1      32.120   9.303  47.115  1.00  0.00     0.078 A 
HETATM    3  C7  UNL     1      30.850   8.889  47.806  1.00  0.00     0.100 A 
HETATM    4  N3  UNL     1      30.552   9.407  49.152  1.00  0.00    -0.399 N 
HETATM    5  C8  UNL     1      29.773  10.613  49.107  1.00  0.00     0.157 C 
HETATM    6  C9  UNL     1      28.448  10.654  48.742  1.00  0.00     0.029 C 
HETATM    7  C10 UNL     1      27.102  10.127  48.296  1.00  0.00    -0.019 C 
HETATM    8  C11 UNL     1      27.337   8.840  48.174  1.00  0.00    -0.021 C 
HETATM    9  C12 UNL     1      28.268   7.683  48.287  1.00  0.00     0.038 C 
HETATM   10  C15 UNL     1      28.884   7.596  46.847  1.00  0.00     0.070 C 
HETATM   11  C16 UNL     1      29.638   8.980  46.921  1.00  0.00     0.044 C 
HETATM   12  N4  UNL     1      29.002   9.931  46.336  1.00  0.00    -0.248 NA
HETATM   13  C17 UNL     1      29.458  11.287  46.494  1.00  0.00     0.229 C 
HETATM   14  N5  UNL     1      29.404  12.343  47.296  1.00  0.00    -0.257 NA
HETATM   15  C18 UNL     1      28.588  12.149  48.519  1.00  0.00     0.210 C 
HETATM   16  H11 UNL     1      30.979   8.791  49.884  1.00  0.00     0.154 HD
ENDROOT
BRANCH   1  17
HETATM   17  N2  UNL     1      32.767   7.356  48.487  1.00  0.00     0.099 N 
HETATM   18  C4  UNL     1      32.237   6.257  49.280  1.00  0.00     0.293 C 
HETATM   19  C3  UNL     1      32.133   4.971  48.516  1.00  0.00     0.156 C 
HETATM   20  N1  UNL     1      33.418   4.670  47.946  1.00  0.00    -0.349 N 
HETATM   21  C2  UNL     1      33.686   3.497  47.163  1.00  0.00     0.215 C 
HETATM   22  C20 UNL     1      34.479   5.622  48.199  1.00  0.00     0.156 C 
HETATM   23  C1  UNL     1      32.624   2.507  46.900  1.00  0.00     0.117 C 
HETATM   24  O1  UNL     1      34.859   3.315  46.693  1.00  0.00    -0.274 OA
HETATM   25  C19 UNL     1      33.981   7.000  47.802  1.00  0.00     0.293 C 
ENDBRANCH   1  17
BRANCH   9  26
HETATM   26  C13 UNL     1      27.512   6.427  48.532  1.00  0.00     0.011 C 
HETATM   27  C14 UNL     1      27.631   5.120  48.496  1.00  0.00     0.185 C 
HETATM   28  F1  UNL     1      28.753   4.398  48.137  1.00  0.00    -0.220 F 
ENDBRANCH   9  26
BRANCH  15  29
HETATM   29  N6  UNL     1      29.084  12.892  49.611  1.00  0.00    -0.409 N 
HETATM   30  H22 UNL     1      28.395  13.440  50.139  1.00  0.00     0.152 HD
HETATM   31  H23 UNL     1      29.985  13.377  49.427  1.00  0.00     0.152 HD
ENDBRANCH  15  29
TORSDOF 3
ENDMDL
MODEL 6
REMARK VINA RESULT:      -8.3      2.914      4.976
REMARK  3 active torsions:
REMARK  status: ('A' for Active; 'I' for Inactive)
REMARK       I    between atoms: C2_2  and  N1_4 
REMARK    1  A    between atoms: N2_7  and  C5_8 
REMARK    2  A    between atoms: C12_16  and  C13_17 
REMARK    3  A    between atoms: C18_25  and  N6_26 
ROOT
HETATM    1  C5  UNL     1      21.223   2.432  52.426  1.00  0.00     0.259 A 
HETATM    2  C6  UNL     1      20.319   3.404  51.652  1.00  0.00     0.078 A 
HETATM    3  C7  UNL     1      21.748   3.128  51.271  1.00  0.00     0.100 A 
HETATM    4  N3  UNL     1      22.043   2.475  49.984  1.00  0.00    -0.399 N 
HETATM    5  C8  UNL     1      22.268   3.428  48.933  1.00  0.00     0.157 C 
HETATM    6  C9  UNL     1      23.388   4.223  48.847  1.00  0.00     0.029 C 
HETATM    7  C10 UNL     1      24.735   4.789  49.237  1.00  0.00    -0.019 C 
HETATM    8  C11 UNL     1      25.005   4.124  50.337  1.00  0.00    -0.021 C 
HETATM    9  C12 UNL     1      24.636   3.088  51.341  1.00  0.00     0.038 C 
HETATM   10  C15 UNL     1      23.868   3.920  52.426  1.00  0.00     0.070 C 
HETATM   11  C16 UNL     1      22.657   4.306  51.491  1.00  0.00     0.044 C 
HETATM   12  N4  UNL     1      22.759   5.487  50.998  1.00  0.00    -0.248 NA
HETATM   13  C17 UNL     1      21.842   5.905  49.969  1.00  0.00     0.229 C 
HETATM   14  N5  UNL     1      21.615   5.860  48.661  1.00  0.00    -0.257 NA
HETATM   15  C18 UNL     1      22.638   5.122  47.882  1.00  0.00     0.210 C 
HETATM   16  H11 UNL     1      22.024   1.434  50.089  1.00  0.00     0.154 HD
ENDROOT
BRANCH   1  17
HETATM   17  N2  UNL     1      20.730   1.094  52.417  1.00  0.00     0.099 N 
HETATM   18  C4  UNL     1      21.619   0.172  51.725  1.00  0.00     0.293 C 
HETATM   19  C3  UNL     1      22.858  -0.154  52.504  1.00  0.00     0.156 C 
HETATM   20  N1  UNL     1      22.471  -0.632  53.804  1.00  0.00    -0.349 N 
HETATM   21  C2  UNL     1      23.407  -1.054  54.808  1.00  0.00     0.215 C 
HETATM   22  C20 UNL     1      21.051  -0.681  54.082  1.00  0.00     0.156 C 
HETATM   23  C1  UNL     1      24.859  -1.023  54.545  1.00  0.00     0.117 C 
HETATM   24  O1  UNL     1      22.972  -1.459  55.936  1.00  0.00    -0.274 OA
HETATM   25  C19 UNL     1      20.463   0.683  53.770  1.00  0.00     0.293 C 
ENDBRANCH   1  17
BRANCH   9  26
HETATM   26  C13 UNL     1      25.853   2.525  51.981  1.00  0.00     0.011 C 
HETATM   27  C14 UNL     1      26.526   1.407  52.127  1.00  0.00     0.185 C 
HETATM   28  F1  UNL     1      26.206   0.169  51.602  1.00  0.00    -0.220 F 
ENDBRANCH   9  26
BRANCH  15  29
HETATM   29  N6  UNL     1      22.085   4.487  46.750  1.00  0.00    -0.409 N 
HETATM   30  H22 UNL     1      22.410   4.822  45.836  1.00  0.00     0.152 HD
HETATM   31  H23 UNL     1      21.062   4.306  46.814  1.00  0.00     0.152 HD
ENDBRANCH  15  29
TORSDOF 3
ENDMDL
MODEL 7
REMARK VINA RESULT:      -8.3      2.026      2.943
REMARK  3 active torsions:
REMARK  status: ('A' for Active; 'I' for Inactive)
REMARK       I    between atoms: C2_2  and  N1_4 
REMARK    1  A    between atoms: N2_7  and  C5_8 
REMARK    2  A    between atoms: C12_16  and  C13_17 
REMARK    3  A    between atoms: C18_25  and  N6_26 
ROOT
HETATM    1  C5  UNL     1      23.647   2.316  50.530  1.00  0.00     0.259 A 
HETATM    2  C6  UNL     1      23.119   2.908  49.213  1.00  0.00     0.078 A 
HETATM    3  C7  UNL     1      22.256   2.701  50.428  1.00  0.00     0.100 A 
HETATM    4  N3  UNL     1      21.675   3.866  51.115  1.00  0.00    -0.399 N 
HETATM    5  C8  UNL     1      20.367   4.191  50.618  1.00  0.00     0.157 C 
HETATM    6  C9  UNL     1      19.247   3.429  50.855  1.00  0.00     0.029 C 
HETATM    7  C10 UNL     1      18.423   2.287  51.408  1.00  0.00    -0.019 C 
HETATM    8  C11 UNL     1      19.326   1.583  52.053  1.00  0.00    -0.021 C 
HETATM    9  C12 UNL     1      20.732   1.394  52.506  1.00  0.00     0.038 C 
HETATM   10  C15 UNL     1      21.347   0.519  51.360  1.00  0.00     0.070 C 
HETATM   11  C16 UNL     1      21.222   1.624  50.241  1.00  0.00     0.044 C 
HETATM   12  N4  UNL     1      20.193   1.464  49.489  1.00  0.00    -0.248 NA
HETATM   13  C17 UNL     1      19.831   2.501  48.558  1.00  0.00     0.229 C 
HETATM   14  N5  UNL     1      19.181   3.653  48.446  1.00  0.00    -0.257 NA
HETATM   15  C18 UNL     1      18.559   4.136  49.703  1.00  0.00     0.210 C 
HETATM   16  H11 UNL     1      22.341   4.237  51.833  1.00  0.00     0.154 HD
ENDROOT
BRANCH   1  17
HETATM   17  N2  UNL     1      24.672   3.111  51.121  1.00  0.00     0.099 N 
HETATM   18  C4  UNL     1      24.511   3.255  52.561  1.00  0.00     0.293 C 
HETATM   19  C3  UNL     1      24.858   2.011  53.324  1.00  0.00     0.156 C 
HETATM   20  N1  UNL     1      26.186   1.602  52.956  1.00  0.00    -0.349 N 
HETATM   21  C2  UNL     1      26.848   0.455  53.510  1.00  0.00     0.215 C 
HETATM   22  C20 UNL     1      26.867   2.417  51.971  1.00  0.00     0.156 C 
HETATM   23  C1  UNL     1      26.179  -0.385  54.523  1.00  0.00     0.117 C 
HETATM   24  O1  UNL     1      28.028   0.165  53.119  1.00  0.00    -0.274 OA
HETATM   25  C19 UNL     1      25.954   2.563  50.767  1.00  0.00     0.293 C 
ENDBRANCH   1  17
BRANCH   9  26
HETATM   26  C13 UNL     1      20.773   0.595  53.758  1.00  0.00     0.011 C 
HETATM   27  C14 UNL     1      21.553  -0.195  54.460  1.00  0.00     0.185 C 
HETATM   28  F1  UNL     1      22.842  -0.581  54.147  1.00  0.00    -0.220 F 
ENDBRANCH   9  26
BRANCH  15  29
HETATM   29  N6  UNL     1      18.530   5.545  49.772  1.00  0.00    -0.409 N 
HETATM   30  H22 UNL     1      18.988   6.048  49.003  1.00  0.00     0.152 HD
HETATM   31  H23 UNL     1      18.709   5.933  50.720  1.00  0.00     0.152 HD
ENDBRANCH  15  29
TORSDOF 3
ENDMDL
MODEL 8
REMARK VINA RESULT:      -7.9      4.696      7.278
REMARK  3 active torsions:
REMARK  status: ('A' for Active; 'I' for Inactive)
REMARK       I    between atoms: C2_2  and  N1_4 
REMARK    1  A    between atoms: N2_7  and  C5_8 
REMARK    2  A    between atoms: C12_16  and  C13_17 
REMARK    3  A    between atoms: C18_25  and  N6_26 
ROOT
HETATM    1  C5  UNL     1      24.467   4.784  50.179  1.00  0.00     0.259 A 
HETATM    2  C6  UNL     1      25.929   4.770  49.705  1.00  0.00     0.078 A 
HETATM    3  C7  UNL     1      25.130   6.034  49.871  1.00  0.00     0.100 A 
HETATM    4  N3  UNL     1      25.532   7.020  50.887  1.00  0.00    -0.399 N 
HETATM    5  C8  UNL     1      26.420   8.015  50.354  1.00  0.00     0.157 C 
HETATM    6  C9  UNL     1      26.027   9.000  49.478  1.00  0.00     0.029 C 
HETATM    7  C10 UNL     1      25.089   9.803  48.604  1.00  0.00    -0.019 C 
HETATM    8  C11 UNL     1      23.947   9.177  48.778  1.00  0.00    -0.021 C 
HETATM    9  C12 UNL     1      23.155   8.096  49.428  1.00  0.00     0.038 C 
HETATM   10  C15 UNL     1      23.264   6.922  48.393  1.00  0.00     0.070 C 
HETATM   11  C16 UNL     1      24.818   6.711  48.565  1.00  0.00     0.044 C 
HETATM   12  N4  UNL     1      25.507   7.276  47.640  1.00  0.00    -0.248 NA
HETATM   13  C17 UNL     1      26.939   7.348  47.771  1.00  0.00     0.229 C 
HETATM   14  N5  UNL     1      27.926   8.048  48.318  1.00  0.00    -0.257 NA
HETATM   15  C18 UNL     1      27.485   9.217  49.116  1.00  0.00     0.210 C 
HETATM   16  H11 UNL     1      25.092   6.795  51.811  1.00  0.00     0.154 HD
ENDROOT
BRANCH   1  17
HETATM   17  N2  UNL     1      24.306   4.248  51.490  1.00  0.00     0.099 N 
HETATM   18  C4  UNL     1      23.394   5.031  52.310  1.00  0.00     0.293 C 
HETATM   19  C3  UNL     1      21.954   4.860  51.925  1.00  0.00     0.156 C 
HETATM   20  N1  UNL     1      21.640   3.457  51.937  1.00  0.00    -0.349 N 
HETATM   21  C2  UNL     1      20.339   2.930  51.634  1.00  0.00     0.215 C 
HETATM   22  C20 UNL     1      22.718   2.553  52.281  1.00  0.00     0.156 C 
HETATM   23  C1  UNL     1      19.222   3.832  51.290  1.00  0.00     0.117 C 
HETATM   24  O1  UNL     1      20.154   1.668  51.665  1.00  0.00    -0.274 OA
HETATM   25  C19 UNL     1      23.903   2.871  51.388  1.00  0.00     0.293 C 
ENDBRANCH   1  17
BRANCH   9  26
HETATM   26  C13 UNL     1      21.724   8.484  49.523  1.00  0.00     0.011 C 
HETATM   27  C14 UNL     1      20.519   7.980  49.658  1.00  0.00     0.185 C 
HETATM   28  F1  UNL     1      20.185   6.644  49.773  1.00  0.00    -0.220 F 
ENDBRANCH   9  26
BRANCH  15  29
HETATM   29  N6  UNL     1      28.356   9.482  50.194  1.00  0.00    -0.409 N 
HETATM   30  H22 UNL     1      29.187   8.884  50.264  1.00  0.00     0.152 HD
HETATM   31  H23 UNL     1      27.877   9.678  51.096  1.00  0.00     0.152 HD
ENDBRANCH  15  29
TORSDOF 3
ENDMDL
MODEL 9
REMARK VINA RESULT:      -7.7      4.619      6.972
REMARK  3 active torsions:
REMARK  status: ('A' for Active; 'I' for Inactive)
REMARK       I    between atoms: C2_2  and  N1_4 
REMARK    1  A    between atoms: N2_7  and  C5_8 
REMARK    2  A    between atoms: C12_16  and  C13_17 
REMARK    3  A    between atoms: C18_25  and  N6_26 
ROOT
HETATM    1  C5  UNL     1      22.929   5.188  51.104  1.00  0.00     0.259 A 
HETATM    2  C6  UNL     1      22.486   4.725  52.502  1.00  0.00     0.078 A 
HETATM    3  C7  UNL     1      22.554   3.806  51.312  1.00  0.00     0.100 A 
HETATM    4  N3  UNL     1      23.513   2.688  51.312  1.00  0.00    -0.399 N 
HETATM    5  C8  UNL     1      22.933   1.479  51.828  1.00  0.00     0.157 C 
HETATM    6  C9  UNL     1      21.988   0.737  51.159  1.00  0.00     0.029 C 
HETATM    7  C10 UNL     1      21.046   0.353  50.039  1.00  0.00    -0.019 C 
HETATM    8  C11 UNL     1      21.237   1.323  49.174  1.00  0.00    -0.021 C 
HETATM    9  C12 UNL     1      21.939   2.573  48.772  1.00  0.00     0.038 C 
HETATM   10  C15 UNL     1      20.985   3.693  49.317  1.00  0.00     0.070 C 
HETATM   11  C16 UNL     1      21.201   3.348  50.841  1.00  0.00     0.044 C 
HETATM   12  N4  UNL     1      20.256   2.632  51.334  1.00  0.00    -0.248 NA
HETATM   13  C17 UNL     1      20.410   2.065  52.649  1.00  0.00     0.229 C 
HETATM   14  N5  UNL     1      20.930   1.041  53.314  1.00  0.00    -0.257 NA
HETATM   15  C18 UNL     1      21.642   0.053  52.468  1.00  0.00     0.210 C 
HETATM   16  H11 UNL     1      24.440   3.000  50.938  1.00  0.00     0.154 HD
ENDROOT
BRANCH   1  17
HETATM   17  N2  UNL     1      24.269   5.675  51.083  1.00  0.00     0.099 N 
HETATM   18  C4  UNL     1      25.022   5.198  49.933  1.00  0.00     0.293 C 
HETATM   19  C3  UNL     1      24.625   5.861  48.647  1.00  0.00     0.156 C 
HETATM   20  N1  UNL     1      24.721   7.285  48.816  1.00  0.00    -0.349 N 
HETATM   21  C2  UNL     1      24.430   8.231  47.775  1.00  0.00     0.215 C 
HETATM   22  C20 UNL     1      25.139   7.758  50.119  1.00  0.00     0.156 C 
HETATM   23  C1  UNL     1      24.012   7.773  46.436  1.00  0.00     0.117 C 
HETATM   24  O1  UNL     1      24.538   9.479  48.018  1.00  0.00    -0.274 OA
HETATM   25  C19 UNL     1      24.247   7.112  51.164  1.00  0.00     0.293 C 
ENDBRANCH   1  17
BRANCH   9  26
HETATM   26  C13 UNL     1      21.981   2.695  47.292  1.00  0.00     0.011 C 
HETATM   27  C14 UNL     1      22.060   3.581  46.326  1.00  0.00     0.185 C 
HETATM   28  F1  UNL     1      22.146   4.953  46.461  1.00  0.00    -0.220 F 
ENDBRANCH   9  26
BRANCH  15  29
HETATM   29  N6  UNL     1      22.718  -0.552  53.152  1.00  0.00    -0.409 N 
HETATM   30  H22 UNL     1      23.627  -0.535  52.676  1.00  0.00     0.152 HD
HETATM   31  H23 UNL     1      22.481  -1.452  53.616  1.00  0.00     0.152 HD
ENDBRANCH  15  29
TORSDOF 3
ENDMDL
