MODEL 1
REMARK VINA RESULT:      -7.9      0.000      0.000
REMARK  2 active torsions:
REMARK  status: ('A' for Active; 'I' for Inactive)
REMARK    1  A    between atoms: C4_5  and  C5_6 
REMARK    2  A    between atoms: C5_6  and  O2_8 
ROOT
HETATM    1  C1  UNL     1      20.444   0.613  53.888  1.00  0.00     0.039 C 
HETATM    2  C2  UNL     1      21.392   1.109  53.095  1.00  0.00     0.009 C 
HETATM    3  N1  UNL     1      22.837   1.037  53.183  1.00  0.00    -0.359 N 
HETATM    4  C3  UNL     1      23.264   2.312  52.625  1.00  0.00     0.046 C 
HETATM    5  C4  UNL     1      22.208   3.060  52.260  1.00  0.00     0.052 C 
HETATM    6  C6  UNL     1      21.319   1.913  51.833  1.00  0.00     0.077 C 
HETATM    7  C7  UNL     1      22.097   1.130  50.774  1.00  0.00     0.016 C 
HETATM    8  C8  UNL     1      21.913   1.690  49.421  1.00  0.00     0.005 C 
HETATM    9  C9  UNL     1      22.209   3.132  49.218  1.00  0.00     0.035 C 
HETATM   10  C10 UNL     1      23.596   3.556  49.392  1.00  0.00    -0.065 A 
HETATM   11  C11 UNL     1      23.759   4.801  48.831  1.00  0.00     0.006 A 
HETATM   12  C12 UNL     1      25.113   5.309  48.957  1.00  0.00     0.026 A 
HETATM   13  C13 UNL     1      25.742   4.346  49.601  1.00  0.00     0.025 A 
HETATM   14  N2  UNL     1      27.018   3.948  50.152  1.00  0.00    -0.326 N 
HETATM   15  C14 UNL     1      26.627   3.020  51.195  1.00  0.00     0.253 C 
HETATM   16  O3  UNL     1      27.653   2.538  51.830  1.00  0.00    -0.268 OA
HETATM   17  C15 UNL     1      25.137   2.835  51.293  1.00  0.00     0.026 C 
HETATM   18  C16 UNL     1      24.733   2.502  52.536  1.00  0.00     0.044 C 
HETATM   19  C17 UNL     1      24.880   3.131  49.909  1.00  0.00     0.103 A 
HETATM   20  H3  UNL     1      23.306   0.185  53.603  1.00  0.00     0.166 HD
HETATM   21  H14 UNL     1      27.933   4.302  49.811  1.00  0.00     0.169 HD
ENDROOT
BRANCH   5  22
HETATM   22  C5  UNL     1      22.565   4.466  52.496  1.00  0.00     0.175 C 
HETATM   23  O1  UNL     1      21.825   5.224  51.832  1.00  0.00    -0.646 OA
BRANCH  22  24
HETATM   24  O2  UNL     1      23.571   4.936  53.327  1.00  0.00    -0.773 OA
HETATM   25  H4  UNL     1      24.356   4.301  53.507  1.00  0.00     0.167 HD
ENDBRANCH  22  24
ENDBRANCH   5  22
TORSDOF 2
ENDMDL
MODEL 2
REMARK VINA RESULT:      -7.2      2.300      4.535
REMARK  2 active torsions:
REMARK  status: ('A' for Active; 'I' for Inactive)
REMARK    1  A    between atoms: C4_5  and  C5_6 
REMARK    2  A    between atoms: C5_6  and  O2_8 
ROOT
HETATM    1  C1  UNL     1      26.529   2.127  53.805  1.00  0.00     0.039 C 
HETATM    2  C2  UNL     1      25.479   1.896  53.019  1.00  0.00     0.009 C 
HETATM    3  N1  UNL     1      25.347   1.939  51.576  1.00  0.00    -0.359 N 
HETATM    4  C3  UNL     1      23.977   2.397  51.386  1.00  0.00     0.046 C 
HETATM    5  C4  UNL     1      23.370   2.614  52.567  1.00  0.00     0.052 C 
HETATM    6  C6  UNL     1      24.066   1.507  53.328  1.00  0.00     0.077 C 
HETATM    7  C7  UNL     1      23.793   0.213  52.561  1.00  0.00     0.016 C 
HETATM    8  C8  UNL     1      22.515  -0.410  52.956  1.00  0.00     0.005 C 
HETATM    9  C9  UNL     1      21.284   0.420  52.882  1.00  0.00     0.035 C 
HETATM   10  C10 UNL     1      20.859   0.861  51.556  1.00  0.00    -0.065 A 
HETATM   11  C11 UNL     1      19.555   1.292  51.622  1.00  0.00     0.006 A 
HETATM   12  C12 UNL     1      19.042   1.753  50.345  1.00  0.00     0.026 A 
HETATM   13  C13 UNL     1      20.064   1.588  49.528  1.00  0.00     0.025 A 
HETATM   14  N2  UNL     1      20.505   1.749  48.161  1.00  0.00    -0.326 N 
HETATM   15  C14 UNL     1      21.940   1.883  48.313  1.00  0.00     0.253 C 
HETATM   16  O3  UNL     1      22.540   2.046  47.172  1.00  0.00    -0.268 OA
HETATM   17  C15 UNL     1      22.392   1.803  49.747  1.00  0.00     0.026 C 
HETATM   18  C16 UNL     1      23.532   2.487  49.974  1.00  0.00     0.044 C 
HETATM   19  C17 UNL     1      21.296   0.979  50.180  1.00  0.00     0.103 A 
HETATM   20  H3  UNL     1      26.165   1.681  50.955  1.00  0.00     0.166 HD
HETATM   21  H14 UNL     1      19.865   1.754  47.341  1.00  0.00     0.169 HD
ENDROOT
BRANCH   5  22
HETATM   22  C5  UNL     1      22.449   3.744  52.384  1.00  0.00     0.175 C 
HETATM   23  O1  UNL     1      23.075   4.769  52.033  1.00  0.00    -0.646 OA
BRANCH  22  24
HETATM   24  O2  UNL     1      21.074   3.728  52.562  1.00  0.00    -0.773 OA
HETATM   25  H4  UNL     1      20.569   2.916  52.189  1.00  0.00     0.167 HD
ENDBRANCH  22  24
ENDBRANCH   5  22
TORSDOF 2
ENDMDL
MODEL 3
REMARK VINA RESULT:      -7.2      3.968      6.380
REMARK  2 active torsions:
REMARK  status: ('A' for Active; 'I' for Inactive)
REMARK    1  A    between atoms: C4_5  and  C5_6 
REMARK    2  A    between atoms: C5_6  and  O2_8 
ROOT
HETATM    1  C1  UNL     1      18.701   3.809  47.245  1.00  0.00     0.039 C 
HETATM    2  C2  UNL     1      18.957   2.963  48.240  1.00  0.00     0.009 C 
HETATM    3  N1  UNL     1      18.145   1.916  48.829  1.00  0.00    -0.359 N 
HETATM    4  C3  UNL     1      18.550   1.935  50.228  1.00  0.00     0.046 C 
HETATM    5  C4  UNL     1      19.478   2.882  50.452  1.00  0.00     0.052 C 
HETATM    6  C6  UNL     1      20.164   2.777  49.108  1.00  0.00     0.077 C 
HETATM    7  C7  UNL     1      20.592   1.317  48.951  1.00  0.00     0.016 C 
HETATM    8  C8  UNL     1      21.906   1.053  49.568  1.00  0.00     0.005 C 
HETATM    9  C9  UNL     1      22.091   1.421  50.996  1.00  0.00     0.035 C 
HETATM   10  C10 UNL     1      21.290   0.694  51.978  1.00  0.00    -0.065 A 
HETATM   11  C11 UNL     1      21.826   0.890  53.229  1.00  0.00     0.006 A 
HETATM   12  C12 UNL     1      21.092   0.204  54.277  1.00  0.00     0.026 A 
HETATM   13  C13 UNL     1      20.117  -0.397  53.624  1.00  0.00     0.025 A 
HETATM   14  N2  UNL     1      18.958  -1.246  53.777  1.00  0.00    -0.326 N 
HETATM   15  C14 UNL     1      18.158  -0.889  52.622  1.00  0.00     0.253 C 
HETATM   16  O3  UNL     1      17.043  -1.554  52.574  1.00  0.00    -0.268 OA
HETATM   17  C15 UNL     1      18.805   0.160  51.758  1.00  0.00     0.026 C 
HETATM   18  C16 UNL     1      17.906   0.908  51.085  1.00  0.00     0.044 C 
HETATM   19  C17 UNL     1      20.152  -0.192  52.117  1.00  0.00     0.103 A 
HETATM   20  H3  UNL     1      17.454   1.375  48.235  1.00  0.00     0.166 HD
HETATM   21  H14 UNL     1      18.828  -1.915  54.562  1.00  0.00     0.169 HD
ENDROOT
BRANCH   5  22
HETATM   22  C5  UNL     1      19.252   3.404  51.807  1.00  0.00     0.175 C 
HETATM   23  O1  UNL     1      18.062   3.763  51.947  1.00  0.00    -0.646 OA
BRANCH  22  24
HETATM   24  O2  UNL     1      20.192   3.505  52.822  1.00  0.00    -0.773 OA
HETATM   25  H4  UNL     1      21.089   3.939  52.579  1.00  0.00     0.167 HD
ENDBRANCH  22  24
ENDBRANCH   5  22
TORSDOF 2
ENDMDL
MODEL 4
REMARK VINA RESULT:      -7.2      6.390      8.858
REMARK  2 active torsions:
REMARK  status: ('A' for Active; 'I' for Inactive)
REMARK    1  A    between atoms: C4_5  and  C5_6 
REMARK    2  A    between atoms: C5_6  and  O2_8 
ROOT
HETATM    1  C1  UNL     1      27.939   4.976  48.576  1.00  0.00     0.039 C 
HETATM    2  C2  UNL     1      28.067   6.284  48.363  1.00  0.00     0.009 C 
HETATM    3  N1  UNL     1      29.224   7.153  48.457  1.00  0.00    -0.359 N 
HETATM    4  C3  UNL     1      28.652   8.414  48.907  1.00  0.00     0.046 C 
HETATM    5  C4  UNL     1      27.321   8.311  49.075  1.00  0.00     0.052 C 
HETATM    6  C6  UNL     1      27.078   7.331  47.948  1.00  0.00     0.077 C 
HETATM    7  C7  UNL     1      27.636   7.978  46.680  1.00  0.00     0.016 C 
HETATM    8  C8  UNL     1      26.653   8.866  46.030  1.00  0.00     0.005 C 
HETATM    9  C9  UNL     1      26.041   9.945  46.849  1.00  0.00     0.035 C 
HETATM   10  C10 UNL     1      26.932  10.997  47.333  1.00  0.00    -0.065 A 
HETATM   11  C11 UNL     1      26.177  12.069  47.747  1.00  0.00     0.006 A 
HETATM   12  C12 UNL     1      26.979  13.170  48.249  1.00  0.00     0.026 A 
HETATM   13  C13 UNL     1      28.215  12.729  48.125  1.00  0.00     0.025 A 
HETATM   14  N2  UNL     1      29.603  13.068  48.341  1.00  0.00    -0.326 N 
HETATM   15  C14 UNL     1      30.220  11.764  48.484  1.00  0.00     0.253 C 
HETATM   16  O3  UNL     1      31.500  11.848  48.695  1.00  0.00    -0.268 OA
HETATM   17  C15 UNL     1      29.240  10.629  48.357  1.00  0.00     0.026 C 
HETATM   18  C16 UNL     1      29.618   9.532  49.044  1.00  0.00     0.044 C 
HETATM   19  C17 UNL     1      28.328  11.345  47.506  1.00  0.00     0.103 A 
HETATM   20  H3  UNL     1      30.191   6.784  48.231  1.00  0.00     0.166 HD
HETATM   21  H14 UNL     1      29.966  14.041  48.369  1.00  0.00     0.169 HD
ENDROOT
BRANCH   5  22
HETATM   22  C5  UNL     1      26.954   9.180  50.200  1.00  0.00     0.175 C 
HETATM   23  O1  UNL     1      25.770   9.567  50.088  1.00  0.00    -0.646 OA
BRANCH  22  24
HETATM   24  O2  UNL     1      27.767   9.550  51.261  1.00  0.00    -0.773 OA
HETATM   25  H4  UNL     1      27.631   9.047  52.145  1.00  0.00     0.167 HD
ENDBRANCH  22  24
ENDBRANCH   5  22
TORSDOF 2
ENDMDL
MODEL 5
REMARK VINA RESULT:      -7.2      1.822      5.114
REMARK  2 active torsions:
REMARK  status: ('A' for Active; 'I' for Inactive)
REMARK    1  A    between atoms: C4_5  and  C5_6 
REMARK    2  A    between atoms: C5_6  and  O2_8 
ROOT
HETATM    1  C1  UNL     1      25.139   7.062  48.265  1.00  0.00     0.039 C 
HETATM    2  C2  UNL     1      24.775   5.903  48.810  1.00  0.00     0.009 C 
HETATM    3  N1  UNL     1      23.656   5.028  48.521  1.00  0.00    -0.359 N 
HETATM    4  C3  UNL     1      23.334   4.464  49.824  1.00  0.00     0.046 C 
HETATM    5  C4  UNL     1      24.149   4.951  50.778  1.00  0.00     0.052 C 
HETATM    6  C6  UNL     1      25.380   5.081  49.907  1.00  0.00     0.077 C 
HETATM    7  C7  UNL     1      25.644   3.695  49.316  1.00  0.00     0.016 C 
HETATM    8  C8  UNL     1      26.452   2.851  50.217  1.00  0.00     0.005 C 
HETATM    9  C9  UNL     1      25.970   2.658  51.610  1.00  0.00     0.035 C 
HETATM   10  C10 UNL     1      24.711   1.938  51.782  1.00  0.00    -0.065 A 
HETATM   11  C11 UNL     1      24.597   1.540  53.094  1.00  0.00     0.006 A 
HETATM   12  C12 UNL     1      23.370   0.814  53.364  1.00  0.00     0.026 A 
HETATM   13  C13 UNL     1      22.764   0.792  52.193  1.00  0.00     0.025 A 
HETATM   14  N2  UNL     1      21.578   0.342  51.499  1.00  0.00    -0.326 N 
HETATM   15  C14 UNL     1      21.487   1.284  50.401  1.00  0.00     0.253 C 
HETATM   16  O3  UNL     1      20.460   1.051  49.640  1.00  0.00    -0.268 OA
HETATM   17  C15 UNL     1      22.596   2.302  50.403  1.00  0.00     0.026 C 
HETATM   18  C16 UNL     1      22.235   3.468  49.828  1.00  0.00     0.044 C 
HETATM   19  C17 UNL     1      23.546   1.454  51.070  1.00  0.00     0.103 A 
HETATM   20  H3  UNL     1      23.276   4.951  47.535  1.00  0.00     0.166 HD
HETATM   21  H14 UNL     1      21.003  -0.470  51.799  1.00  0.00     0.169 HD
ENDROOT
BRANCH   5  22
HETATM   22  C5  UNL     1      23.366   5.046  52.016  1.00  0.00     0.175 C 
HETATM   23  O1  UNL     1      22.220   5.486  51.778  1.00  0.00    -0.646 OA
BRANCH  22  24
HETATM   24  O2  UNL     1      23.791   4.709  53.293  1.00  0.00    -0.773 OA
HETATM   25  H4  UNL     1      23.155   4.936  54.066  1.00  0.00     0.167 HD
ENDBRANCH  22  24
ENDBRANCH   5  22
TORSDOF 2
ENDMDL
MODEL 6
REMARK VINA RESULT:      -7.1      2.411      4.137
REMARK  2 active torsions:
REMARK  status: ('A' for Active; 'I' for Inactive)
REMARK    1  A    between atoms: C4_5  and  C5_6 
REMARK    2  A    between atoms: C5_6  and  O2_8 
ROOT
HETATM    1  C1  UNL     1      18.524   3.044  47.739  1.00  0.00     0.039 C 
HETATM    2  C2  UNL     1      19.521   2.656  48.533  1.00  0.00     0.009 C 
HETATM    3  N1  UNL     1      19.673   1.472  49.355  1.00  0.00    -0.359 N 
HETATM    4  C3  UNL     1      20.445   1.958  50.491  1.00  0.00     0.046 C 
HETATM    5  C4  UNL     1      20.710   3.271  50.371  1.00  0.00     0.052 C 
HETATM    6  C6  UNL     1      20.839   3.287  48.863  1.00  0.00     0.077 C 
HETATM    7  C7  UNL     1      21.914   2.259  48.508  1.00  0.00     0.016 C 
HETATM    8  C8  UNL     1      23.273   2.833  48.564  1.00  0.00     0.005 C 
HETATM    9  C9  UNL     1      23.694   3.503  49.821  1.00  0.00     0.035 C 
HETATM   10  C10 UNL     1      23.812   2.665  51.013  1.00  0.00    -0.065 A 
HETATM   11  C11 UNL     1      24.537   3.340  51.967  1.00  0.00     0.006 A 
HETATM   12  C12 UNL     1      24.705   2.583  53.194  1.00  0.00     0.026 A 
HETATM   13  C13 UNL     1      24.069   1.455  52.948  1.00  0.00     0.025 A 
HETATM   14  N2  UNL     1      23.700   0.175  53.508  1.00  0.00    -0.326 N 
HETATM   15  C14 UNL     1      22.503  -0.156  52.761  1.00  0.00     0.253 C 
HETATM   16  O3  UNL     1      21.999  -1.297  53.124  1.00  0.00    -0.268 OA
HETATM   17  C15 UNL     1      22.130   0.893  51.748  1.00  0.00     0.026 C 
HETATM   18  C16 UNL     1      20.805   0.928  51.496  1.00  0.00     0.044 C 
HETATM   19  C17 UNL     1      23.475   1.363  51.551  1.00  0.00     0.103 A 
HETATM   20  H3  UNL     1      19.242   0.552  49.056  1.00  0.00     0.166 HD
HETATM   21  H14 UNL     1      24.233  -0.304  54.261  1.00  0.00     0.169 HD
ENDROOT
BRANCH   5  22
HETATM   22  C5  UNL     1      20.708   3.843  51.724  1.00  0.00     0.175 C 
HETATM   23  O1  UNL     1      19.678   3.501  52.344  1.00  0.00    -0.646 OA
BRANCH  22  24
HETATM   24  O2  UNL     1      21.686   4.654  52.281  1.00  0.00    -0.773 OA
HETATM   25  H4  UNL     1      22.256   5.205  51.629  1.00  0.00     0.167 HD
ENDBRANCH  22  24
ENDBRANCH   5  22
TORSDOF 2
ENDMDL
MODEL 7
REMARK VINA RESULT:      -6.8      9.347     11.653
REMARK  2 active torsions:
REMARK  status: ('A' for Active; 'I' for Inactive)
REMARK    1  A    between atoms: C4_5  and  C5_6 
REMARK    2  A    between atoms: C5_6  and  O2_8 
ROOT
HETATM    1  C1  UNL     1      30.781  10.274  48.207  1.00  0.00     0.039 C 
HETATM    2  C2  UNL     1      31.531   9.265  47.768  1.00  0.00     0.009 C 
HETATM    3  N1  UNL     1      31.626   8.653  46.457  1.00  0.00    -0.359 N 
HETATM    4  C3  UNL     1      31.903   7.257  46.766  1.00  0.00     0.046 C 
HETATM    5  C4  UNL     1      31.954   7.055  48.094  1.00  0.00     0.052 C 
HETATM    6  C6  UNL     1      32.545   8.401  48.454  1.00  0.00     0.077 C 
HETATM    7  C7  UNL     1      33.842   8.534  47.656  1.00  0.00     0.016 C 
HETATM    8  C8  UNL     1      34.989   7.920  48.351  1.00  0.00     0.005 C 
HETATM    9  C9  UNL     1      34.869   6.499  48.772  1.00  0.00     0.035 C 
HETATM   10  C10 UNL     1      34.754   5.501  47.712  1.00  0.00    -0.065 A 
HETATM   11  C11 UNL     1      35.011   4.256  48.237  1.00  0.00     0.006 A 
HETATM   12  C12 UNL     1      34.918   3.192  47.255  1.00  0.00     0.026 A 
HETATM   13  C13 UNL     1      34.602   3.829  46.144  1.00  0.00     0.025 A 
HETATM   14  N2  UNL     1      34.311   3.654  44.739  1.00  0.00    -0.326 N 
HETATM   15  C14 UNL     1      33.487   4.812  44.449  1.00  0.00     0.253 C 
HETATM   16  O3  UNL     1      33.106   4.842  43.207  1.00  0.00    -0.268 OA
HETATM   17  C15 UNL     1      33.270   5.697  45.646  1.00  0.00     0.026 C 
HETATM   18  C16 UNL     1      32.107   6.379  45.587  1.00  0.00     0.044 C 
HETATM   19  C17 UNL     1      34.503   5.339  46.294  1.00  0.00     0.103 A 
HETATM   20  H3  UNL     1      31.481   9.234  45.583  1.00  0.00     0.166 HD
HETATM   21  H14 UNL     1      34.656   2.857  44.169  1.00  0.00     0.169 HD
ENDROOT
BRANCH   5  22
HETATM   22  C5  UNL     1      31.426   5.708  48.353  1.00  0.00     0.175 C 
HETATM   23  O1  UNL     1      30.333   5.546  47.768  1.00  0.00    -0.646 OA
BRANCH  22  24
HETATM   24  O2  UNL     1      32.018   4.722  49.128  1.00  0.00    -0.773 OA
HETATM   25  H4  UNL     1      31.529   3.821  49.181  1.00  0.00     0.167 HD
ENDBRANCH  22  24
ENDBRANCH   5  22
TORSDOF 2
ENDMDL
MODEL 8
REMARK VINA RESULT:      -6.6      2.117      3.655
REMARK  2 active torsions:
REMARK  status: ('A' for Active; 'I' for Inactive)
REMARK    1  A    between atoms: C4_5  and  C5_6 
REMARK    2  A    between atoms: C5_6  and  O2_8 
ROOT
HETATM    1  C1  UNL     1      19.223   5.918  49.598  1.00  0.00     0.039 C 
HETATM    2  C2  UNL     1      20.171   5.052  49.954  1.00  0.00     0.009 C 
HETATM    3  N1  UNL     1      20.154   3.971  50.920  1.00  0.00    -0.359 N 
HETATM    4  C3  UNL     1      21.520   3.963  51.426  1.00  0.00     0.046 C 
HETATM    5  C4  UNL     1      22.258   4.926  50.847  1.00  0.00     0.052 C 
HETATM    6  C6  UNL     1      21.585   4.873  49.493  1.00  0.00     0.077 C 
HETATM    7  C7  UNL     1      21.703   3.429  49.005  1.00  0.00     0.016 C 
HETATM    8  C8  UNL     1      22.979   3.180  48.306  1.00  0.00     0.005 C 
HETATM    9  C9  UNL     1      24.240   3.515  49.018  1.00  0.00     0.035 C 
HETATM   10  C10 UNL     1      24.548   2.744  50.220  1.00  0.00    -0.065 A 
HETATM   11  C11 UNL     1      25.874   2.920  50.539  1.00  0.00     0.006 A 
HETATM   12  C12 UNL     1      26.275   2.189  51.727  1.00  0.00     0.026 A 
HETATM   13  C13 UNL     1      25.167   1.582  52.102  1.00  0.00     0.025 A 
HETATM   14  N2  UNL     1      24.595   0.701  53.095  1.00  0.00    -0.326 N 
HETATM   15  C14 UNL     1      23.193   1.069  53.064  1.00  0.00     0.253 C 
HETATM   16  O3  UNL     1      22.487   0.378  53.908  1.00  0.00    -0.268 OA
HETATM   17  C15 UNL     1      22.890   2.155  52.068  1.00  0.00     0.026 C 
HETATM   18  C16 UNL     1      21.819   2.899  52.416  1.00  0.00     0.044 C 
HETATM   19  C17 UNL     1      23.977   1.827  51.186  1.00  0.00     0.103 A 
HETATM   20  H3  UNL     1      19.263   3.429  51.103  1.00  0.00     0.166 HD
HETATM   21  H14 UNL     1      25.144   0.009  53.643  1.00  0.00     0.169 HD
ENDROOT
BRANCH   5  22
HETATM   22  C5  UNL     1      23.216   5.407  51.851  1.00  0.00     0.175 C 
HETATM   23  O1  UNL     1      24.202   5.941  51.298  1.00  0.00    -0.646 OA
BRANCH  22  24
HETATM   24  O2  UNL     1      23.092   5.306  53.229  1.00  0.00    -0.773 OA
HETATM   25  H4  UNL     1      23.734   5.874  53.793  1.00  0.00     0.167 HD
ENDBRANCH  22  24
ENDBRANCH   5  22
TORSDOF 2
ENDMDL
MODEL 9
REMARK VINA RESULT:      -6.6      2.325      5.535
REMARK  2 active torsions:
REMARK  status: ('A' for Active; 'I' for Inactive)
REMARK    1  A    between atoms: C4_5  and  C5_6 
REMARK    2  A    between atoms: C5_6  and  O2_8 
ROOT
HETATM    1  C1  UNL     1      26.164   8.450  49.269  1.00  0.00     0.039 C 
HETATM    2  C2  UNL     1      25.554   7.270  49.177  1.00  0.00     0.009 C 
HETATM    3  N1  UNL     1      24.584   6.775  48.220  1.00  0.00    -0.359 N 
HETATM    4  C3  UNL     1      23.756   5.886  49.023  1.00  0.00     0.046 C 
HETATM    5  C4  UNL     1      24.169   5.862  50.303  1.00  0.00     0.052 C 
HETATM    6  C6  UNL     1      25.645   6.031  50.014  1.00  0.00     0.077 C 
HETATM    7  C7  UNL     1      26.035   4.895  49.068  1.00  0.00     0.016 C 
HETATM    8  C8  UNL     1      26.388   3.660  49.796  1.00  0.00     0.005 C 
HETATM    9  C9  UNL     1      25.398   3.115  50.762  1.00  0.00     0.035 C 
HETATM   10  C10 UNL     1      24.130   2.638  50.215  1.00  0.00    -0.065 A 
HETATM   11  C11 UNL     1      23.499   1.859  51.157  1.00  0.00     0.006 A 
HETATM   12  C12 UNL     1      22.223   1.338  50.703  1.00  0.00     0.026 A 
HETATM   13  C13 UNL     1      22.112   1.822  49.482  1.00  0.00     0.025 A 
HETATM   14  N2  UNL     1      21.260   1.867  48.315  1.00  0.00    -0.326 N 
HETATM   15  C14 UNL     1      21.651   3.118  47.695  1.00  0.00     0.253 C 
HETATM   16  O3  UNL     1      20.983   3.353  46.606  1.00  0.00    -0.268 OA
HETATM   17  C15 UNL     1      22.730   3.842  48.455  1.00  0.00     0.026 C 
HETATM   18  C16 UNL     1      22.684   5.178  48.279  1.00  0.00     0.044 C 
HETATM   19  C17 UNL     1      23.302   2.653  49.026  1.00  0.00     0.103 A 
HETATM   20  H3  UNL     1      24.607   7.104  47.214  1.00  0.00     0.166 HD
HETATM   21  H14 UNL     1      20.569   1.129  48.072  1.00  0.00     0.169 HD
ENDROOT
BRANCH   5  22
HETATM   22  C5  UNL     1      22.977   5.693  51.145  1.00  0.00     0.175 C 
HETATM   23  O1  UNL     1      23.272   5.116  52.214  1.00  0.00    -0.646 OA
BRANCH  22  24
HETATM   24  O2  UNL     1      21.685   6.098  50.842  1.00  0.00    -0.773 OA
HETATM   25  H4  UNL     1      21.563   6.650  49.986  1.00  0.00     0.167 HD
ENDBRANCH  22  24
ENDBRANCH   5  22
TORSDOF 2
ENDMDL
