MODEL 1
REMARK VINA RESULT:      -8.2      0.000      0.000
REMARK  5 active torsions:
REMARK  status: ('A' for Active; 'I' for Inactive)
REMARK    1  A    between atoms: C6_7  and  C7_8 
REMARK    2  A    between atoms: C6_7  and  N3_20 
REMARK    3  A    between atoms: C7_8  and  C8_9 
REMARK    4  A    between atoms: C9_10  and  O2_11 
REMARK    5  A    between atoms: C14_17  and  O3_18 
ROOT
HETATM    1  C8  UNL     1      24.586   2.044  52.482  1.00  0.00     0.006 A 
HETATM    2  C9  UNL     1      24.709   2.819  51.351  1.00  0.00     0.074 A 
HETATM    3  C10 UNL     1      23.813   2.681  50.305  1.00  0.00     0.039 A 
HETATM    4  C11 UNL     1      22.811   1.753  50.441  1.00  0.00     0.034 A 
HETATM    5  C12 UNL     1      22.741   1.008  51.597  1.00  0.00     0.058 A 
HETATM    6  C13 UNL     1      23.600   1.106  52.660  1.00  0.00     0.067 A 
HETATM    7  N1  UNL     1      23.290   0.226  53.727  1.00  0.00    -0.345 N 
HETATM    8  C14 UNL     1      22.341  -0.718  53.131  1.00  0.00     0.327 C 
HETATM    9  N2  UNL     1      21.800  -0.014  51.978  1.00  0.00    -0.345 N 
HETATM   10  H11 UNL     1      23.655   0.258  54.684  1.00  0.00     0.164 HD
HETATM   11  H14 UNL     1      20.889  -0.217  51.512  1.00  0.00     0.164 HD
ENDROOT
BRANCH   1  12
HETATM   12  C7  UNL     1      25.519   2.220  53.656  1.00  0.00     0.074 C 
BRANCH  12  13
HETATM   13  C6  UNL     1      26.685   1.397  53.386  1.00  0.00     0.051 A 
HETATM   14  C5  UNL     1      27.853   2.135  53.479  1.00  0.00    -0.010 A 
HETATM   15  C4  UNL     1      28.295   0.681  53.447  1.00  0.00     0.050 A 
HETATM   16  C3  UNL     1      29.883   0.087  53.491  1.00  0.00     0.025 A 
HETATM   17  C15 UNL     1      27.316  -0.665  53.334  1.00  0.00     0.129 A 
HETATM   18  C1  UNL     1      27.761  -0.630  53.369  1.00  0.00     0.141 A 
HETATM   19  C2  UNL     1      29.300  -1.374  53.310  1.00  0.00     0.058 A 
HETATM   20  N3  UNL     1      26.328   0.046  53.301  1.00  0.00    -0.259 NA
HETATM   21  O1  UNL     1      27.886  -0.447  54.999  1.00  0.00    -0.213 OA
ENDBRANCH  12  13
ENDBRANCH   1  12
BRANCH   2  22
HETATM   22  O2  UNL     1      25.721   3.754  51.221  1.00  0.00    -0.360 OA
HETATM   23  H8  UNL     1      26.645   3.447  50.895  1.00  0.00     0.217 HD
ENDBRANCH   2  22
BRANCH   8  24
HETATM   24  O3  UNL     1      21.364  -1.021  54.049  1.00  0.00    -0.360 OA
HETATM   25  H13 UNL     1      20.497  -0.706  53.694  1.00  0.00     0.214 HD
ENDBRANCH   8  24
TORSDOF 5
ENDMDL
MODEL 2
REMARK VINA RESULT:      -8.0      1.805      3.359
REMARK  5 active torsions:
REMARK  status: ('A' for Active; 'I' for Inactive)
REMARK    1  A    between atoms: C6_7  and  C7_8 
REMARK    2  A    between atoms: C6_7  and  N3_20 
REMARK    3  A    between atoms: C7_8  and  C8_9 
REMARK    4  A    between atoms: C9_10  and  O2_11 
REMARK    5  A    between atoms: C14_17  and  O3_18 
ROOT
HETATM    1  C8  UNL     1      24.656   2.229  52.464  1.00  0.00     0.006 A 
HETATM    2  C9  UNL     1      23.583   1.369  52.531  1.00  0.00     0.074 A 
HETATM    3  C10 UNL     1      22.747   1.204  51.439  1.00  0.00     0.039 A 
HETATM    4  C11 UNL     1      23.030   1.923  50.305  1.00  0.00     0.034 A 
HETATM    5  C12 UNL     1      24.118   2.767  50.301  1.00  0.00     0.058 A 
HETATM    6  C13 UNL     1      24.976   2.966  51.350  1.00  0.00     0.067 A 
HETATM    7  N1  UNL     1      26.018   3.883  51.070  1.00  0.00    -0.345 N 
HETATM    8  C14 UNL     1      25.576   4.543  49.839  1.00  0.00     0.327 C 
HETATM    9  N2  UNL     1      24.620   3.617  49.251  1.00  0.00    -0.345 N 
HETATM   10  H11 UNL     1      26.874   4.035  51.612  1.00  0.00     0.164 HD
HETATM   11  H14 UNL     1      24.347   3.579  48.245  1.00  0.00     0.164 HD
ENDROOT
BRANCH   1  12
HETATM   12  C7  UNL     1      25.611   2.380  53.623  1.00  0.00     0.074 C 
BRANCH  12  13
HETATM   13  C6  UNL     1      26.725   1.485  53.361  1.00  0.00     0.051 A 
HETATM   14  C5  UNL     1      27.936   2.153  53.441  1.00  0.00    -0.010 A 
HETATM   15  C4  UNL     1      28.290   0.675  53.428  1.00  0.00     0.050 A 
HETATM   16  C3  UNL     1      29.840  -0.011  53.475  1.00  0.00     0.025 A 
HETATM   17  C15 UNL     1      27.231  -0.611  53.335  1.00  0.00     0.129 A 
HETATM   18  C1  UNL     1      27.678  -0.602  53.369  1.00  0.00     0.141 A 
HETATM   19  C2  UNL     1      29.170  -1.438  53.315  1.00  0.00     0.058 A 
HETATM   20  N3  UNL     1      26.288   0.157  53.295  1.00  0.00    -0.259 NA
HETATM   21  O1  UNL     1      27.819  -0.406  54.996  1.00  0.00    -0.213 OA
ENDBRANCH  12  13
ENDBRANCH   1  12
BRANCH   2  22
HETATM   22  O2  UNL     1      23.304   0.647  53.678  1.00  0.00    -0.360 OA
HETATM   23  H8  UNL     1      24.083   0.286  54.240  1.00  0.00     0.217 HD
ENDBRANCH   2  22
BRANCH   8  24
HETATM   24  O3  UNL     1      26.659   4.749  49.018  1.00  0.00    -0.360 OA
HETATM   25  H13 UNL     1      26.404   5.412  48.331  1.00  0.00     0.214 HD
ENDBRANCH   8  24
TORSDOF 5
ENDMDL
MODEL 3
REMARK VINA RESULT:      -7.8      2.143      5.870
REMARK  5 active torsions:
REMARK  status: ('A' for Active; 'I' for Inactive)
REMARK    1  A    between atoms: C6_7  and  C7_8 
REMARK    2  A    between atoms: C6_7  and  N3_20 
REMARK    3  A    between atoms: C7_8  and  C8_9 
REMARK    4  A    between atoms: C9_10  and  O2_11 
REMARK    5  A    between atoms: C14_17  and  O3_18 
ROOT
HETATM    1  C8  UNL     1      25.305   1.538  53.408  1.00  0.00     0.006 A 
HETATM    2  C9  UNL     1      24.603   0.379  53.164  1.00  0.00     0.074 A 
HETATM    3  C10 UNL     1      25.255  -0.842  53.134  1.00  0.00     0.039 A 
HETATM    4  C11 UNL     1      26.610  -0.848  53.353  1.00  0.00     0.034 A 
HETATM    5  C12 UNL     1      27.254   0.345  53.592  1.00  0.00     0.058 A 
HETATM    6  C13 UNL     1      26.658   1.578  53.634  1.00  0.00     0.067 A 
HETATM    7  N1  UNL     1      27.558   2.638  53.909  1.00  0.00    -0.345 N 
HETATM    8  C14 UNL     1      28.876   2.033  53.705  1.00  0.00     0.327 C 
HETATM    9  N2  UNL     1      28.648   0.603  53.848  1.00  0.00    -0.345 N 
HETATM   10  H11 UNL     1      27.322   3.596  54.185  1.00  0.00     0.164 HD
HETATM   11  H14 UNL     1      29.371  -0.109  54.092  1.00  0.00     0.164 HD
ENDROOT
BRANCH   1  12
HETATM   12  C7  UNL     1      24.604   2.872  53.502  1.00  0.00     0.074 C 
BRANCH  12  13
HETATM   13  C6  UNL     1      24.095   3.167  52.174  1.00  0.00     0.051 A 
HETATM   14  C5  UNL     1      25.112   3.166  51.234  1.00  0.00    -0.010 A 
HETATM   15  C4  UNL     1      23.821   3.158  50.432  1.00  0.00     0.050 A 
HETATM   16  C3  UNL     1      23.659   3.171  48.744  1.00  0.00     0.025 A 
HETATM   17  C15 UNL     1      22.264   3.162  51.033  1.00  0.00     0.129 A 
HETATM   18  C1  UNL     1      22.414   3.152  50.611  1.00  0.00     0.141 A 
HETATM   19  C2  UNL     1      22.089   3.259  48.935  1.00  0.00     0.058 A 
HETATM   20  N3  UNL     1      22.695   3.175  52.172  1.00  0.00    -0.259 NA
HETATM   21  O1  UNL     1      22.712   1.540  50.475  1.00  0.00    -0.213 OA
ENDBRANCH  12  13
ENDBRANCH   1  12
BRANCH   2  22
HETATM   22  O2  UNL     1      23.237   0.392  52.944  1.00  0.00    -0.360 OA
HETATM   23  H8  UNL     1      22.822  -0.326  52.340  1.00  0.00     0.217 HD
ENDBRANCH   2  22
BRANCH   8  24
HETATM   24  O3  UNL     1      29.747   2.508  54.658  1.00  0.00    -0.360 OA
HETATM   25  H13 UNL     1      29.575   2.024  55.502  1.00  0.00     0.214 HD
ENDBRANCH   8  24
TORSDOF 5
ENDMDL
MODEL 4
REMARK VINA RESULT:      -7.4     15.425     18.500
REMARK  5 active torsions:
REMARK  status: ('A' for Active; 'I' for Inactive)
REMARK    1  A    between atoms: C6_7  and  C7_8 
REMARK    2  A    between atoms: C6_7  and  N3_20 
REMARK    3  A    between atoms: C7_8  and  C8_9 
REMARK    4  A    between atoms: C9_10  and  O2_11 
REMARK    5  A    between atoms: C14_17  and  O3_18 
ROOT
HETATM    1  C8  UNL     1      42.581   7.075  54.913  1.00  0.00     0.006 A 
HETATM    2  C9  UNL     1      43.722   7.519  54.285  1.00  0.00     0.074 A 
HETATM    3  C10 UNL     1      43.650   8.102  53.030  1.00  0.00     0.039 A 
HETATM    4  C11 UNL     1      42.412   8.214  52.450  1.00  0.00     0.034 A 
HETATM    5  C12 UNL     1      41.308   7.751  53.130  1.00  0.00     0.058 A 
HETATM    6  C13 UNL     1      41.324   7.170  54.370  1.00  0.00     0.067 A 
HETATM    7  N1  UNL     1      40.041   6.793  54.840  1.00  0.00    -0.345 N 
HETATM    8  C14 UNL     1      39.200   6.865  53.643  1.00  0.00     0.327 C 
HETATM    9  N2  UNL     1      39.920   7.754  52.744  1.00  0.00    -0.345 N 
HETATM   10  H11 UNL     1      39.782   6.534  55.797  1.00  0.00     0.164 HD
HETATM   11  H14 UNL     1      39.501   8.296  51.957  1.00  0.00     0.164 HD
ENDROOT
BRANCH   1  12
HETATM   12  C7  UNL     1      42.632   6.490  56.305  1.00  0.00     0.074 C 
BRANCH  12  13
HETATM   13  C6  UNL     1      43.321   5.216  56.194  1.00  0.00     0.051 A 
HETATM   14  C5  UNL     1      42.696   4.384  55.281  1.00  0.00    -0.010 A 
HETATM   15  C4  UNL     1      44.044   3.739  55.556  1.00  0.00     0.050 A 
HETATM   16  C3  UNL     1      44.646   2.294  54.904  1.00  0.00     0.025 A 
HETATM   17  C15 UNL     1      45.232   4.296  56.588  1.00  0.00     0.129 A 
HETATM   18  C1  UNL     1      45.222   3.936  56.321  1.00  0.00     0.141 A 
HETATM   19  C2  UNL     1      45.925   2.458  55.825  1.00  0.00     0.058 A 
HETATM   20  N3  UNL     1      44.538   5.251  56.886  1.00  0.00    -0.259 NA
HETATM   21  O1  UNL     1      45.657   4.646  54.902  1.00  0.00    -0.213 OA
ENDBRANCH  12  13
ENDBRANCH   1  12
BRANCH   2  22
HETATM   22  O2  UNL     1      44.967   7.403  54.877  1.00  0.00    -0.360 OA
HETATM   23  H8  UNL     1      45.652   8.157  54.751  1.00  0.00     0.217 HD
ENDBRANCH   2  22
BRANCH   8  24
HETATM   24  O3  UNL     1      37.968   7.373  53.983  1.00  0.00    -0.360 OA
HETATM   25  H13 UNL     1      37.736   7.044  54.886  1.00  0.00     0.214 HD
ENDBRANCH   8  24
TORSDOF 5
ENDMDL
MODEL 5
REMARK VINA RESULT:      -7.3      2.316      4.088
REMARK  5 active torsions:
REMARK  status: ('A' for Active; 'I' for Inactive)
REMARK    1  A    between atoms: C6_7  and  C7_8 
REMARK    2  A    between atoms: C6_7  and  N3_20 
REMARK    3  A    between atoms: C7_8  and  C8_9 
REMARK    4  A    between atoms: C9_10  and  O2_11 
REMARK    5  A    between atoms: C14_17  and  O3_18 
ROOT
HETATM    1  C8  UNL     1      23.091   2.434  51.338  1.00  0.00     0.006 A 
HETATM    2  C9  UNL     1      22.268   1.604  50.611  1.00  0.00     0.074 A 
HETATM    3  C10 UNL     1      22.192   1.723  49.234  1.00  0.00     0.039 A 
HETATM    4  C11 UNL     1      22.960   2.689  48.634  1.00  0.00     0.034 A 
HETATM    5  C12 UNL     1      23.763   3.488  49.416  1.00  0.00     0.058 A 
HETATM    6  C13 UNL     1      23.877   3.411  50.779  1.00  0.00     0.067 A 
HETATM    7  N1  UNL     1      24.785   4.349  51.330  1.00  0.00    -0.345 N 
HETATM    8  C14 UNL     1      25.011   5.295  50.235  1.00  0.00     0.327 C 
HETATM    9  N2  UNL     1      24.651   4.557  49.034  1.00  0.00    -0.345 N 
HETATM   10  H11 UNL     1      25.180   4.348  52.276  1.00  0.00     0.164 HD
HETATM   11  H14 UNL     1      24.979   4.768  48.066  1.00  0.00     0.164 HD
ENDROOT
BRANCH   1  12
HETATM   12  C7  UNL     1      23.232   2.281  52.834  1.00  0.00     0.074 C 
BRANCH  12  13
HETATM   13  C6  UNL     1      24.499   1.609  53.065  1.00  0.00     0.051 A 
HETATM   14  C5  UNL     1      24.493   0.331  52.532  1.00  0.00    -0.010 A 
HETATM   15  C4  UNL     1      25.948   0.625  52.860  1.00  0.00     0.050 A 
HETATM   16  C3  UNL     1      27.279  -0.402  52.644  1.00  0.00     0.025 A 
HETATM   17  C15 UNL     1      26.563   2.022  53.536  1.00  0.00     0.129 A 
HETATM   18  C1  UNL     1      26.769   1.648  53.400  1.00  0.00     0.141 A 
HETATM   19  C2  UNL     1      28.189   0.697  53.332  1.00  0.00     0.058 A 
HETATM   20  N3  UNL     1      25.444   2.501  53.584  1.00  0.00    -0.259 NA
HETATM   21  O1  UNL     1      26.884   1.979  51.793  1.00  0.00    -0.213 OA
ENDBRANCH  12  13
ENDBRANCH   1  12
BRANCH   2  22
HETATM   22  O2  UNL     1      21.497   0.631  51.223  1.00  0.00    -0.360 OA
HETATM   23  H8  UNL     1      21.301  -0.241  50.718  1.00  0.00     0.217 HD
ENDBRANCH   2  22
BRANCH   8  24
HETATM   24  O3  UNL     1      26.333   5.672  50.225  1.00  0.00    -0.360 OA
HETATM   25  H13 UNL     1      26.838   5.012  49.689  1.00  0.00     0.214 HD
ENDBRANCH   8  24
TORSDOF 5
ENDMDL
MODEL 6
REMARK VINA RESULT:      -7.2      1.762      3.533
REMARK  5 active torsions:
REMARK  status: ('A' for Active; 'I' for Inactive)
REMARK    1  A    between atoms: C6_7  and  C7_8 
REMARK    2  A    between atoms: C6_7  and  N3_20 
REMARK    3  A    between atoms: C7_8  and  C8_9 
REMARK    4  A    between atoms: C9_10  and  O2_11 
REMARK    5  A    between atoms: C14_17  and  O3_18 
ROOT
HETATM    1  C8  UNL     1      23.082  -0.429  53.466  1.00  0.00     0.006 A 
HETATM    2  C9  UNL     1      22.185  -0.712  54.470  1.00  0.00     0.074 A 
HETATM    3  C10 UNL     1      21.088   0.108  54.682  1.00  0.00     0.039 A 
HETATM    4  C11 UNL     1      20.938   1.197  53.861  1.00  0.00     0.034 A 
HETATM    5  C12 UNL     1      21.870   1.425  52.874  1.00  0.00     0.058 A 
HETATM    6  C13 UNL     1      22.969   0.648  52.621  1.00  0.00     0.067 A 
HETATM    7  N1  UNL     1      23.758   1.109  51.538  1.00  0.00    -0.345 N 
HETATM    8  C14 UNL     1      23.267   2.470  51.308  1.00  0.00     0.327 C 
HETATM    9  N2  UNL     1      21.936   2.483  51.898  1.00  0.00    -0.345 N 
HETATM   10  H11 UNL     1      24.494   0.596  51.044  1.00  0.00     0.164 HD
HETATM   11  H14 UNL     1      21.167   3.144  51.653  1.00  0.00     0.164 HD
ENDROOT
BRANCH   1  12
HETATM   12  C7  UNL     1      24.252  -1.341  53.182  1.00  0.00     0.074 C 
BRANCH  12  13
HETATM   13  C6  UNL     1      25.452  -0.585  53.492  1.00  0.00     0.051 A 
HETATM   14  C5  UNL     1      25.619  -0.447  54.860  1.00  0.00    -0.010 A 
HETATM   15  C4  UNL     1      26.943  -0.022  54.247  1.00  0.00     0.050 A 
HETATM   16  C3  UNL     1      28.325   0.528  55.062  1.00  0.00     0.025 A 
HETATM   17  C15 UNL     1      27.331   0.024  52.624  1.00  0.00     0.129 A 
HETATM   18  C1  UNL     1      27.576   0.121  52.986  1.00  0.00     0.141 A 
HETATM   19  C2  UNL     1      29.006   0.780  53.654  1.00  0.00     0.058 A 
HETATM   20  N3  UNL     1      26.216  -0.373  52.338  1.00  0.00    -0.259 NA
HETATM   21  O1  UNL     1      28.055  -1.398  53.397  1.00  0.00    -0.213 OA
ENDBRANCH  12  13
ENDBRANCH   1  12
BRANCH   2  22
HETATM   22  O2  UNL     1      22.342  -1.812  55.294  1.00  0.00    -0.360 OA
HETATM   23  H8  UNL     1      22.385  -1.672  56.310  1.00  0.00     0.217 HD
ENDBRANCH   2  22
BRANCH   8  24
HETATM   24  O3  UNL     1      23.229   2.717  49.956  1.00  0.00    -0.360 OA
HETATM   25  H13 UNL     1      22.456   3.305  49.772  1.00  0.00     0.214 HD
ENDBRANCH   8  24
TORSDOF 5
ENDMDL
MODEL 7
REMARK VINA RESULT:      -7.1      2.094      5.289
REMARK  5 active torsions:
REMARK  status: ('A' for Active; 'I' for Inactive)
REMARK    1  A    between atoms: C6_7  and  C7_8 
REMARK    2  A    between atoms: C6_7  and  N3_20 
REMARK    3  A    between atoms: C7_8  and  C8_9 
REMARK    4  A    between atoms: C9_10  and  O2_11 
REMARK    5  A    between atoms: C14_17  and  O3_18 
ROOT
HETATM    1  C8  UNL     1      25.003   2.284  52.161  1.00  0.00     0.006 A 
HETATM    2  C9  UNL     1      26.340   2.087  51.900  1.00  0.00     0.074 A 
HETATM    3  C10 UNL     1      26.927   0.855  52.139  1.00  0.00     0.039 A 
HETATM    4  C11 UNL     1      26.131  -0.144  52.639  1.00  0.00     0.034 A 
HETATM    5  C12 UNL     1      24.800   0.116  52.879  1.00  0.00     0.058 A 
HETATM    6  C13 UNL     1      24.171   1.313  52.660  1.00  0.00     0.067 A 
HETATM    7  N1  UNL     1      22.792   1.301  52.984  1.00  0.00    -0.345 N 
HETATM    8  C14 UNL     1      22.633   0.075  53.771  1.00  0.00     0.327 C 
HETATM    9  N2  UNL     1      23.771  -0.750  53.394  1.00  0.00    -0.345 N 
HETATM   10  H11 UNL     1      22.086   1.996  52.722  1.00  0.00     0.164 HD
HETATM   11  H14 UNL     1      23.828  -1.788  53.484  1.00  0.00     0.164 HD
ENDROOT
BRANCH   1  12
HETATM   12  C7  UNL     1      24.332   3.602  51.853  1.00  0.00     0.074 C 
BRANCH  12  13
HETATM   13  C6  UNL     1      23.541   3.393  50.653  1.00  0.00     0.051 A 
HETATM   14  C5  UNL     1      24.348   3.141  49.557  1.00  0.00    -0.010 A 
HETATM   15  C4  UNL     1      22.941   2.774  49.115  1.00  0.00     0.050 A 
HETATM   16  C3  UNL     1      22.456   2.202  47.594  1.00  0.00     0.025 A 
HETATM   17  C15 UNL     1      21.543   2.879  50.022  1.00  0.00     0.129 A 
HETATM   18  C1  UNL     1      21.609   2.736  49.602  1.00  0.00     0.141 A 
HETATM   19  C2  UNL     1      20.955   2.245  48.100  1.00  0.00     0.058 A 
HETATM   20  N3  UNL     1      22.179   3.307  50.968  1.00  0.00    -0.259 NA
HETATM   21  O1  UNL     1      22.096   1.197  49.920  1.00  0.00    -0.213 OA
ENDBRANCH  12  13
ENDBRANCH   1  12
BRANCH   2  22
HETATM   22  O2  UNL     1      27.137   3.099  51.394  1.00  0.00    -0.360 OA
HETATM   23  H8  UNL     1      26.690   3.939  51.008  1.00  0.00     0.217 HD
ENDBRANCH   2  22
BRANCH   8  24
HETATM   24  O3  UNL     1      21.439  -0.523  53.445  1.00  0.00    -0.360 OA
HETATM   25  H13 UNL     1      21.561  -1.016  52.597  1.00  0.00     0.214 HD
ENDBRANCH   8  24
TORSDOF 5
ENDMDL
MODEL 8
REMARK VINA RESULT:      -6.8      2.969      4.781
REMARK  5 active torsions:
REMARK  status: ('A' for Active; 'I' for Inactive)
REMARK    1  A    between atoms: C6_7  and  C7_8 
REMARK    2  A    between atoms: C6_7  and  N3_20 
REMARK    3  A    between atoms: C7_8  and  C8_9 
REMARK    4  A    between atoms: C9_10  and  O2_11 
REMARK    5  A    between atoms: C14_17  and  O3_18 
ROOT
HETATM    1  C8  UNL     1      23.491   2.741  51.590  1.00  0.00     0.006 A 
HETATM    2  C9  UNL     1      23.613   3.694  52.576  1.00  0.00     0.074 A 
HETATM    3  C10 UNL     1      22.750   4.776  52.615  1.00  0.00     0.039 A 
HETATM    4  C11 UNL     1      21.784   4.857  51.645  1.00  0.00     0.034 A 
HETATM    5  C12 UNL     1      21.713   3.871  50.686  1.00  0.00     0.058 A 
HETATM    6  C13 UNL     1      22.539   2.782  50.602  1.00  0.00     0.067 A 
HETATM    7  N1  UNL     1      22.237   1.919  49.519  1.00  0.00    -0.345 N 
HETATM    8  C14 UNL     1      21.343   2.719  48.679  1.00  0.00     0.327 C 
HETATM    9  N2  UNL     1      20.804   3.729  49.578  1.00  0.00    -0.345 N 
HETATM   10  H11 UNL     1      22.575   0.962  49.375  1.00  0.00     0.164 HD
HETATM   11  H14 UNL     1      19.914   4.256  49.439  1.00  0.00     0.164 HD
ENDROOT
BRANCH   1  12
HETATM   12  C7  UNL     1      24.386   1.524  51.563  1.00  0.00     0.074 C 
BRANCH  12  13
HETATM   13  C6  UNL     1      23.743   0.519  52.392  1.00  0.00     0.051 A 
HETATM   14  C5  UNL     1      24.486   0.256  53.530  1.00  0.00    -0.010 A 
HETATM   15  C4  UNL     1      23.131  -0.385  53.776  1.00  0.00     0.050 A 
HETATM   16  C3  UNL     1      22.639  -1.260  55.143  1.00  0.00     0.025 A 
HETATM   17  C15 UNL     1      21.822  -0.398  52.740  1.00  0.00     0.129 A 
HETATM   18  C1  UNL     1      21.870  -0.568  53.152  1.00  0.00     0.141 A 
HETATM   19  C2  UNL     1      21.262  -1.549  54.415  1.00  0.00     0.058 A 
HETATM   20  N3  UNL     1      22.456   0.237  51.918  1.00  0.00    -0.259 NA
HETATM   21  O1  UNL     1      21.581   0.790  54.035  1.00  0.00    -0.213 OA
ENDBRANCH  12  13
ENDBRANCH   1  12
BRANCH   2  22
HETATM   22  O2  UNL     1      24.590   3.605  53.552  1.00  0.00    -0.360 OA
HETATM   23  H8  UNL     1      24.391   3.968  54.491  1.00  0.00     0.217 HD
ENDBRANCH   2  22
BRANCH   8  24
HETATM   24  O3  UNL     1      20.354   1.911  48.169  1.00  0.00    -0.360 OA
HETATM   25  H13 UNL     1      20.611   0.970  48.328  1.00  0.00     0.214 HD
ENDBRANCH   8  24
TORSDOF 5
ENDMDL
MODEL 9
REMARK VINA RESULT:      -6.8      4.113      5.760
REMARK  5 active torsions:
REMARK  status: ('A' for Active; 'I' for Inactive)
REMARK    1  A    between atoms: C6_7  and  C7_8 
REMARK    2  A    between atoms: C6_7  and  N3_20 
REMARK    3  A    between atoms: C7_8  and  C8_9 
REMARK    4  A    between atoms: C9_10  and  O2_11 
REMARK    5  A    between atoms: C14_17  and  O3_18 
ROOT
HETATM    1  C8  UNL     1      21.958   3.221  50.907  1.00  0.00     0.006 A 
HETATM    2  C9  UNL     1      21.978   2.390  49.810  1.00  0.00     0.074 A 
HETATM    3  C10 UNL     1      22.833   2.646  48.751  1.00  0.00     0.039 A 
HETATM    4  C11 UNL     1      23.647   3.747  48.840  1.00  0.00     0.034 A 
HETATM    5  C12 UNL     1      23.581   4.539  49.965  1.00  0.00     0.058 A 
HETATM    6  C13 UNL     1      22.756   4.330  51.038  1.00  0.00     0.067 A 
HETATM    7  N1  UNL     1      22.901   5.296  52.065  1.00  0.00    -0.345 N 
HETATM    8  C14 UNL     1      23.660   6.372  51.423  1.00  0.00     0.327 C 
HETATM    9  N2  UNL     1      24.319   5.731  50.295  1.00  0.00    -0.345 N 
HETATM   10  H11 UNL     1      22.550   5.237  53.026  1.00  0.00     0.164 HD
HETATM   11  H14 UNL     1      25.177   6.077  49.813  1.00  0.00     0.164 HD
ENDROOT
BRANCH   1  12
HETATM   12  C7  UNL     1      21.075   2.926  52.096  1.00  0.00     0.074 C 
BRANCH  12  13
HETATM   13  C6  UNL     1      21.460   1.612  52.582  1.00  0.00     0.051 A 
HETATM   14  C5  UNL     1      22.766   1.608  53.040  1.00  0.00    -0.010 A 
HETATM   15  C4  UNL     1      22.161   0.305  53.535  1.00  0.00     0.050 A 
HETATM   16  C3  UNL     1      22.929  -0.909  54.436  1.00  0.00     0.025 A 
HETATM   17  C15 UNL     1      20.605  -0.241  53.280  1.00  0.00     0.129 A 
HETATM   18  C1  UNL     1      20.945  -0.423  53.508  1.00  0.00     0.141 A 
HETATM   19  C2  UNL     1      21.604  -1.771  54.330  1.00  0.00     0.058 A 
HETATM   20  N3  UNL     1      20.349   0.762  52.640  1.00  0.00    -0.259 NA
HETATM   21  O1  UNL     1      20.781   0.393  54.927  1.00  0.00    -0.213 OA
ENDBRANCH  12  13
ENDBRANCH   1  12
BRANCH   2  22
HETATM   22  O2  UNL     1      21.154   1.281  49.726  1.00  0.00    -0.360 OA
HETATM   23  H8  UNL     1      21.466   0.396  50.142  1.00  0.00     0.217 HD
ENDBRANCH   2  22
BRANCH   8  24
HETATM   24  O3  UNL     1      24.567   6.886  52.319  1.00  0.00    -0.360 OA
HETATM   25  H13 UNL     1      25.371   7.168  51.819  1.00  0.00     0.214 HD
ENDBRANCH   8  24
TORSDOF 5
ENDMDL
