MODEL 1
REMARK VINA RESULT:      -6.2      0.000      0.000
REMARK  8 active torsions:
REMARK  status: ('A' for Active; 'I' for Inactive)
REMARK    1  A    between atoms: C1_2  and  S1_3 
REMARK    2  A    between atoms: S1_3  and  C2_4 
REMARK    3  A    between atoms: C2_4  and  C3_5 
REMARK    4  A    between atoms: C3_5  and  C4_6 
REMARK    5  A    between atoms: C5_7  and  C6_8 
REMARK    6  A    between atoms: C10_13  and  C11_14 
REMARK    7  A    between atoms: C11_14  and  N2_15 
REMARK    8  A    between atoms: N2_15  and  C12_16 
ROOT
HETATM    1  C6  UNL     1      23.494   1.149  52.851  1.00  0.00     0.009 C 
HETATM    2  C7  UNL     1      23.009   0.038  53.385  1.00  0.00    -0.031 C 
HETATM    3  C8  UNL     1      21.785  -0.730  53.040  1.00  0.00     0.158 C 
HETATM    4  N1  UNL     1      21.385  -1.170  54.385  1.00  0.00    -0.394 N 
HETATM    5  C9  UNL     1      22.639  -1.385  55.060  1.00  0.00     0.092 C 
HETATM    6  C10 UNL     1      23.642  -0.690  54.508  1.00  0.00    -0.018 C 
HETATM    7  H11 UNL     1      20.441  -1.309  54.804  1.00  0.00     0.159 HD
ENDROOT
BRANCH   1   8
HETATM    8  C5  UNL     1      22.775   1.773  51.753  1.00  0.00    -0.003 C 
HETATM    9  C4  UNL     1      23.462   2.155  50.690  1.00  0.00    -0.026 C 
BRANCH   9  10
HETATM   10  C3  UNL     1      23.068   2.804  49.421  1.00  0.00     0.037 C 
BRANCH  10  11
HETATM   11  C2  UNL     1      23.781   4.108  49.158  1.00  0.00     0.085 C 
BRANCH  11  12
HETATM   12  S1  UNL     1      25.242   4.281  50.229  1.00  0.00    -0.101 SA
BRANCH  12  13
HETATM   13  C1  UNL     1      26.751   3.920  49.359  1.00  0.00     0.304 C 
HETATM   14  O1  UNL     1      27.352   4.700  48.645  1.00  0.00    -0.295 OA
ENDBRANCH  12  13
ENDBRANCH  11  12
ENDBRANCH  10  11
ENDBRANCH   9  10
ENDBRANCH   1   8
BRANCH   6  15
HETATM   15  C11 UNL     1      25.053  -0.618  54.889  1.00  0.00     0.155 C 
BRANCH  15  16
HETATM   16  N2  UNL     1      25.983  -1.261  54.034  1.00  0.00    -0.407 N 
HETATM   17  H15 UNL     1      26.315  -2.192  54.290  1.00  0.00     0.154 HD
BRANCH  16  18
HETATM   18  C12 UNL     1      27.019  -0.469  53.469  1.00  0.00     0.123 A 
HETATM   19  C13 UNL     1      26.812  -0.209  52.028  1.00  0.00     0.002 A 
HETATM   20  C14 UNL     1      26.828   1.105  51.760  1.00  0.00    -0.002 A 
HETATM   21  C15 UNL     1      27.051   1.782  53.032  1.00  0.00    -0.002 A 
HETATM   22  C16 UNL     1      27.160   0.884  54.005  1.00  0.00     0.002 A 
ENDBRANCH  16  18
ENDBRANCH  15  16
ENDBRANCH   6  15
TORSDOF 8
ENDMDL
MODEL 2
REMARK VINA RESULT:      -6.1      2.078      4.564
REMARK  8 active torsions:
REMARK  status: ('A' for Active; 'I' for Inactive)
REMARK    1  A    between atoms: C1_2  and  S1_3 
REMARK    2  A    between atoms: S1_3  and  C2_4 
REMARK    3  A    between atoms: C2_4  and  C3_5 
REMARK    4  A    between atoms: C3_5  and  C4_6 
REMARK    5  A    between atoms: C5_7  and  C6_8 
REMARK    6  A    between atoms: C10_13  and  C11_14 
REMARK    7  A    between atoms: C11_14  and  N2_15 
REMARK    8  A    between atoms: N2_15  and  C12_16 
ROOT
HETATM    1  C6  UNL     1      26.566   1.618  51.647  1.00  0.00     0.009 C 
HETATM    2  C7  UNL     1      27.342   1.362  52.690  1.00  0.00    -0.031 C 
HETATM    3  C8  UNL     1      28.371   2.211  53.343  1.00  0.00     0.158 C 
HETATM    4  N1  UNL     1      29.349   1.175  53.705  1.00  0.00    -0.394 N 
HETATM    5  C9  UNL     1      28.533   0.032  54.024  1.00  0.00     0.092 C 
HETATM    6  C10 UNL     1      27.326   0.089  53.446  1.00  0.00    -0.018 C 
HETATM    7  H11 UNL     1      30.391   1.203  53.740  1.00  0.00     0.159 HD
ENDROOT
BRANCH   1   8
HETATM    8  C5  UNL     1      26.679   2.907  50.985  1.00  0.00    -0.003 C 
HETATM    9  C4  UNL     1      25.744   3.251  50.118  1.00  0.00    -0.026 C 
BRANCH   9  10
HETATM   10  C3  UNL     1      25.544   4.455  49.283  1.00  0.00     0.037 C 
BRANCH  10  11
HETATM   11  C2  UNL     1      24.164   5.057  49.405  1.00  0.00     0.085 C 
BRANCH  11  12
HETATM   12  S1  UNL     1      23.981   5.957  50.975  1.00  0.00    -0.101 SA
BRANCH  12  13
HETATM   13  C1  UNL     1      23.178   4.970  52.218  1.00  0.00     0.304 C 
HETATM   14  O1  UNL     1      23.703   4.069  52.844  1.00  0.00    -0.295 OA
ENDBRANCH  12  13
ENDBRANCH  11  12
ENDBRANCH  10  11
ENDBRANCH   9  10
ENDBRANCH   1   8
BRANCH   6  15
HETATM   15  C11 UNL     1      26.213  -0.860  53.503  1.00  0.00     0.155 C 
BRANCH  15  16
HETATM   16  N2  UNL     1      25.046  -0.441  54.187  1.00  0.00    -0.407 N 
HETATM   17  H15 UNL     1      24.990  -0.597  55.195  1.00  0.00     0.154 HD
BRANCH  16  18
HETATM   18  C12 UNL     1      23.793  -0.657  53.551  1.00  0.00     0.123 A 
HETATM   19  C13 UNL     1      22.723  -1.008  54.510  1.00  0.00     0.002 A 
HETATM   20  C14 UNL     1      21.673  -0.182  54.397  1.00  0.00    -0.002 A 
HETATM   21  C15 UNL     1      22.007   0.767  53.342  1.00  0.00    -0.002 A 
HETATM   22  C16 UNL     1      23.215   0.495  52.860  1.00  0.00     0.002 A 
ENDBRANCH  16  18
ENDBRANCH  15  16
ENDBRANCH   6  15
TORSDOF 8
ENDMDL
MODEL 3
REMARK VINA RESULT:      -6.0      3.374      5.846
REMARK  8 active torsions:
REMARK  status: ('A' for Active; 'I' for Inactive)
REMARK    1  A    between atoms: C1_2  and  S1_3 
REMARK    2  A    between atoms: S1_3  and  C2_4 
REMARK    3  A    between atoms: C2_4  and  C3_5 
REMARK    4  A    between atoms: C3_5  and  C4_6 
REMARK    5  A    between atoms: C5_7  and  C6_8 
REMARK    6  A    between atoms: C10_13  and  C11_14 
REMARK    7  A    between atoms: C11_14  and  N2_15 
REMARK    8  A    between atoms: N2_15  and  C12_16 
ROOT
HETATM    1  C6  UNL     1      25.048   0.540  53.029  1.00  0.00     0.009 C 
HETATM    2  C7  UNL     1      26.326   0.849  53.190  1.00  0.00    -0.031 C 
HETATM    3  C8  UNL     1      27.334   0.276  54.119  1.00  0.00     0.158 C 
HETATM    4  N1  UNL     1      28.098   1.494  54.432  1.00  0.00    -0.394 N 
HETATM    5  C9  UNL     1      28.066   2.241  53.201  1.00  0.00     0.092 C 
HETATM    6  C10 UNL     1      27.031   1.899  52.422  1.00  0.00    -0.018 C 
HETATM    7  H11 UNL     1      28.568   1.796  55.312  1.00  0.00     0.159 HD
ENDROOT
BRANCH   1   8
HETATM    8  C5  UNL     1      24.469  -0.511  53.849  1.00  0.00    -0.003 C 
HETATM    9  C4  UNL     1      23.155  -0.553  53.977  1.00  0.00    -0.026 C 
BRANCH   9  10
HETATM   10  C3  UNL     1      22.247  -1.460  54.713  1.00  0.00     0.037 C 
BRANCH  10  11
HETATM   11  C2  UNL     1      20.819  -1.419  54.225  1.00  0.00     0.085 C 
BRANCH  11  12
HETATM   12  S1  UNL     1      20.405   0.222  53.556  1.00  0.00    -0.101 SA
BRANCH  12  13
HETATM   13  C1  UNL     1      20.259   0.200  51.783  1.00  0.00     0.304 C 
HETATM   14  O1  UNL     1      19.330   0.664  51.151  1.00  0.00    -0.295 OA
ENDBRANCH  12  13
ENDBRANCH  11  12
ENDBRANCH  10  11
ENDBRANCH   9  10
ENDBRANCH   1   8
BRANCH   6  15
HETATM   15  C11 UNL     1      26.634   2.416  51.112  1.00  0.00     0.155 C 
BRANCH  15  16
HETATM   16  N2  UNL     1      26.164   3.752  51.064  1.00  0.00    -0.407 N 
HETATM   17  H15 UNL     1      26.520   4.418  51.750  1.00  0.00     0.154 HD
BRANCH  16  18
HETATM   18  C12 UNL     1      24.782   3.957  50.799  1.00  0.00     0.123 A 
HETATM   19  C13 UNL     1      24.195   2.872  49.982  1.00  0.00     0.002 A 
HETATM   20  C14 UNL     1      23.125   2.331  50.582  1.00  0.00    -0.002 A 
HETATM   21  C15 UNL     1      22.953   3.045  51.841  1.00  0.00    -0.002 A 
HETATM   22  C16 UNL     1      23.899   3.972  51.964  1.00  0.00     0.002 A 
ENDBRANCH  16  18
ENDBRANCH  15  16
ENDBRANCH   6  15
TORSDOF 8
ENDMDL
MODEL 4
REMARK VINA RESULT:      -6.0      1.489      1.530
REMARK  8 active torsions:
REMARK  status: ('A' for Active; 'I' for Inactive)
REMARK    1  A    between atoms: C1_2  and  S1_3 
REMARK    2  A    between atoms: S1_3  and  C2_4 
REMARK    3  A    between atoms: C2_4  and  C3_5 
REMARK    4  A    between atoms: C3_5  and  C4_6 
REMARK    5  A    between atoms: C5_7  and  C6_8 
REMARK    6  A    between atoms: C10_13  and  C11_14 
REMARK    7  A    between atoms: C11_14  and  N2_15 
REMARK    8  A    between atoms: N2_15  and  C12_16 
ROOT
HETATM    1  C6  UNL     1      23.446   1.064  52.959  1.00  0.00     0.009 C 
HETATM    2  C7  UNL     1      23.086  -0.068  53.542  1.00  0.00    -0.031 C 
HETATM    3  C8  UNL     1      21.897  -0.927  53.303  1.00  0.00     0.158 C 
HETATM    4  N1  UNL     1      21.635  -1.372  54.680  1.00  0.00    -0.394 N 
HETATM    5  C9  UNL     1      22.950  -1.486  55.257  1.00  0.00     0.092 C 
HETATM    6  C10 UNL     1      23.855  -0.730  54.620  1.00  0.00    -0.018 C 
HETATM    7  H11 UNL     1      20.739  -1.571  55.174  1.00  0.00     0.159 HD
ENDROOT
BRANCH   1   8
HETATM    8  C5  UNL     1      22.601   1.617  51.913  1.00  0.00    -0.003 C 
HETATM    9  C4  UNL     1      23.142   1.858  50.732  1.00  0.00    -0.026 C 
BRANCH   9  10
HETATM   10  C3  UNL     1      22.594   2.401  49.470  1.00  0.00     0.037 C 
BRANCH  10  11
HETATM   11  C2  UNL     1      23.320   3.627  48.970  1.00  0.00     0.085 C 
BRANCH  11  12
HETATM   12  S1  UNL     1      24.546   4.201  50.186  1.00  0.00    -0.101 SA
BRANCH  12  13
HETATM   13  C1  UNL     1      23.842   5.345  51.353  1.00  0.00     0.304 C 
HETATM   14  O1  UNL     1      23.492   5.066  52.483  1.00  0.00    -0.295 OA
ENDBRANCH  12  13
ENDBRANCH  11  12
ENDBRANCH  10  11
ENDBRANCH   9  10
ENDBRANCH   1   8
BRANCH   6  15
HETATM   15  C11 UNL     1      25.282  -0.552  54.887  1.00  0.00     0.155 C 
BRANCH  15  16
HETATM   16  N2  UNL     1      26.187  -1.156  53.979  1.00  0.00    -0.407 N 
HETATM   17  H15 UNL     1      26.592  -2.060  54.224  1.00  0.00     0.154 HD
BRANCH  16  18
HETATM   18  C12 UNL     1      27.131  -0.314  53.329  1.00  0.00     0.123 A 
HETATM   19  C13 UNL     1      26.767  -0.035  51.922  1.00  0.00     0.002 A 
HETATM   20  C14 UNL     1      26.708   1.282  51.683  1.00  0.00    -0.002 A 
HETATM   21  C15 UNL     1      27.036   1.944  52.940  1.00  0.00    -0.002 A 
HETATM   22  C16 UNL     1      27.276   1.034  53.878  1.00  0.00     0.002 A 
ENDBRANCH  16  18
ENDBRANCH  15  16
ENDBRANCH   6  15
TORSDOF 8
ENDMDL
MODEL 5
REMARK VINA RESULT:      -6.0      2.246      4.665
REMARK  8 active torsions:
REMARK  status: ('A' for Active; 'I' for Inactive)
REMARK    1  A    between atoms: C1_2  and  S1_3 
REMARK    2  A    between atoms: S1_3  and  C2_4 
REMARK    3  A    between atoms: C2_4  and  C3_5 
REMARK    4  A    between atoms: C3_5  and  C4_6 
REMARK    5  A    between atoms: C5_7  and  C6_8 
REMARK    6  A    between atoms: C10_13  and  C11_14 
REMARK    7  A    between atoms: C11_14  and  N2_15 
REMARK    8  A    between atoms: N2_15  and  C12_16 
ROOT
HETATM    1  C6  UNL     1      26.201   1.845  51.500  1.00  0.00     0.009 C 
HETATM    2  C7  UNL     1      27.039   1.469  52.454  1.00  0.00    -0.031 C 
HETATM    3  C8  UNL     1      28.097   2.243  53.153  1.00  0.00     0.158 C 
HETATM    4  N1  UNL     1      29.105   1.185  53.319  1.00  0.00    -0.394 N 
HETATM    5  C9  UNL     1      28.319  -0.003  53.531  1.00  0.00     0.092 C 
HETATM    6  C10 UNL     1      27.080   0.109  53.035  1.00  0.00    -0.018 C 
HETATM    7  H11 UNL     1      30.146   1.226  53.297  1.00  0.00     0.159 HD
ENDROOT
BRANCH   1   8
HETATM    8  C5  UNL     1      26.263   3.212  51.008  1.00  0.00    -0.003 C 
HETATM    9  C4  UNL     1      26.652   3.412  49.761  1.00  0.00    -0.026 C 
BRANCH   9  10
HETATM   10  C3  UNL     1      26.825   4.635  48.948  1.00  0.00     0.037 C 
BRANCH  10  11
HETATM   11  C2  UNL     1      25.862   5.743  49.304  1.00  0.00     0.085 C 
BRANCH  11  12
HETATM   12  S1  UNL     1      26.470   7.352  48.709  1.00  0.00    -0.101 SA
BRANCH  12  13
HETATM   13  C1  UNL     1      26.801   8.474  50.049  1.00  0.00     0.304 C 
HETATM   14  O1  UNL     1      26.296   9.572  50.184  1.00  0.00    -0.295 OA
ENDBRANCH  12  13
ENDBRANCH  11  12
ENDBRANCH  10  11
ENDBRANCH   9  10
ENDBRANCH   1   8
BRANCH   6  15
HETATM   15  C11 UNL     1      25.981  -0.859  53.031  1.00  0.00     0.155 C 
BRANCH  15  16
HETATM   16  N2  UNL     1      24.914  -0.624  53.933  1.00  0.00    -0.407 N 
HETATM   17  H15 UNL     1      25.005  -0.959  54.893  1.00  0.00     0.154 HD
BRANCH  16  18
HETATM   18  C12 UNL     1      23.589  -0.781  53.444  1.00  0.00     0.123 A 
HETATM   19  C13 UNL     1      22.622  -1.098  54.518  1.00  0.00     0.002 A 
HETATM   20  C14 UNL     1      21.602  -0.229  54.531  1.00  0.00    -0.002 A 
HETATM   21  C15 UNL     1      21.851   0.716  53.450  1.00  0.00    -0.002 A 
HETATM   22  C16 UNL     1      22.984   0.400  52.830  1.00  0.00     0.002 A 
ENDBRANCH  16  18
ENDBRANCH  15  16
ENDBRANCH   6  15
TORSDOF 8
ENDMDL
MODEL 6
REMARK VINA RESULT:      -5.9      2.760      3.323
REMARK  8 active torsions:
REMARK  status: ('A' for Active; 'I' for Inactive)
REMARK    1  A    between atoms: C1_2  and  S1_3 
REMARK    2  A    between atoms: S1_3  and  C2_4 
REMARK    3  A    between atoms: C2_4  and  C3_5 
REMARK    4  A    between atoms: C3_5  and  C4_6 
REMARK    5  A    between atoms: C5_7  and  C6_8 
REMARK    6  A    between atoms: C10_13  and  C11_14 
REMARK    7  A    between atoms: C11_14  and  N2_15 
REMARK    8  A    between atoms: N2_15  and  C12_16 
ROOT
HETATM    1  C6  UNL     1      24.496   1.947  52.899  1.00  0.00     0.009 C 
HETATM    2  C7  UNL     1      23.814   0.825  53.075  1.00  0.00    -0.031 C 
HETATM    3  C8  UNL     1      22.538   0.379  52.460  1.00  0.00     0.158 C 
HETATM    4  N1  UNL     1      21.951  -0.334  53.604  1.00  0.00    -0.394 N 
HETATM    5  C9  UNL     1      23.092  -0.916  54.263  1.00  0.00     0.092 C 
HETATM    6  C10 UNL     1      24.229  -0.266  53.985  1.00  0.00    -0.018 C 
HETATM    7  H11 UNL     1      20.960  -0.430  53.912  1.00  0.00     0.159 HD
ENDROOT
BRANCH   1   8
HETATM    8  C5  UNL     1      23.980   2.946  51.978  1.00  0.00    -0.003 C 
HETATM    9  C4  UNL     1      23.521   4.081  52.477  1.00  0.00    -0.026 C 
BRANCH   9  10
HETATM   10  C3  UNL     1      22.940   5.289  51.852  1.00  0.00     0.037 C 
BRANCH  10  11
HETATM   11  C2  UNL     1      22.292   5.029  50.513  1.00  0.00     0.085 C 
BRANCH  11  12
HETATM   12  S1  UNL     1      20.486   4.874  50.682  1.00  0.00    -0.101 SA
BRANCH  12  13
HETATM   13  C1  UNL     1      20.024   3.388  51.544  1.00  0.00     0.304 C 
HETATM   14  O1  UNL     1      20.094   3.225  52.746  1.00  0.00    -0.295 OA
ENDBRANCH  12  13
ENDBRANCH  11  12
ENDBRANCH  10  11
ENDBRANCH   9  10
ENDBRANCH   1   8
BRANCH   6  15
HETATM   15  C11 UNL     1      25.593  -0.522  54.451  1.00  0.00     0.155 C 
BRANCH  15  16
HETATM   16  N2  UNL     1      26.414  -1.329  53.625  1.00  0.00    -0.407 N 
HETATM   17  H15 UNL     1      26.598  -2.290  53.914  1.00  0.00     0.154 HD
BRANCH  16  18
HETATM   18  C12 UNL     1      27.560  -0.725  53.041  1.00  0.00     0.123 A 
HETATM   19  C13 UNL     1      27.908   0.565  53.678  1.00  0.00     0.002 A 
HETATM   20  C14 UNL     1      29.177   0.572  54.109  1.00  0.00    -0.002 A 
HETATM   21  C15 UNL     1      29.735  -0.732  53.770  1.00  0.00    -0.002 A 
HETATM   22  C16 UNL     1      28.812  -1.470  53.161  1.00  0.00     0.002 A 
ENDBRANCH  16  18
ENDBRANCH  15  16
ENDBRANCH   6  15
TORSDOF 8
ENDMDL
MODEL 7
REMARK VINA RESULT:      -5.9      2.959      5.227
REMARK  8 active torsions:
REMARK  status: ('A' for Active; 'I' for Inactive)
REMARK    1  A    between atoms: C1_2  and  S1_3 
REMARK    2  A    between atoms: S1_3  and  C2_4 
REMARK    3  A    between atoms: C2_4  and  C3_5 
REMARK    4  A    between atoms: C3_5  and  C4_6 
REMARK    5  A    between atoms: C5_7  and  C6_8 
REMARK    6  A    between atoms: C10_13  and  C11_14 
REMARK    7  A    between atoms: C11_14  and  N2_15 
REMARK    8  A    between atoms: N2_15  and  C12_16 
ROOT
HETATM    1  C6  UNL     1      22.958   0.559  52.687  1.00  0.00     0.009 C 
HETATM    2  C7  UNL     1      21.886   0.200  53.376  1.00  0.00    -0.031 C 
HETATM    3  C8  UNL     1      21.778  -0.599  54.624  1.00  0.00     0.158 C 
HETATM    4  N1  UNL     1      20.534  -1.329  54.341  1.00  0.00    -0.394 N 
HETATM    5  C9  UNL     1      19.745  -0.381  53.596  1.00  0.00     0.092 C 
HETATM    6  C10 UNL     1      20.498   0.553  53.000  1.00  0.00    -0.018 C 
HETATM    7  H11 UNL     1      20.238  -2.296  54.592  1.00  0.00     0.159 HD
ENDROOT
BRANCH   1   8
HETATM    8  C5  UNL     1      24.269   0.145  53.159  1.00  0.00    -0.003 C 
HETATM    9  C4  UNL     1      25.312   0.356  52.377  1.00  0.00    -0.026 C 
BRANCH   9  10
HETATM   10  C3  UNL     1      26.756   0.073  52.531  1.00  0.00     0.037 C 
BRANCH  10  11
HETATM   11  C2  UNL     1      27.156  -0.294  53.940  1.00  0.00     0.085 C 
BRANCH  11  12
HETATM   12  S1  UNL     1      28.929   0.012  54.215  1.00  0.00    -0.101 SA
BRANCH  12  13
HETATM   13  C1  UNL     1      29.311   1.749  54.227  1.00  0.00     0.304 C 
HETATM   14  O1  UNL     1      29.690   2.376  55.198  1.00  0.00    -0.295 OA
ENDBRANCH  12  13
ENDBRANCH  11  12
ENDBRANCH  10  11
ENDBRANCH   9  10
ENDBRANCH   1   8
BRANCH   6  15
HETATM   15  C11 UNL     1      20.100   1.677  52.152  1.00  0.00     0.155 C 
BRANCH  15  16
HETATM   16  N2  UNL     1      20.425   2.977  52.614  1.00  0.00    -0.407 N 
HETATM   17  H15 UNL     1      19.724   3.492  53.149  1.00  0.00     0.154 HD
BRANCH  16  18
HETATM   18  C12 UNL     1      21.148   3.829  51.736  1.00  0.00     0.123 A 
HETATM   19  C13 UNL     1      22.408   4.322  52.335  1.00  0.00     0.002 A 
HETATM   20  C14 UNL     1      23.463   4.042  51.558  1.00  0.00    -0.002 A 
HETATM   21  C15 UNL     1      22.942   3.341  50.391  1.00  0.00    -0.002 A 
HETATM   22  C16 UNL     1      21.622   3.220  50.493  1.00  0.00     0.002 A 
ENDBRANCH  16  18
ENDBRANCH  15  16
ENDBRANCH   6  15
TORSDOF 8
ENDMDL
MODEL 8
REMARK VINA RESULT:      -5.8      3.376      6.307
REMARK  8 active torsions:
REMARK  status: ('A' for Active; 'I' for Inactive)
REMARK    1  A    between atoms: C1_2  and  S1_3 
REMARK    2  A    between atoms: S1_3  and  C2_4 
REMARK    3  A    between atoms: C2_4  and  C3_5 
REMARK    4  A    between atoms: C3_5  and  C4_6 
REMARK    5  A    between atoms: C5_7  and  C6_8 
REMARK    6  A    between atoms: C10_13  and  C11_14 
REMARK    7  A    between atoms: C11_14  and  N2_15 
REMARK    8  A    between atoms: N2_15  and  C12_16 
ROOT
HETATM    1  C6  UNL     1      24.752   1.936  51.338  1.00  0.00     0.009 C 
HETATM    2  C7  UNL     1      25.071   2.952  50.551  1.00  0.00    -0.031 C 
HETATM    3  C8  UNL     1      26.405   3.432  50.109  1.00  0.00     0.158 C 
HETATM    4  N1  UNL     1      26.151   4.881  50.095  1.00  0.00    -0.394 N 
HETATM    5  C9  UNL     1      24.776   4.981  49.678  1.00  0.00     0.092 C 
HETATM    6  C10 UNL     1      24.085   3.861  49.925  1.00  0.00    -0.018 C 
HETATM    7  H11 UNL     1      26.775   5.685  50.322  1.00  0.00     0.159 HD
ENDROOT
BRANCH   1   8
HETATM    8  C5  UNL     1      25.815   1.117  51.897  1.00  0.00    -0.003 C 
HETATM    9  C4  UNL     1      25.490   0.167  52.756  1.00  0.00    -0.026 C 
BRANCH   9  10
HETATM   10  C3  UNL     1      26.290  -0.829  53.500  1.00  0.00     0.037 C 
BRANCH  10  11
HETATM   11  C2  UNL     1      27.771  -0.757  53.212  1.00  0.00     0.085 C 
BRANCH  11  12
HETATM   12  S1  UNL     1      28.661   0.057  54.575  1.00  0.00    -0.101 SA
BRANCH  12  13
HETATM   13  C1  UNL     1      29.098   1.734  54.175  1.00  0.00     0.304 C 
HETATM   14  O1  UNL     1      28.328   2.674  54.160  1.00  0.00    -0.295 OA
ENDBRANCH  12  13
ENDBRANCH  11  12
ENDBRANCH  10  11
ENDBRANCH   9  10
ENDBRANCH   1   8
BRANCH   6  15
HETATM   15  C11 UNL     1      22.677   3.553  49.669  1.00  0.00     0.155 C 
BRANCH  15  16
HETATM   16  N2  UNL     1      21.777   3.711  50.752  1.00  0.00    -0.407 N 
HETATM   17  H15 UNL     1      22.093   4.224  51.577  1.00  0.00     0.154 HD
BRANCH  16  18
HETATM   18  C12 UNL     1      20.963   2.600  51.103  1.00  0.00     0.123 A 
HETATM   19  C13 UNL     1      21.232   1.413  50.261  1.00  0.00     0.002 A 
HETATM   20  C14 UNL     1      21.533   0.341  51.008  1.00  0.00    -0.002 A 
HETATM   21  C15 UNL     1      21.475   0.777  52.398  1.00  0.00    -0.002 A 
HETATM   22  C16 UNL     1      21.150   2.065  52.451  1.00  0.00     0.002 A 
ENDBRANCH  16  18
ENDBRANCH  15  16
ENDBRANCH   6  15
TORSDOF 8
ENDMDL
MODEL 9
REMARK VINA RESULT:      -5.8      3.256      5.202
REMARK  8 active torsions:
REMARK  status: ('A' for Active; 'I' for Inactive)
REMARK    1  A    between atoms: C1_2  and  S1_3 
REMARK    2  A    between atoms: S1_3  and  C2_4 
REMARK    3  A    between atoms: C2_4  and  C3_5 
REMARK    4  A    between atoms: C3_5  and  C4_6 
REMARK    5  A    between atoms: C5_7  and  C6_8 
REMARK    6  A    between atoms: C10_13  and  C11_14 
REMARK    7  A    between atoms: C11_14  and  N2_15 
REMARK    8  A    between atoms: N2_15  and  C12_16 
ROOT
HETATM    1  C6  UNL     1      25.737   4.258  49.621  1.00  0.00     0.009 C 
HETATM    2  C7  UNL     1      24.753   4.601  50.437  1.00  0.00    -0.031 C 
HETATM    3  C8  UNL     1      24.257   5.949  50.819  1.00  0.00     0.158 C 
HETATM    4  N1  UNL     1      23.911   5.693  52.225  1.00  0.00    -0.394 N 
HETATM    5  C9  UNL     1      23.439   4.332  52.217  1.00  0.00     0.092 C 
HETATM    6  C10 UNL     1      23.909   3.635  51.175  1.00  0.00    -0.018 C 
HETATM    7  H11 UNL     1      23.971   6.307  53.065  1.00  0.00     0.159 HD
ENDROOT
BRANCH   1   8
HETATM    8  C5  UNL     1      26.498   5.304  48.957  1.00  0.00    -0.003 C 
HETATM    9  C4  UNL     1      27.770   5.077  48.683  1.00  0.00    -0.026 C 
BRANCH   9  10
HETATM   10  C3  UNL     1      28.817   5.892  48.030  1.00  0.00     0.037 C 
BRANCH  10  11
HETATM   11  C2  UNL     1      28.333   7.245  47.566  1.00  0.00     0.085 C 
BRANCH  11  12
HETATM   12  S1  UNL     1      29.031   8.575  48.593  1.00  0.00    -0.101 SA
BRANCH  12  13
HETATM   13  C1  UNL     1      27.869   9.158  49.807  1.00  0.00     0.304 C 
HETATM   14  O1  UNL     1      26.871   8.562  50.163  1.00  0.00    -0.295 OA
ENDBRANCH  12  13
ENDBRANCH  11  12
ENDBRANCH  10  11
ENDBRANCH   9  10
ENDBRANCH   1   8
BRANCH   6  15
HETATM   15  C11 UNL     1      23.685   2.237  50.805  1.00  0.00     0.155 C 
BRANCH  15  16
HETATM   16  N2  UNL     1      23.765   1.276  51.843  1.00  0.00    -0.407 N 
HETATM   17  H15 UNL     1      22.964   1.163  52.465  1.00  0.00     0.154 HD
BRANCH  16  18
HETATM   18  C12 UNL     1      24.996   1.164  52.545  1.00  0.00     0.123 A 
HETATM   19  C13 UNL     1      24.996   0.045  53.514  1.00  0.00     0.002 A 
HETATM   20  C14 UNL     1      26.024  -0.788  53.299  1.00  0.00    -0.002 A 
HETATM   21  C15 UNL     1      26.762  -0.250  52.163  1.00  0.00    -0.002 A 
HETATM   22  C16 UNL     1      26.175   0.863  51.734  1.00  0.00     0.002 A 
ENDBRANCH  16  18
ENDBRANCH  15  16
ENDBRANCH   6  15
TORSDOF 8
ENDMDL
