MODEL 1
REMARK VINA RESULT:      -8.2      0.000      0.000
REMARK  7 active torsions:
REMARK  status: ('A' for Active; 'I' for Inactive)
REMARK    1  A    between atoms: N1_7  and  C6_8 
REMARK    2  A    between atoms: C6_8  and  C7_9 
REMARK    3  A    between atoms: C7_9  and  C8_10 
REMARK    4  A    between atoms: C8_10  and  C9_11 
REMARK    5  A    between atoms: N4_19  and  C15_20 
REMARK    6  A    between atoms: C20_27  and  C21_28 
REMARK    7  A    between atoms: C21_28  and  O2_29 
ROOT
HETATM    1  C9  UNL     1      22.042   0.994  51.785  1.00  0.00    -0.068 A 
HETATM    2  C10 UNL     1      23.257   1.316  51.371  1.00  0.00     0.006 A 
HETATM    3  C11 UNL     1      24.536   0.950  51.959  1.00  0.00     0.034 A 
HETATM    4  C12 UNL     1      24.551   0.204  53.042  1.00  0.00     0.079 A 
HETATM    5  C13 UNL     1      23.234  -0.168  53.517  1.00  0.00     0.074 A 
HETATM    6  N2  UNL     1      23.144  -0.903  54.579  1.00  0.00    -0.242 NA
HETATM    7  C14 UNL     1      24.389  -1.289  55.196  1.00  0.00     0.255 A 
HETATM    8  N3  UNL     1      25.571  -0.975  54.798  1.00  0.00    -0.164 NA
HETATM    9  N4  UNL     1      25.759  -0.169  53.639  1.00  0.00    -0.255 N 
HETATM   10  C20 UNL     1      21.883   0.145  52.989  1.00  0.00     0.092 A 
ENDROOT
BRANCH   1  11
HETATM   11  C8  UNL     1      20.773   1.382  51.155  1.00  0.00     0.036 C 
BRANCH  11  12
HETATM   12  C7  UNL     1      20.604   2.794  50.738  1.00  0.00     0.024 C 
BRANCH  12  13
HETATM   13  C6  UNL     1      20.916   3.854  51.728  1.00  0.00     0.123 C 
BRANCH  13  14
HETATM   14  N1  UNL     1      21.986   4.677  51.159  1.00  0.00    -0.381 N 
HETATM   15  C2  UNL     1      23.132   5.207  51.813  1.00  0.00     0.021 C 
HETATM   16  C1  UNL     1      23.407   4.620  52.967  1.00  0.00     0.040 C 
HETATM   17  C3  UNL     1      23.736   6.312  51.002  1.00  0.00     0.223 C 
HETATM   18  O1  UNL     1      24.087   5.887  49.741  1.00  0.00    -0.384 OA
HETATM   19  C4  UNL     1      23.266   4.937  49.189  1.00  0.00     0.187 C 
HETATM   20  C5  UNL     1      21.837   4.984  49.726  1.00  0.00     0.149 C 
ENDBRANCH  13  14
ENDBRANCH  12  13
ENDBRANCH  11  12
ENDBRANCH   1  11
BRANCH  10  21
HETATM   21  C21 UNL     1      21.036   0.703  54.076  1.00  0.00     0.179 C 
BRANCH  21  22
HETATM   22  O2  UNL     1      20.162  -0.182  54.630  1.00  0.00    -0.400 OA
HETATM   23  H24 UNL     1      20.407  -0.531  55.523  1.00  0.00     0.209 HD
ENDBRANCH  21  22
ENDBRANCH  10  21
BRANCH   9  24
HETATM   24  C15 UNL     1      27.052   0.167  53.221  1.00  0.00     0.161 A 
HETATM   25  C16 UNL     1      28.088  -0.860  53.144  1.00  0.00     0.048 A 
HETATM   26  C17 UNL     1      29.261  -0.410  53.635  1.00  0.00     0.136 A 
HETATM   27  F1  UNL     1      30.543  -0.789  53.860  1.00  0.00    -0.205 F 
HETATM   28  C18 UNL     1      29.008   0.979  54.085  1.00  0.00     0.070 A 
HETATM   29 CL1  UNL     1      29.970   2.247  54.831  1.00  0.00    -0.081 Cl
HETATM   30  C19 UNL     1      27.725   1.319  53.851  1.00  0.00     0.031 A 
ENDBRANCH   9  24
TORSDOF 7
ENDMDL
MODEL 2
REMARK VINA RESULT:      -8.1      4.947      7.069
REMARK  7 active torsions:
REMARK  status: ('A' for Active; 'I' for Inactive)
REMARK    1  A    between atoms: N1_7  and  C6_8 
REMARK    2  A    between atoms: C6_8  and  C7_9 
REMARK    3  A    between atoms: C7_9  and  C8_10 
REMARK    4  A    between atoms: C8_10  and  C9_11 
REMARK    5  A    between atoms: N4_19  and  C15_20 
REMARK    6  A    between atoms: C20_27  and  C21_28 
REMARK    7  A    between atoms: C21_28  and  O2_29 
ROOT
HETATM    1  C9  UNL     1      26.389   5.919  48.671  1.00  0.00    -0.068 A 
HETATM    2  C10 UNL     1      27.033   4.781  48.875  1.00  0.00     0.006 A 
HETATM    3  C11 UNL     1      26.721   3.728  49.829  1.00  0.00     0.034 A 
HETATM    4  C12 UNL     1      25.678   3.868  50.618  1.00  0.00     0.079 A 
HETATM    5  C13 UNL     1      24.951   5.105  50.416  1.00  0.00     0.074 A 
HETATM    6  N2  UNL     1      23.907   5.336  51.145  1.00  0.00    -0.242 NA
HETATM    7  C14 UNL     1      23.562   4.317  52.107  1.00  0.00     0.255 A 
HETATM    8  N3  UNL     1      24.186   3.212  52.309  1.00  0.00    -0.164 NA
HETATM    9  N4  UNL     1      25.345   2.880  51.550  1.00  0.00    -0.255 N 
HETATM   10  C20 UNL     1      25.181   6.227  49.473  1.00  0.00     0.092 A 
ENDROOT
BRANCH   1  11
HETATM   11  C8  UNL     1      26.736   6.954  47.689  1.00  0.00     0.036 C 
BRANCH  11  12
HETATM   12  C7  UNL     1      28.153   7.377  47.592  1.00  0.00     0.024 C 
BRANCH  12  13
HETATM   13  C6  UNL     1      28.721   8.172  48.709  1.00  0.00     0.123 C 
BRANCH  13  14
HETATM   14  N1  UNL     1      30.166   7.933  48.720  1.00  0.00    -0.381 N 
HETATM   15  C2  UNL     1      31.212   8.878  48.907  1.00  0.00     0.021 C 
HETATM   16  C1  UNL     1      30.812  10.020  49.441  1.00  0.00     0.040 C 
HETATM   17  C3  UNL     1      32.519   8.313  48.439  1.00  0.00     0.223 C 
HETATM   18  O1  UNL     1      32.836   7.146  49.097  1.00  0.00    -0.384 OA
HETATM   19  C4  UNL     1      31.771   6.349  49.430  1.00  0.00     0.187 C 
HETATM   20  C5  UNL     1      30.565   6.531  48.509  1.00  0.00     0.149 C 
ENDBRANCH  13  14
ENDBRANCH  12  13
ENDBRANCH  11  12
ENDBRANCH   1  11
BRANCH  10  21
HETATM   21  C21 UNL     1      25.201   7.514  50.218  1.00  0.00     0.179 C 
BRANCH  21  22
HETATM   22  O2  UNL     1      26.222   7.641  51.110  1.00  0.00    -0.400 OA
HETATM   23  H24 UNL     1      27.135   7.631  50.727  1.00  0.00     0.209 HD
ENDBRANCH  21  22
ENDBRANCH  10  21
BRANCH   9  24
HETATM   24  C15 UNL     1      26.016   1.674  51.785  1.00  0.00     0.161 A 
HETATM   25  C16 UNL     1      25.271   0.493  52.213  1.00  0.00     0.048 A 
HETATM   26  C17 UNL     1      25.921  -0.167  53.193  1.00  0.00     0.136 A 
HETATM   27  F1  UNL     1      25.827  -1.255  53.997  1.00  0.00    -0.205 F 
HETATM   28  C18 UNL     1      27.155   0.610  53.459  1.00  0.00     0.070 A 
HETATM   29 CL1  UNL     1      28.518   0.457  54.558  1.00  0.00    -0.081 Cl
HETATM   30  C19 UNL     1      27.214   1.684  52.648  1.00  0.00     0.031 A 
ENDBRANCH   9  24
TORSDOF 7
ENDMDL
MODEL 3
REMARK VINA RESULT:      -8.0      5.518      7.810
REMARK  7 active torsions:
REMARK  status: ('A' for Active; 'I' for Inactive)
REMARK    1  A    between atoms: N1_7  and  C6_8 
REMARK    2  A    between atoms: C6_8  and  C7_9 
REMARK    3  A    between atoms: C7_9  and  C8_10 
REMARK    4  A    between atoms: C8_10  and  C9_11 
REMARK    5  A    between atoms: N4_19  and  C15_20 
REMARK    6  A    between atoms: C20_27  and  C21_28 
REMARK    7  A    between atoms: C21_28  and  O2_29 
ROOT
HETATM    1  C9  UNL     1      26.975   5.635  48.702  1.00  0.00    -0.068 A 
HETATM    2  C10 UNL     1      27.235   4.397  49.092  1.00  0.00     0.006 A 
HETATM    3  C11 UNL     1      26.439   3.538  49.955  1.00  0.00     0.034 A 
HETATM    4  C12 UNL     1      25.305   3.996  50.441  1.00  0.00     0.079 A 
HETATM    5  C13 UNL     1      24.993   5.349  50.029  1.00  0.00     0.074 A 
HETATM    6  N2  UNL     1      23.896   5.889  50.456  1.00  0.00    -0.242 NA
HETATM    7  C14 UNL     1      23.076   5.072  51.316  1.00  0.00     0.255 A 
HETATM    8  N3  UNL     1      23.326   3.870  51.699  1.00  0.00    -0.164 NA
HETATM    9  N4  UNL     1      24.511   3.203  51.275  1.00  0.00    -0.255 N 
HETATM   10  C20 UNL     1      25.728   6.295  49.154  1.00  0.00     0.092 A 
ENDROOT
BRANCH   1  11
HETATM   11  C8  UNL     1      27.808   6.466  47.822  1.00  0.00     0.036 C 
BRANCH  11  12
HETATM   12  C7  UNL     1      29.269   6.218  47.805  1.00  0.00     0.024 C 
BRANCH  12  13
HETATM   13  C6  UNL     1      30.166   7.364  47.520  1.00  0.00     0.123 C 
BRANCH  13  14
HETATM   14  N1  UNL     1      31.529   6.939  47.846  1.00  0.00    -0.381 N 
HETATM   15  C2  UNL     1      32.427   7.509  48.791  1.00  0.00     0.021 C 
HETATM   16  C1  UNL     1      31.840   8.296  49.678  1.00  0.00     0.040 C 
HETATM   17  C3  UNL     1      33.829   7.054  48.524  1.00  0.00     0.223 C 
HETATM   18  O1  UNL     1      33.938   5.683  48.563  1.00  0.00    -0.384 OA
HETATM   19  C4  UNL     1      32.844   4.992  48.108  1.00  0.00     0.187 C 
HETATM   20  C5  UNL     1      32.013   5.772  47.090  1.00  0.00     0.149 C 
ENDBRANCH  13  14
ENDBRANCH  12  13
ENDBRANCH  11  12
ENDBRANCH   1  11
BRANCH  10  21
HETATM   21  C21 UNL     1      25.893   7.599  49.850  1.00  0.00     0.179 C 
BRANCH  21  22
HETATM   22  O2  UNL     1      26.174   7.505  51.179  1.00  0.00    -0.400 OA
HETATM   23  H24 UNL     1      25.458   7.124  51.747  1.00  0.00     0.209 HD
ENDBRANCH  21  22
ENDBRANCH  10  21
BRANCH   9  24
HETATM   24  C15 UNL     1      24.771   1.896  51.704  1.00  0.00     0.161 A 
HETATM   25  C16 UNL     1      23.670   1.023  52.104  1.00  0.00     0.048 A 
HETATM   26  C17 UNL     1      23.974   0.331  53.220  1.00  0.00     0.136 A 
HETATM   27  F1  UNL     1      23.471  -0.586  54.082  1.00  0.00    -0.205 F 
HETATM   28  C18 UNL     1      25.336   0.766  53.611  1.00  0.00     0.070 A 
HETATM   29 CL1  UNL     1      26.449   0.375  54.914  1.00  0.00    -0.081 Cl
HETATM   30  C19 UNL     1      25.803   1.679  52.736  1.00  0.00     0.031 A 
ENDBRANCH   9  24
TORSDOF 7
ENDMDL
MODEL 4
REMARK VINA RESULT:      -8.0      4.189      5.494
REMARK  7 active torsions:
REMARK  status: ('A' for Active; 'I' for Inactive)
REMARK    1  A    between atoms: N1_7  and  C6_8 
REMARK    2  A    between atoms: C6_8  and  C7_9 
REMARK    3  A    between atoms: C7_9  and  C8_10 
REMARK    4  A    between atoms: C8_10  and  C9_11 
REMARK    5  A    between atoms: N4_19  and  C15_20 
REMARK    6  A    between atoms: C20_27  and  C21_28 
REMARK    7  A    between atoms: C21_28  and  O2_29 
ROOT
HETATM    1  C9  UNL     1      25.750   3.671  49.916  1.00  0.00    -0.068 A 
HETATM    2  C10 UNL     1      26.635   3.050  50.680  1.00  0.00     0.006 A 
HETATM    3  C11 UNL     1      26.402   1.992  51.650  1.00  0.00     0.034 A 
HETATM    4  C12 UNL     1      25.175   1.554  51.836  1.00  0.00     0.079 A 
HETATM    5  C13 UNL     1      24.184   2.215  51.011  1.00  0.00     0.074 A 
HETATM    6  N2  UNL     1      22.946   1.853  51.122  1.00  0.00    -0.242 NA
HETATM    7  C14 UNL     1      22.670   0.806  52.075  1.00  0.00     0.255 A 
HETATM    8  N3  UNL     1      23.526   0.202  52.820  1.00  0.00    -0.164 NA
HETATM    9  N4  UNL     1      24.909   0.539  52.761  1.00  0.00    -0.255 N 
HETATM   10  C20 UNL     1      24.321   3.288  49.996  1.00  0.00     0.092 A 
ENDROOT
BRANCH   1  11
HETATM   11  C8  UNL     1      26.031   4.734  48.942  1.00  0.00     0.036 C 
BRANCH  11  12
HETATM   12  C7  UNL     1      27.432   5.195  48.797  1.00  0.00     0.024 C 
BRANCH  12  13
HETATM   13  C6  UNL     1      27.666   6.535  48.204  1.00  0.00     0.123 C 
BRANCH  13  14
HETATM   14  N1  UNL     1      29.104   6.801  48.289  1.00  0.00    -0.381 N 
HETATM   15  C2  UNL     1      29.756   8.030  48.583  1.00  0.00     0.021 C 
HETATM   16  C1  UNL     1      28.968   8.930  49.148  1.00  0.00     0.040 C 
HETATM   17  C3  UNL     1      31.194   7.975  48.166  1.00  0.00     0.223 C 
HETATM   18  O1  UNL     1      31.866   6.944  48.783  1.00  0.00    -0.384 OA
HETATM   19  C4  UNL     1      31.126   5.813  49.013  1.00  0.00     0.187 C 
HETATM   20  C5  UNL     1      29.967   5.635  48.033  1.00  0.00     0.149 C 
ENDBRANCH  13  14
ENDBRANCH  12  13
ENDBRANCH  11  12
ENDBRANCH   1  11
BRANCH  10  21
HETATM   21  C21 UNL     1      23.364   4.387  50.296  1.00  0.00     0.179 C 
BRANCH  21  22
HETATM   22  O2  UNL     1      23.402   4.842  51.579  1.00  0.00    -0.400 OA
HETATM   23  H24 UNL     1      22.561   4.757  52.093  1.00  0.00     0.209 HD
ENDBRANCH  21  22
ENDBRANCH  10  21
BRANCH   9  24
HETATM   24  C15 UNL     1      25.828  -0.125  53.581  1.00  0.00     0.161 A 
HETATM   25  C16 UNL     1      26.492   0.592  54.667  1.00  0.00     0.048 A 
HETATM   26  C17 UNL     1      27.803   0.281  54.729  1.00  0.00     0.136 A 
HETATM   27  F1  UNL     1      28.935   0.546  55.427  1.00  0.00    -0.205 F 
HETATM   28  C18 UNL     1      28.048  -0.676  53.624  1.00  0.00     0.070 A 
HETATM   29 CL1  UNL     1      29.445  -1.546  53.008  1.00  0.00    -0.081 Cl
HETATM   30  C19 UNL     1      26.905  -0.912  52.949  1.00  0.00     0.031 A 
ENDBRANCH   9  24
TORSDOF 7
ENDMDL
MODEL 5
REMARK VINA RESULT:      -7.9      3.271      4.488
REMARK  7 active torsions:
REMARK  status: ('A' for Active; 'I' for Inactive)
REMARK    1  A    between atoms: N1_7  and  C6_8 
REMARK    2  A    between atoms: C6_8  and  C7_9 
REMARK    3  A    between atoms: C7_9  and  C8_10 
REMARK    4  A    between atoms: C8_10  and  C9_11 
REMARK    5  A    between atoms: N4_19  and  C15_20 
REMARK    6  A    between atoms: C20_27  and  C21_28 
REMARK    7  A    between atoms: C21_28  and  O2_29 
ROOT
HETATM    1  C9  UNL     1      24.985   3.298  50.218  1.00  0.00    -0.068 A 
HETATM    2  C10 UNL     1      26.001   2.812  50.912  1.00  0.00     0.006 A 
HETATM    3  C11 UNL     1      25.995   1.722  51.876  1.00  0.00     0.034 A 
HETATM    4  C12 UNL     1      24.863   1.103  52.133  1.00  0.00     0.079 A 
HETATM    5  C13 UNL     1      23.731   1.614  51.385  1.00  0.00     0.074 A 
HETATM    6  N2  UNL     1      22.572   1.068  51.568  1.00  0.00    -0.242 NA
HETATM    7  C14 UNL     1      22.519  -0.016  52.518  1.00  0.00     0.255 A 
HETATM    8  N3  UNL     1      23.503  -0.490  53.196  1.00  0.00    -0.164 NA
HETATM    9  N4  UNL     1      24.813   0.053  53.054  1.00  0.00    -0.255 N 
HETATM   10  C20 UNL     1      23.638   2.703  50.383  1.00  0.00     0.092 A 
ENDROOT
BRANCH   1  11
HETATM   11  C8  UNL     1      25.038   4.399  49.247  1.00  0.00     0.036 C 
BRANCH  11  12
HETATM   12  C7  UNL     1      25.838   5.598  49.594  1.00  0.00     0.024 C 
BRANCH  12  13
HETATM   13  C6  UNL     1      26.736   6.161  48.556  1.00  0.00     0.123 C 
BRANCH  13  14
HETATM   14  N1  UNL     1      27.126   7.501  49.000  1.00  0.00    -0.381 N 
HETATM   15  C2  UNL     1      28.231   8.285  48.566  1.00  0.00     0.021 C 
HETATM   16  C1  UNL     1      28.755   7.881  47.420  1.00  0.00     0.040 C 
HETATM   17  C3  UNL     1      28.511   9.385  49.544  1.00  0.00     0.223 C 
HETATM   18  O1  UNL     1      27.416  10.199  49.724  1.00  0.00    -0.384 OA
HETATM   19  C4  UNL     1      26.198   9.574  49.654  1.00  0.00     0.187 C 
HETATM   20  C5  UNL     1      26.253   8.093  50.027  1.00  0.00     0.149 C 
ENDBRANCH  13  14
ENDBRANCH  12  13
ENDBRANCH  11  12
ENDBRANCH   1  11
BRANCH  10  21
HETATM   21  C21 UNL     1      22.550   3.643  50.763  1.00  0.00     0.179 C 
BRANCH  21  22
HETATM   22  O2  UNL     1      22.613   4.102  52.043  1.00  0.00    -0.400 OA
HETATM   23  H24 UNL     1      22.860   5.054  52.150  1.00  0.00     0.209 HD
ENDBRANCH  21  22
ENDBRANCH  10  21
BRANCH   9  24
HETATM   24  C15 UNL     1      25.874  -0.472  53.802  1.00  0.00     0.161 A 
HETATM   25  C16 UNL     1      26.481   0.321  54.868  1.00  0.00     0.048 A 
HETATM   26  C17 UNL     1      27.826   0.222  54.847  1.00  0.00     0.136 A 
HETATM   27  F1  UNL     1      28.941   0.650  55.487  1.00  0.00    -0.205 F 
HETATM   28  C18 UNL     1      28.151  -0.662  53.702  1.00  0.00     0.070 A 
HETATM   29 CL1  UNL     1      29.629  -1.287  52.984  1.00  0.00    -0.081 Cl
HETATM   30  C19 UNL     1      27.021  -1.065  53.088  1.00  0.00     0.031 A 
ENDBRANCH   9  24
TORSDOF 7
ENDMDL
MODEL 6
REMARK VINA RESULT:      -7.9      4.381      6.301
REMARK  7 active torsions:
REMARK  status: ('A' for Active; 'I' for Inactive)
REMARK    1  A    between atoms: N1_7  and  C6_8 
REMARK    2  A    between atoms: C6_8  and  C7_9 
REMARK    3  A    between atoms: C7_9  and  C8_10 
REMARK    4  A    between atoms: C8_10  and  C9_11 
REMARK    5  A    between atoms: N4_19  and  C15_20 
REMARK    6  A    between atoms: C20_27  and  C21_28 
REMARK    7  A    between atoms: C21_28  and  O2_29 
ROOT
HETATM    1  C9  UNL     1      25.584   5.726  48.960  1.00  0.00    -0.068 A 
HETATM    2  C10 UNL     1      26.554   4.832  49.060  1.00  0.00     0.006 A 
HETATM    3  C11 UNL     1      26.666   3.725  49.997  1.00  0.00     0.034 A 
HETATM    4  C12 UNL     1      25.710   3.537  50.881  1.00  0.00     0.079 A 
HETATM    5  C13 UNL     1      24.632   4.501  50.794  1.00  0.00     0.074 A 
HETATM    6  N2  UNL     1      23.643   4.400  51.624  1.00  0.00    -0.242 NA
HETATM    7  C14 UNL     1      23.714   3.316  52.572  1.00  0.00     0.255 A 
HETATM    8  N3  UNL     1      24.656   2.446  52.674  1.00  0.00    -0.164 NA
HETATM    9  N4  UNL     1      25.780   2.486  51.801  1.00  0.00    -0.255 N 
HETATM   10  C20 UNL     1      24.424   5.650  49.878  1.00  0.00     0.092 A 
ENDROOT
BRANCH   1  11
HETATM   11  C8  UNL     1      25.509   6.828  47.992  1.00  0.00     0.036 C 
BRANCH  11  12
HETATM   12  C7  UNL     1      26.568   7.864  48.029  1.00  0.00     0.024 C 
BRANCH  12  13
HETATM   13  C6  UNL     1      27.810   7.618  47.257  1.00  0.00     0.123 C 
BRANCH  13  14
HETATM   14  N1  UNL     1      28.934   8.038  48.097  1.00  0.00    -0.381 N 
HETATM   15  C2  UNL     1      30.308   7.695  47.965  1.00  0.00     0.021 C 
HETATM   16  C1  UNL     1      30.626   7.211  46.776  1.00  0.00     0.040 C 
HETATM   17  C3  UNL     1      31.045   7.981  49.238  1.00  0.00     0.223 C 
HETATM   18  O1  UNL     1      30.939   9.304  49.604  1.00  0.00    -0.384 OA
HETATM   19  C4  UNL     1      29.746   9.906  49.297  1.00  0.00     0.187 C 
HETATM   20  C5  UNL     1      28.575   8.928  49.214  1.00  0.00     0.149 C 
ENDBRANCH  13  14
ENDBRANCH  12  13
ENDBRANCH  11  12
ENDBRANCH   1  11
BRANCH  10  21
HETATM   21  C21 UNL     1      24.132   6.875  50.669  1.00  0.00     0.179 C 
BRANCH  21  22
HETATM   22  O2  UNL     1      24.947   7.070  51.742  1.00  0.00    -0.400 OA
HETATM   23  H24 UNL     1      24.551   6.874  52.628  1.00  0.00     0.209 HD
ENDBRANCH  21  22
ENDBRANCH  10  21
BRANCH   9  24
HETATM   24  C15 UNL     1      26.800   1.535  51.927  1.00  0.00     0.161 A 
HETATM   25  C16 UNL     1      26.511   0.119  51.716  1.00  0.00     0.048 A 
HETATM   26  C17 UNL     1      27.115  -0.648  52.646  1.00  0.00     0.136 A 
HETATM   27  F1  UNL     1      27.274  -1.938  53.032  1.00  0.00    -0.205 F 
HETATM   28  C18 UNL     1      27.832   0.289  53.544  1.00  0.00     0.070 A 
HETATM   29 CL1  UNL     1      28.836   0.127  54.978  1.00  0.00    -0.081 Cl
HETATM   30  C19 UNL     1      27.648   1.559  53.134  1.00  0.00     0.031 A 
ENDBRANCH   9  24
TORSDOF 7
ENDMDL
MODEL 7
REMARK VINA RESULT:      -7.7      5.332      7.809
REMARK  7 active torsions:
REMARK  status: ('A' for Active; 'I' for Inactive)
REMARK    1  A    between atoms: N1_7  and  C6_8 
REMARK    2  A    between atoms: C6_8  and  C7_9 
REMARK    3  A    between atoms: C7_9  and  C8_10 
REMARK    4  A    between atoms: C8_10  and  C9_11 
REMARK    5  A    between atoms: N4_19  and  C15_20 
REMARK    6  A    between atoms: C20_27  and  C21_28 
REMARK    7  A    between atoms: C21_28  and  O2_29 
ROOT
HETATM    1  C9  UNL     1      27.096   5.922  48.548  1.00  0.00    -0.068 A 
HETATM    2  C10 UNL     1      27.356   4.680  48.925  1.00  0.00     0.006 A 
HETATM    3  C11 UNL     1      26.551   3.806  49.764  1.00  0.00     0.034 A 
HETATM    4  C12 UNL     1      25.408   4.251  50.239  1.00  0.00     0.079 A 
HETATM    5  C13 UNL     1      25.095   5.609  49.841  1.00  0.00     0.074 A 
HETATM    6  N2  UNL     1      23.989   6.137  50.258  1.00  0.00    -0.242 NA
HETATM    7  C14 UNL     1      23.160   5.305  51.095  1.00  0.00     0.255 A 
HETATM    8  N3  UNL     1      23.411   4.099  51.465  1.00  0.00    -0.164 NA
HETATM    9  N4  UNL     1      24.605   3.444  51.051  1.00  0.00    -0.255 N 
HETATM   10  C20 UNL     1      25.839   6.570  48.989  1.00  0.00     0.092 A 
ENDROOT
BRANCH   1  11
HETATM   11  C8  UNL     1      27.937   6.769  47.691  1.00  0.00     0.036 C 
BRANCH  11  12
HETATM   12  C7  UNL     1      29.405   6.570  47.739  1.00  0.00     0.024 C 
BRANCH  12  13
HETATM   13  C6  UNL     1      30.245   7.361  46.807  1.00  0.00     0.123 C 
BRANCH  13  14
HETATM   14  N1  UNL     1      30.488   8.660  47.439  1.00  0.00    -0.381 N 
HETATM   15  C2  UNL     1      30.125   9.951  46.965  1.00  0.00     0.021 C 
HETATM   16  C1  UNL     1      29.198   9.933  46.021  1.00  0.00     0.040 C 
HETATM   17  C3  UNL     1      30.907  11.012  47.679  1.00  0.00     0.223 C 
HETATM   18  O1  UNL     1      30.717  10.957  49.041  1.00  0.00    -0.384 OA
HETATM   19  C4  UNL     1      30.542   9.701  49.561  1.00  0.00     0.187 C 
HETATM   20  C5  UNL     1      31.198   8.601  48.728  1.00  0.00     0.149 C 
ENDBRANCH  13  14
ENDBRANCH  12  13
ENDBRANCH  11  12
ENDBRANCH   1  11
BRANCH  10  21
HETATM   21  C21 UNL     1      25.986   7.865  49.706  1.00  0.00     0.179 C 
BRANCH  21  22
HETATM   22  O2  UNL     1      26.376   7.757  51.006  1.00  0.00    -0.400 OA
HETATM   23  H24 UNL     1      25.877   8.313  51.655  1.00  0.00     0.209 HD
ENDBRANCH  21  22
ENDBRANCH  10  21
BRANCH   9  24
HETATM   24  C15 UNL     1      24.866   2.132  51.466  1.00  0.00     0.161 A 
HETATM   25  C16 UNL     1      23.761   1.237  51.802  1.00  0.00     0.048 A 
HETATM   26  C17 UNL     1      24.029   0.528  52.918  1.00  0.00     0.136 A 
HETATM   27  F1  UNL     1      23.503  -0.412  53.741  1.00  0.00    -0.205 F 
HETATM   28  C18 UNL     1      25.367   0.974  53.373  1.00  0.00     0.070 A 
HETATM   29 CL1  UNL     1      26.430   0.573  54.715  1.00  0.00    -0.081 Cl
HETATM   30  C19 UNL     1      25.857   1.910  52.536  1.00  0.00     0.031 A 
ENDBRANCH   9  24
TORSDOF 7
ENDMDL
MODEL 8
REMARK VINA RESULT:      -7.6      6.031      9.453
REMARK  7 active torsions:
REMARK  status: ('A' for Active; 'I' for Inactive)
REMARK    1  A    between atoms: N1_7  and  C6_8 
REMARK    2  A    between atoms: C6_8  and  C7_9 
REMARK    3  A    between atoms: C7_9  and  C8_10 
REMARK    4  A    between atoms: C8_10  and  C9_11 
REMARK    5  A    between atoms: N4_19  and  C15_20 
REMARK    6  A    between atoms: C20_27  and  C21_28 
REMARK    7  A    between atoms: C21_28  and  O2_29 
ROOT
HETATM    1  C9  UNL     1      26.759   4.607  49.259  1.00  0.00    -0.068 A 
HETATM    2  C10 UNL     1      27.816   5.014  48.574  1.00  0.00     0.006 A 
HETATM    3  C11 UNL     1      28.203   6.375  48.238  1.00  0.00     0.034 A 
HETATM    4  C12 UNL     1      27.445   7.372  48.639  1.00  0.00     0.079 A 
HETATM    5  C13 UNL     1      26.280   6.958  49.395  1.00  0.00     0.074 A 
HETATM    6  N2  UNL     1      25.471   7.868  49.834  1.00  0.00    -0.242 NA
HETATM    7  C14 UNL     1      25.817   9.234  49.522  1.00  0.00     0.255 A 
HETATM    8  N3  UNL     1      26.841   9.632  48.855  1.00  0.00    -0.164 NA
HETATM    9  N4  UNL     1      27.780   8.695  48.335  1.00  0.00    -0.255 N 
HETATM   10  C20 UNL     1      25.807   5.609  49.793  1.00  0.00     0.092 A 
ENDROOT
BRANCH   1  11
HETATM   11  C8  UNL     1      26.409   3.218  49.582  1.00  0.00     0.036 C 
BRANCH  11  12
HETATM   12  C7  UNL     1      26.590   2.759  50.979  1.00  0.00     0.024 C 
BRANCH  12  13
HETATM   13  C6  UNL     1      26.544   1.300  51.244  1.00  0.00     0.123 C 
BRANCH  13  14
HETATM   14  N1  UNL     1      27.087   1.086  52.587  1.00  0.00    -0.381 N 
HETATM   15  C2  UNL     1      27.047  -0.098  53.374  1.00  0.00     0.021 C 
HETATM   16  C1  UNL     1      26.775  -1.191  52.681  1.00  0.00     0.040 C 
HETATM   17  C3  UNL     1      27.333   0.217  54.811  1.00  0.00     0.223 C 
HETATM   18  O1  UNL     1      28.557   0.826  54.967  1.00  0.00    -0.384 OA
HETATM   19  C4  UNL     1      28.935   1.659  53.946  1.00  0.00     0.187 C 
HETATM   20  C5  UNL     1      27.754   2.257  53.181  1.00  0.00     0.149 C 
ENDBRANCH  13  14
ENDBRANCH  12  13
ENDBRANCH  11  12
ENDBRANCH   1  11
BRANCH  10  21
HETATM   21  C21 UNL     1      24.384   5.439  49.395  1.00  0.00     0.179 C 
BRANCH  21  22
HETATM   22  O2  UNL     1      24.060   5.981  48.189  1.00  0.00    -0.400 OA
HETATM   23  H24 UNL     1      24.814   6.347  47.662  1.00  0.00     0.209 HD
ENDBRANCH  21  22
ENDBRANCH  10  21
BRANCH   9  24
HETATM   24  C15 UNL     1      28.889   9.145  47.607  1.00  0.00     0.161 A 
HETATM   25  C16 UNL     1      30.112   9.538  48.302  1.00  0.00     0.048 A 
HETATM   26  C17 UNL     1      30.630  10.668  47.780  1.00  0.00     0.136 A 
HETATM   27  F1  UNL     1      31.664  11.534  47.914  1.00  0.00    -0.205 F 
HETATM   28  C18 UNL     1      29.708  11.074  46.692  1.00  0.00     0.070 A 
HETATM   29 CL1  UNL     1      29.640  12.399  45.540  1.00  0.00    -0.081 Cl
HETATM   30  C19 UNL     1      28.691  10.196  46.590  1.00  0.00     0.031 A 
ENDBRANCH   9  24
TORSDOF 7
ENDMDL
MODEL 9
REMARK VINA RESULT:      -7.4      4.577      7.947
REMARK  7 active torsions:
REMARK  status: ('A' for Active; 'I' for Inactive)
REMARK    1  A    between atoms: N1_7  and  C6_8 
REMARK    2  A    between atoms: C6_8  and  C7_9 
REMARK    3  A    between atoms: C7_9  and  C8_10 
REMARK    4  A    between atoms: C8_10  and  C9_11 
REMARK    5  A    between atoms: N4_19  and  C15_20 
REMARK    6  A    between atoms: C20_27  and  C21_28 
REMARK    7  A    between atoms: C21_28  and  O2_29 
ROOT
HETATM    1  C9  UNL     1      24.628   3.026  50.877  1.00  0.00    -0.068 A 
HETATM    2  C10 UNL     1      25.686   3.335  50.145  1.00  0.00     0.006 A 
HETATM    3  C11 UNL     1      26.133   4.651  49.717  1.00  0.00     0.034 A 
HETATM    4  C12 UNL     1      25.436   5.709  50.073  1.00  0.00     0.079 A 
HETATM    5  C13 UNL     1      24.272   5.402  50.878  1.00  0.00     0.074 A 
HETATM    6  N2  UNL     1      23.521   6.378  51.278  1.00  0.00    -0.242 NA
HETATM    7  C14 UNL     1      23.926   7.702  50.875  1.00  0.00     0.255 A 
HETATM    8  N3  UNL     1      24.953   8.005  50.163  1.00  0.00    -0.164 NA
HETATM    9  N4  UNL     1      25.830   6.992  49.681  1.00  0.00    -0.255 N 
HETATM   10  C20 UNL     1      23.742   4.106  51.369  1.00  0.00     0.092 A 
ENDROOT
BRANCH   1  11
HETATM   11  C8  UNL     1      24.217   1.678  51.292  1.00  0.00     0.036 C 
BRANCH  11  12
HETATM   12  C7  UNL     1      24.974   1.022  52.384  1.00  0.00     0.024 C 
BRANCH  12  13
HETATM   13  C6  UNL     1      26.243   0.336  52.036  1.00  0.00     0.123 C 
BRANCH  13  14
HETATM   14  N1  UNL     1      27.221   0.685  53.069  1.00  0.00    -0.381 N 
HETATM   15  C2  UNL     1      28.153  -0.168  53.722  1.00  0.00     0.021 C 
HETATM   16  C1  UNL     1      28.362  -1.312  53.093  1.00  0.00     0.040 C 
HETATM   17  C3  UNL     1      28.663   0.474  54.977  1.00  0.00     0.223 C 
HETATM   18  O1  UNL     1      29.257   1.689  54.724  1.00  0.00    -0.384 OA
HETATM   19  C4  UNL     1      28.701   2.416  53.703  1.00  0.00     0.187 C 
HETATM   20  C5  UNL     1      27.223   2.102  53.469  1.00  0.00     0.149 C 
ENDBRANCH  13  14
ENDBRANCH  12  13
ENDBRANCH  11  12
ENDBRANCH   1  11
BRANCH  10  21
HETATM   21  C21 UNL     1      22.303   3.985  51.013  1.00  0.00     0.179 C 
BRANCH  21  22
HETATM   22  O2  UNL     1      22.016   4.229  49.705  1.00  0.00    -0.400 OA
HETATM   23  H24 UNL     1      21.240   4.818  49.534  1.00  0.00     0.209 HD
ENDBRANCH  21  22
ENDBRANCH  10  21
BRANCH   9  24
HETATM   24  C15 UNL     1      26.941   7.339  48.903  1.00  0.00     0.161 A 
HETATM   25  C16 UNL     1      27.745   8.508  49.252  1.00  0.00     0.048 A 
HETATM   26  C17 UNL     1      28.070   9.223  48.155  1.00  0.00     0.136 A 
HETATM   27  F1  UNL     1      28.742  10.332  47.761  1.00  0.00    -0.205 F 
HETATM   28  C18 UNL     1      27.444   8.521  47.010  1.00  0.00     0.070 A 
HETATM   29 CL1  UNL     1      27.368   8.780  45.273  1.00  0.00    -0.081 Cl
HETATM   30  C19 UNL     1      26.782   7.428  47.438  1.00  0.00     0.031 A 
ENDBRANCH   9  24
TORSDOF 7
ENDMDL
