MODEL 1
REMARK VINA RESULT:      -9.0      0.000      0.000
REMARK  0 active torsions:
REMARK  status: ('A' for Active; 'I' for Inactive)
ROOT
HETATM    1  C1  UNL     1      27.169   4.359  48.953  1.00  0.00     0.045 C 
HETATM    2  C2  UNL     1      25.959   4.267  49.840  1.00  0.00    -0.066 C 
HETATM    3  C3  UNL     1      25.974   3.245  50.729  1.00  0.00     0.138 C 
HETATM    4  N1  UNL     1      24.973   2.939  51.654  1.00  0.00    -0.075 NA
HETATM    5  C4  UNL     1      25.131   2.452  52.804  1.00  0.00     0.727 C 
HETATM    6  N2  UNL     1      26.223   2.038  53.601  1.00  0.00    -0.072 NA
HETATM    7  C5  UNL     1      26.282   0.924  54.217  1.00  0.00     0.174 C 
HETATM    8  C6  UNL     1      25.236  -0.094  54.191  1.00  0.00     0.117 C 
HETATM    9  F1  UNL     1      25.240  -1.279  54.849  1.00  0.00    -0.209 F 
HETATM   10  C7  UNL     1      24.068  -0.571  53.797  1.00  0.00     0.070 C 
HETATM   11  C8  UNL     1      22.746  -0.794  53.173  1.00  0.00     0.049 C 
HETATM   12  C9  UNL     1      21.826  -1.458  54.210  1.00  0.00     0.017 C 
HETATM   13  C10 UNL     1      22.074   0.435  52.719  1.00  0.00     0.085 A 
HETATM   14  N3  UNL     1      20.840   0.414  52.220  1.00  0.00    -0.244 NA
HETATM   15  C11 UNL     1      20.488   1.643  51.882  1.00  0.00     0.211 A 
HETATM   16  N4  UNL     1      21.489   2.486  52.156  1.00  0.00    -0.326 N 
HETATM   17  C12 UNL     1      22.508   1.770  52.684  1.00  0.00     0.149 A 
HETATM   18  N5  UNL     1      23.696   2.491  53.048  1.00  0.00    -0.171 N 
HETATM   19  C13 UNL     1      21.455   3.934  51.901  1.00  0.00     0.131 C 
HETATM   20  C14 UNL     1      21.799   4.140  50.456  1.00  0.00     0.020 C 
HETATM   21  C15 UNL     1      21.876   5.559  50.026  1.00  0.00     0.002 C 
HETATM   22  C16 UNL     1      22.863   6.371  50.835  1.00  0.00     0.000 C 
HETATM   23  C17 UNL     1      24.183   5.643  50.960  1.00  0.00     0.004 C 
HETATM   24  C18 UNL     1      24.899   5.323  49.711  1.00  0.00     0.035 C 
HETATM   25  H12 UNL     1      23.445   3.296  53.698  1.00  0.00     0.186 HD
ENDROOT
TORSDOF 0
ENDMDL
MODEL 2
REMARK VINA RESULT:      -8.5      1.397      1.797
REMARK  0 active torsions:
REMARK  status: ('A' for Active; 'I' for Inactive)
ROOT
HETATM    1  C1  UNL     1      27.474   4.776  48.684  1.00  0.00     0.045 C 
HETATM    2  C2  UNL     1      26.226   4.937  49.507  1.00  0.00    -0.066 C 
HETATM    3  C3  UNL     1      25.860   3.842  50.217  1.00  0.00     0.138 C 
HETATM    4  N1  UNL     1      24.743   3.732  51.048  1.00  0.00    -0.075 NA
HETATM    5  C4  UNL     1      24.655   3.057  52.108  1.00  0.00     0.727 C 
HETATM    6  N2  UNL     1      25.503   2.212  52.859  1.00  0.00    -0.072 NA
HETATM    7  C5  UNL     1      25.173   1.057  53.286  1.00  0.00     0.174 C 
HETATM    8  C6  UNL     1      23.873   0.432  53.062  1.00  0.00     0.117 C 
HETATM    9  F1  UNL     1      23.465  -0.778  53.517  1.00  0.00    -0.209 F 
HETATM   10  C7  UNL     1      22.650   0.406  52.560  1.00  0.00     0.070 C 
HETATM   11  C8  UNL     1      21.376   0.701  51.868  1.00  0.00     0.049 C 
HETATM   12  C9  UNL     1      20.219   0.213  52.755  1.00  0.00     0.017 C 
HETATM   13  C10 UNL     1      21.147   2.130  51.602  1.00  0.00     0.085 A 
HETATM   14  N3  UNL     1      20.008   2.568  51.070  1.00  0.00    -0.244 NA
HETATM   15  C11 UNL     1      20.073   3.881  50.927  1.00  0.00     0.211 A 
HETATM   16  N4  UNL     1      21.258   4.321  51.365  1.00  0.00    -0.326 N 
HETATM   17  C12 UNL     1      21.966   3.253  51.799  1.00  0.00     0.149 A 
HETATM   18  N5  UNL     1      23.284   3.506  52.311  1.00  0.00    -0.171 N 
HETATM   19  C13 UNL     1      21.684   5.727  51.349  1.00  0.00     0.131 C 
HETATM   20  C14 UNL     1      22.189   6.025  49.967  1.00  0.00     0.020 C 
HETATM   21  C15 UNL     1      22.726   7.396  49.779  1.00  0.00     0.002 C 
HETATM   22  C16 UNL     1      23.846   7.732  50.739  1.00  0.00     0.000 C 
HETATM   23  C17 UNL     1      24.868   6.619  50.782  1.00  0.00     0.004 C 
HETATM   24  C18 UNL     1      25.550   6.277  49.521  1.00  0.00     0.035 C 
HETATM   25  H12 UNL     1      23.239   4.246  53.077  1.00  0.00     0.186 HD
ENDROOT
TORSDOF 0
ENDMDL
MODEL 3
REMARK VINA RESULT:      -8.3      2.463      6.555
REMARK  0 active torsions:
REMARK  status: ('A' for Active; 'I' for Inactive)
ROOT
HETATM    1  C1  UNL     1      18.141  -0.049  51.167  1.00  0.00     0.045 C 
HETATM    2  C2  UNL     1      19.439   0.399  51.779  1.00  0.00    -0.066 C 
HETATM    3  C3  UNL     1      20.008   1.481  51.196  1.00  0.00     0.138 C 
HETATM    4  N1  UNL     1      21.211   2.085  51.569  1.00  0.00    -0.075 NA
HETATM    5  C4  UNL     1      21.491   3.311  51.507  1.00  0.00     0.727 C 
HETATM    6  N2  UNL     1      20.836   4.493  51.092  1.00  0.00    -0.072 NA
HETATM    7  C5  UNL     1      21.347   5.364  50.315  1.00  0.00     0.174 C 
HETATM    8  C6  UNL     1      22.683   5.273  49.733  1.00  0.00     0.117 C 
HETATM    9  F1  UNL     1      23.281   6.183  48.927  1.00  0.00    -0.209 F 
HETATM   10  C7  UNL     1      23.841   4.666  49.533  1.00  0.00     0.070 C 
HETATM   11  C8  UNL     1      24.990   3.735  49.522  1.00  0.00     0.049 C 
HETATM   12  C9  UNL     1      26.284   4.561  49.596  1.00  0.00     0.017 C 
HETATM   13  C10 UNL     1      25.013   2.787  50.647  1.00  0.00     0.085 A 
HETATM   14  N3  UNL     1      26.028   1.945  50.831  1.00  0.00    -0.244 NA
HETATM   15  C11 UNL     1      25.789   1.203  51.899  1.00  0.00     0.211 A 
HETATM   16  N4  UNL     1      24.612   1.551  52.430  1.00  0.00    -0.326 N 
HETATM   17  C12 UNL     1      24.089   2.544  51.675  1.00  0.00     0.149 A 
HETATM   18  N5  UNL     1      22.810   3.065  52.073  1.00  0.00    -0.171 N 
HETATM   19  C13 UNL     1      24.018   0.930  53.622  1.00  0.00     0.131 C 
HETATM   20  C14 UNL     1      23.339  -0.332  53.176  1.00  0.00     0.020 C 
HETATM   21  C15 UNL     1      22.622  -1.069  54.247  1.00  0.00     0.002 C 
HETATM   22  C16 UNL     1      21.576  -0.230  54.947  1.00  0.00     0.000 C 
HETATM   23  C17 UNL     1      20.708   0.494  53.943  1.00  0.00     0.004 C 
HETATM   24  C18 UNL     1      19.944  -0.332  52.990  1.00  0.00     0.035 C 
HETATM   25  H12 UNL     1      22.845   3.368  53.094  1.00  0.00     0.186 HD
ENDROOT
TORSDOF 0
ENDMDL
MODEL 4
REMARK VINA RESULT:      -8.2      2.652      5.828
REMARK  0 active torsions:
REMARK  status: ('A' for Active; 'I' for Inactive)
ROOT
HETATM    1  C1  UNL     1      29.012   1.219  53.835  1.00  0.00     0.045 C 
HETATM    2  C2  UNL     1      27.663   1.315  53.178  1.00  0.00    -0.066 C 
HETATM    3  C3  UNL     1      27.517   2.347  52.313  1.00  0.00     0.138 C 
HETATM    4  N1  UNL     1      26.366   2.658  51.584  1.00  0.00    -0.075 NA
HETATM    5  C4  UNL     1      26.316   3.158  50.429  1.00  0.00     0.727 C 
HETATM    6  N2  UNL     1      27.248   3.585  49.455  1.00  0.00    -0.072 NA
HETATM    7  C5  UNL     1      27.194   4.706  48.851  1.00  0.00     0.174 C 
HETATM    8  C6  UNL     1      26.166   5.719  49.075  1.00  0.00     0.117 C 
HETATM    9  F1  UNL     1      26.050   6.910  48.440  1.00  0.00    -0.209 F 
HETATM   10  C7  UNL     1      25.086   6.186  49.676  1.00  0.00     0.070 C 
HETATM   11  C8  UNL     1      23.894   6.396  50.528  1.00  0.00     0.049 C 
HETATM   12  C9  UNL     1      22.803   7.066  49.678  1.00  0.00     0.017 C 
HETATM   13  C10 UNL     1      23.318   5.159  51.079  1.00  0.00     0.085 A 
HETATM   14  N3  UNL     1      22.192   5.169  51.790  1.00  0.00    -0.244 NA
HETATM   15  C11 UNL     1      21.909   3.935  52.171  1.00  0.00     0.211 A 
HETATM   16  N4  UNL     1      22.848   3.099  51.714  1.00  0.00    -0.326 N 
HETATM   17  C12 UNL     1      23.754   3.826  51.022  1.00  0.00     0.149 A 
HETATM   18  N5  UNL     1      24.861   3.115  50.444  1.00  0.00    -0.171 N 
HETATM   19  C13 UNL     1      22.863   1.649  51.955  1.00  0.00     0.131 C 
HETATM   20  C14 UNL     1      23.460   1.430  53.314  1.00  0.00     0.020 C 
HETATM   21  C15 UNL     1      23.615   0.006  53.707  1.00  0.00     0.002 C 
HETATM   22  C16 UNL     1      24.445  -0.792  52.726  1.00  0.00     0.000 C 
HETATM   23  C17 UNL     1      25.720  -0.057  52.377  1.00  0.00     0.004 C 
HETATM   24  C18 UNL     1      26.646   0.253  53.482  1.00  0.00     0.035 C 
HETATM   25  H12 UNL     1      24.500   2.315  49.840  1.00  0.00     0.186 HD
ENDROOT
TORSDOF 0
ENDMDL
MODEL 5
REMARK VINA RESULT:      -8.1      2.000      4.311
REMARK  0 active torsions:
REMARK  status: ('A' for Active; 'I' for Inactive)
ROOT
HETATM    1  C1  UNL     1      22.557   6.651  50.901  1.00  0.00     0.045 C 
HETATM    2  C2  UNL     1      23.087   5.243  50.905  1.00  0.00    -0.066 C 
HETATM    3  C3  UNL     1      22.210   4.300  51.323  1.00  0.00     0.138 C 
HETATM    4  N1  UNL     1      22.458   2.928  51.424  1.00  0.00    -0.075 NA
HETATM    5  C4  UNL     1      21.633   1.996  51.232  1.00  0.00     0.727 C 
HETATM    6  N2  UNL     1      20.268   1.891  50.877  1.00  0.00    -0.072 NA
HETATM    7  C5  UNL     1      19.421   1.162  51.489  1.00  0.00     0.174 C 
HETATM    8  C6  UNL     1      19.728   0.331  52.649  1.00  0.00     0.117 C 
HETATM    9  F1  UNL     1      18.870  -0.481  53.315  1.00  0.00    -0.209 F 
HETATM   10  C7  UNL     1      20.545  -0.147  53.572  1.00  0.00     0.070 C 
HETATM   11  C8  UNL     1      21.700  -0.469  54.438  1.00  0.00     0.049 C 
HETATM   12  C9  UNL     1      21.662  -1.972  54.758  1.00  0.00     0.017 C 
HETATM   13  C10 UNL     1      23.011  -0.188  53.830  1.00  0.00     0.085 A 
HETATM   14  N3  UNL     1      24.149  -0.506  54.444  1.00  0.00    -0.244 NA
HETATM   15  C11 UNL     1      25.168  -0.133  53.689  1.00  0.00     0.211 A 
HETATM   16  N4  UNL     1      24.710   0.436  52.568  1.00  0.00    -0.326 N 
HETATM   17  C12 UNL     1      23.358   0.423  52.615  1.00  0.00     0.149 A 
HETATM   18  N5  UNL     1      22.659   0.998  51.499  1.00  0.00    -0.171 N 
HETATM   19  C13 UNL     1      25.560   0.980  51.500  1.00  0.00     0.131 C 
HETATM   20  C14 UNL     1      25.976   2.359  51.921  1.00  0.00     0.020 C 
HETATM   21  C15 UNL     1      26.797   3.096  50.927  1.00  0.00     0.002 C 
HETATM   22  C16 UNL     1      26.120   3.231  49.581  1.00  0.00     0.000 C 
HETATM   23  C17 UNL     1      24.693   3.702  49.743  1.00  0.00     0.004 C 
HETATM   24  C18 UNL     1      24.480   5.006  50.398  1.00  0.00     0.035 C 
HETATM   25  H12 UNL     1      22.994   0.549  50.592  1.00  0.00     0.186 HD
ENDROOT
TORSDOF 0
ENDMDL
MODEL 6
REMARK VINA RESULT:      -8.0      2.902      6.111
REMARK  0 active torsions:
REMARK  status: ('A' for Active; 'I' for Inactive)
ROOT
HETATM    1  C1  UNL     1      25.860   0.717  53.838  1.00  0.00     0.045 C 
HETATM    2  C2  UNL     1      24.934   1.465  52.918  1.00  0.00    -0.066 C 
HETATM    3  C3  UNL     1      25.531   2.394  52.133  1.00  0.00     0.138 C 
HETATM    4  N1  UNL     1      24.895   3.223  51.205  1.00  0.00    -0.075 NA
HETATM    5  C4  UNL     1      25.369   3.635  50.114  1.00  0.00     0.727 C 
HETATM    6  N2  UNL     1      26.582   3.492  49.402  1.00  0.00    -0.072 NA
HETATM    7  C5  UNL     1      27.240   4.460  48.899  1.00  0.00     0.174 C 
HETATM    8  C6  UNL     1      26.844   5.863  48.984  1.00  0.00     0.117 C 
HETATM    9  F1  UNL     1      27.493   6.923  48.444  1.00  0.00    -0.209 F 
HETATM   10  C7  UNL     1      26.044   6.838  49.378  1.00  0.00     0.070 C 
HETATM   11  C8  UNL     1      24.964   7.657  49.970  1.00  0.00     0.049 C 
HETATM   12  C9  UNL     1      24.587   8.760  48.968  1.00  0.00     0.017 C 
HETATM   13  C10 UNL     1      23.734   6.910  50.277  1.00  0.00     0.085 A 
HETATM   14  N3  UNL     1      22.640   7.519  50.729  1.00  0.00    -0.244 NA
HETATM   15  C11 UNL     1      21.694   6.618  50.934  1.00  0.00     0.211 A 
HETATM   16  N4  UNL     1      22.158   5.403  50.618  1.00  0.00    -0.326 N 
HETATM   17  C12 UNL     1      23.437   5.539  50.200  1.00  0.00     0.149 A 
HETATM   18  N5  UNL     1      24.131   4.342  49.814  1.00  0.00    -0.171 N 
HETATM   19  C13 UNL     1      21.384   4.159  50.730  1.00  0.00     0.131 C 
HETATM   20  C14 UNL     1      21.461   3.714  52.162  1.00  0.00     0.020 C 
HETATM   21  C15 UNL     1      20.783   2.427  52.455  1.00  0.00     0.002 C 
HETATM   22  C16 UNL     1      21.294   1.281  51.609  1.00  0.00     0.000 C 
HETATM   23  C17 UNL     1      22.806   1.249  51.605  1.00  0.00     0.004 C 
HETATM   24  C18 UNL     1      23.483   1.083  52.905  1.00  0.00     0.035 C 
HETATM   25  H12 UNL     1      23.565   3.817  49.080  1.00  0.00     0.186 HD
ENDROOT
TORSDOF 0
ENDMDL
MODEL 7
REMARK VINA RESULT:      -7.7      2.804      6.840
REMARK  0 active torsions:
REMARK  status: ('A' for Active; 'I' for Inactive)
ROOT
HETATM    1  C1  UNL     1      20.402   0.232  51.651  1.00  0.00     0.045 C 
HETATM    2  C2  UNL     1      21.721   0.934  51.819  1.00  0.00    -0.066 C 
HETATM    3  C3  UNL     1      21.746   2.220  51.394  1.00  0.00     0.138 C 
HETATM    4  N1  UNL     1      22.845   3.082  51.434  1.00  0.00    -0.075 NA
HETATM    5  C4  UNL     1      22.821   4.327  51.618  1.00  0.00     0.727 C 
HETATM    6  N2  UNL     1      21.832   5.313  51.839  1.00  0.00    -0.072 NA
HETATM    7  C5  UNL     1      21.763   6.417  51.207  1.00  0.00     0.174 C 
HETATM    8  C6  UNL     1      22.691   6.830  50.158  1.00  0.00     0.117 C 
HETATM    9  F1  UNL     1      22.677   8.003  49.478  1.00  0.00    -0.209 F 
HETATM   10  C7  UNL     1      23.733   6.641  49.367  1.00  0.00     0.070 C 
HETATM   11  C8  UNL     1      24.916   6.112  48.653  1.00  0.00     0.049 C 
HETATM   12  C9  UNL     1      25.918   7.261  48.457  1.00  0.00     0.017 C 
HETATM   13  C10 UNL     1      25.622   5.035  49.366  1.00  0.00     0.085 A 
HETATM   14  N3  UNL     1      26.757   4.516  48.900  1.00  0.00    -0.244 NA
HETATM   15  C11 UNL     1      27.168   3.565  49.721  1.00  0.00     0.211 A 
HETATM   16  N4  UNL     1      26.305   3.448  50.738  1.00  0.00    -0.326 N 
HETATM   17  C12 UNL     1      25.318   4.354  50.555  1.00  0.00     0.149 A 
HETATM   18  N5  UNL     1      24.274   4.393  51.542  1.00  0.00    -0.171 N 
HETATM   19  C13 UNL     1      26.437   2.482  51.837  1.00  0.00     0.131 C 
HETATM   20  C14 UNL     1      25.894   1.172  51.347  1.00  0.00     0.020 C 
HETATM   21  C15 UNL     1      25.887   0.081  52.355  1.00  0.00     0.002 C 
HETATM   22  C16 UNL     1      25.119   0.436  53.608  1.00  0.00     0.000 C 
HETATM   23  C17 UNL     1      23.772   1.029  53.263  1.00  0.00     0.004 C 
HETATM   24  C18 UNL     1      22.843   0.190  52.483  1.00  0.00     0.035 C 
HETATM   25  H12 UNL     1      24.699   4.511  52.512  1.00  0.00     0.186 HD
ENDROOT
TORSDOF 0
ENDMDL
MODEL 8
REMARK VINA RESULT:      -7.3      1.714      2.452
REMARK  0 active torsions:
REMARK  status: ('A' for Active; 'I' for Inactive)
ROOT
HETATM    1  C1  UNL     1      26.507   3.373  49.310  1.00  0.00     0.045 C 
HETATM    2  C2  UNL     1      25.181   3.674  49.951  1.00  0.00    -0.066 C 
HETATM    3  C3  UNL     1      24.618   2.641  50.622  1.00  0.00     0.138 C 
HETATM    4  N1  UNL     1      23.394   2.660  51.294  1.00  0.00    -0.075 NA
HETATM    5  C4  UNL     1      23.098   2.029  52.343  1.00  0.00     0.727 C 
HETATM    6  N2  UNL     1      23.751   1.131  53.218  1.00  0.00    -0.072 NA
HETATM    7  C5  UNL     1      23.256   0.025  53.615  1.00  0.00     0.174 C 
HETATM    8  C6  UNL     1      21.944  -0.483  53.224  1.00  0.00     0.117 C 
HETATM    9  F1  UNL     1      21.364  -1.635  53.640  1.00  0.00    -0.209 F 
HETATM   10  C7  UNL     1      20.804  -0.410  52.559  1.00  0.00     0.070 C 
HETATM   11  C8  UNL     1      19.670  -0.018  51.694  1.00  0.00     0.049 C 
HETATM   12  C9  UNL     1      18.362  -0.369  52.421  1.00  0.00     0.017 C 
HETATM   13  C10 UNL     1      19.618   1.418  51.375  1.00  0.00     0.085 A 
HETATM   14  N3  UNL     1      18.609   1.944  50.683  1.00  0.00    -0.244 NA
HETATM   15  C11 UNL     1      18.819   3.240  50.528  1.00  0.00     0.211 A 
HETATM   16  N4  UNL     1      19.971   3.580  51.117  1.00  0.00    -0.326 N 
HETATM   17  C12 UNL     1      20.507   2.465  51.663  1.00  0.00     0.149 A 
HETATM   18  N5  UNL     1      21.762   2.609  52.348  1.00  0.00    -0.171 N 
HETATM   19  C13 UNL     1      20.529   4.940  51.137  1.00  0.00     0.131 C 
HETATM   20  C14 UNL     1      21.242   5.147  49.833  1.00  0.00     0.020 C 
HETATM   21  C15 UNL     1      21.930   6.456  49.697  1.00  0.00     0.002 C 
HETATM   22  C16 UNL     1      22.936   6.715  50.796  1.00  0.00     0.000 C 
HETATM   23  C17 UNL     1      23.831   5.513  50.998  1.00  0.00     0.004 C 
HETATM   24  C18 UNL     1      24.642   5.072  49.849  1.00  0.00     0.035 C 
HETATM   25  H12 UNL     1      21.685   3.372  53.087  1.00  0.00     0.186 HD
ENDROOT
TORSDOF 0
ENDMDL
MODEL 9
REMARK VINA RESULT:      -7.3      2.842      5.630
REMARK  0 active torsions:
REMARK  status: ('A' for Active; 'I' for Inactive)
ROOT
HETATM    1  C1  UNL     1      15.993   4.249  51.367  1.00  0.00     0.045 C 
HETATM    2  C2  UNL     1      17.195   3.553  50.791  1.00  0.00    -0.066 C 
HETATM    3  C3  UNL     1      17.744   2.603  51.584  1.00  0.00     0.138 C 
HETATM    4  N1  UNL     1      18.865   1.823  51.286  1.00  0.00    -0.075 NA
HETATM    5  C4  UNL     1      19.069   0.631  51.634  1.00  0.00     0.727 C 
HETATM    6  N2  UNL     1      18.379  -0.352  52.382  1.00  0.00    -0.072 NA
HETATM    7  C5  UNL     1      18.904  -1.047  53.312  1.00  0.00     0.174 C 
HETATM    8  C6  UNL     1      20.292  -0.932  53.750  1.00  0.00     0.117 C 
HETATM    9  F1  UNL     1      20.902  -1.666  54.713  1.00  0.00    -0.209 F 
HETATM   10  C7  UNL     1      21.500  -0.398  53.704  1.00  0.00     0.070 C 
HETATM   11  C8  UNL     1      22.703   0.404  53.394  1.00  0.00     0.049 C 
HETATM   12  C9  UNL     1      23.928  -0.524  53.434  1.00  0.00     0.017 C 
HETATM   13  C10 UNL     1      22.683   1.041  52.068  1.00  0.00     0.085 A 
HETATM   14  N3  UNL     1      23.729   1.721  51.602  1.00  0.00    -0.244 NA
HETATM   15  C11 UNL     1      23.440   2.195  50.403  1.00  0.00     0.211 A 
HETATM   16  N4  UNL     1      22.197   1.831  50.066  1.00  0.00    -0.326 N 
HETATM   17  C12 UNL     1      21.683   1.104  51.084  1.00  0.00     0.149 A 
HETATM   18  N5  UNL     1      20.342   0.614  50.927  1.00  0.00    -0.171 N 
HETATM   19  C13 UNL     1      21.535   2.190  48.804  1.00  0.00     0.131 C 
HETATM   20  C14 UNL     1      20.986   3.577  48.967  1.00  0.00     0.020 C 
HETATM   21  C15 UNL     1      20.221   4.088  47.802  1.00  0.00     0.002 C 
HETATM   22  C16 UNL     1      19.061   3.197  47.416  1.00  0.00     0.000 C 
HETATM   23  C17 UNL     1      18.245   2.820  48.632  1.00  0.00     0.004 C 
HETATM   24  C18 UNL     1      17.630   3.918  49.401  1.00  0.00     0.035 C 
HETATM   25  H12 UNL     1      20.260   0.068  50.016  1.00  0.00     0.186 HD
ENDROOT
TORSDOF 0
ENDMDL
