MODEL 1
REMARK VINA RESULT:      -7.8      0.000      0.000
REMARK  6 active torsions:
REMARK  status: ('A' for Active; 'I' for Inactive)
REMARK    1  A    between atoms: C3_3  and  O1_4 
REMARK    2  A    between atoms: C5_6  and  N1_7 
REMARK    3  A    between atoms: N1_7  and  C6_8 
REMARK       I    between atoms: N1_7  and  C13_16 
REMARK    4  A    between atoms: C6_8  and  C7_9 
REMARK    5  A    between atoms: C10_12  and  O2_13 
REMARK       I    between atoms: C13_16  and  N2_18 
REMARK    6  A    between atoms: N2_18  and  C14_19 
ROOT
HETATM    1  N1  UNL     1      24.593   3.227  51.111  1.00  0.00    -0.303 N 
HETATM    2  C13 UNL     1      25.455   2.771  52.145  1.00  0.00     0.325 C 
HETATM    3  O3  UNL     1      24.968   2.794  53.302  1.00  0.00    -0.247 OA
HETATM    4  N2  UNL     1      26.783   2.313  51.931  1.00  0.00    -0.312 N 
HETATM    5  H15 UNL     1      27.049   2.350  50.936  1.00  0.00     0.170 HD
ENDROOT
BRANCH   1   6
HETATM    6  C5  UNL     1      23.261   3.654  51.572  1.00  0.00     0.234 C 
HETATM    7  C4  UNL     1      23.390   5.124  51.906  1.00  0.00     0.118 C 
HETATM    8  C3  UNL     1      22.377   5.956  51.209  1.00  0.00     0.051 C 
HETATM    9  C2  UNL     1      21.309   5.518  50.567  1.00  0.00    -0.031 C 
HETATM   10  C1  UNL     1      20.382   6.492  49.915  1.00  0.00     0.048 C 
HETATM   11  C19 UNL     1      21.184   4.037  50.591  1.00  0.00     0.207 C 
HETATM   12  O4  UNL     1      22.415   3.406  50.498  1.00  0.00    -0.362 OA
BRANCH   8  13
HETATM   13  O1  UNL     1      22.609   7.335  51.259  1.00  0.00    -0.365 OA
HETATM   14  H4  UNL     1      21.804   7.917  51.501  1.00  0.00     0.217 HD
ENDBRANCH   8  13
ENDBRANCH   1   6
BRANCH   1  15
HETATM   15  C6  UNL     1      24.865   3.314  49.701  1.00  0.00     0.168 C 
BRANCH  15  16
HETATM   16  C7  UNL     1      25.708   4.441  49.299  1.00  0.00    -0.040 A 
HETATM   17  C8  UNL     1      27.023   4.129  49.019  1.00  0.00     0.011 A 
HETATM   18  C9  UNL     1      27.969   5.056  48.625  1.00  0.00     0.037 A 
HETATM   19  C10 UNL     1      27.601   6.380  48.495  1.00  0.00     0.065 A 
HETATM   20  C11 UNL     1      26.284   6.711  48.772  1.00  0.00     0.037 A 
HETATM   21  C12 UNL     1      25.356   5.768  49.164  1.00  0.00     0.011 A 
BRANCH  19  22
HETATM   22  O2  UNL     1      28.456   7.392  48.109  1.00  0.00    -0.361 OA
HETATM   23  H12 UNL     1      29.387   7.208  47.714  1.00  0.00     0.217 HD
ENDBRANCH  19  22
ENDBRANCH  15  16
ENDBRANCH   1  15
BRANCH   4  24
HETATM   24  C14 UNL     1      27.668   1.851  52.940  1.00  0.00     0.017 A 
HETATM   25  C15 UNL     1      28.625   2.520  53.559  1.00  0.00     0.025 A 
HETATM   26  C16 UNL     1      29.323   1.695  54.541  1.00  0.00    -0.002 A 
HETATM   27  C17 UNL     1      28.752   0.513  54.486  1.00  0.00    -0.021 A 
HETATM   28  C18 UNL     1      27.661   0.491  53.482  1.00  0.00     0.084 A 
ENDBRANCH   4  24
TORSDOF 6
ENDMDL
MODEL 2
REMARK VINA RESULT:      -7.7      3.042      5.940
REMARK  6 active torsions:
REMARK  status: ('A' for Active; 'I' for Inactive)
REMARK    1  A    between atoms: C3_3  and  O1_4 
REMARK    2  A    between atoms: C5_6  and  N1_7 
REMARK    3  A    between atoms: N1_7  and  C6_8 
REMARK       I    between atoms: N1_7  and  C13_16 
REMARK    4  A    between atoms: C6_8  and  C7_9 
REMARK    5  A    between atoms: C10_12  and  O2_13 
REMARK       I    between atoms: C13_16  and  N2_18 
REMARK    6  A    between atoms: N2_18  and  C14_19 
ROOT
HETATM    1  N1  UNL     1      24.957   2.243  51.829  1.00  0.00    -0.303 N 
HETATM    2  C13 UNL     1      23.786   1.472  52.068  1.00  0.00     0.325 C 
HETATM    3  O3  UNL     1      23.039   1.306  51.073  1.00  0.00    -0.247 OA
HETATM    4  N2  UNL     1      23.446   0.911  53.329  1.00  0.00    -0.312 N 
HETATM    5  H15 UNL     1      24.147   1.129  54.051  1.00  0.00     0.170 HD
ENDROOT
BRANCH   1   6
HETATM    6  C5  UNL     1      25.099   2.722  50.443  1.00  0.00     0.234 C 
HETATM    7  C4  UNL     1      24.335   4.025  50.375  1.00  0.00     0.118 C 
HETATM    8  C3  UNL     1      25.159   5.141  49.846  1.00  0.00     0.051 C 
HETATM    9  C2  UNL     1      26.335   5.035  49.252  1.00  0.00    -0.031 C 
HETATM   10  C1  UNL     1      27.039   6.263  48.774  1.00  0.00     0.048 C 
HETATM   11  C19 UNL     1      26.805   3.629  49.144  1.00  0.00     0.207 C 
HETATM   12  O4  UNL     1      26.468   2.877  50.258  1.00  0.00    -0.362 OA
BRANCH   8  13
HETATM   13  O1  UNL     1      24.604   6.414  50.010  1.00  0.00    -0.365 OA
HETATM   14  H4  UNL     1      24.865   6.910  50.866  1.00  0.00     0.217 HD
ENDBRANCH   8  13
ENDBRANCH   1   6
BRANCH   1  15
HETATM   15  C6  UNL     1      25.993   2.599  52.762  1.00  0.00     0.168 C 
BRANCH  15  16
HETATM   16  C7  UNL     1      26.990   1.557  53.009  1.00  0.00    -0.040 A 
HETATM   17  C8  UNL     1      28.156   1.982  53.615  1.00  0.00     0.011 A 
HETATM   18  C9  UNL     1      29.211   1.148  53.928  1.00  0.00     0.037 A 
HETATM   19  C10 UNL     1      29.120  -0.196  53.629  1.00  0.00     0.065 A 
HETATM   20  C11 UNL     1      27.956  -0.641  53.020  1.00  0.00     0.037 A 
HETATM   21  C12 UNL     1      26.914   0.211  52.717  1.00  0.00     0.011 A 
BRANCH  19  22
HETATM   22  O2  UNL     1      30.107  -1.123  53.893  1.00  0.00    -0.361 OA
HETATM   23  H12 UNL     1      29.932  -1.977  54.439  1.00  0.00     0.217 HD
ENDBRANCH  19  22
ENDBRANCH  15  16
ENDBRANCH   1  15
BRANCH   4  24
HETATM   24  C14 UNL     1      22.287   0.138  53.600  1.00  0.00     0.017 A 
HETATM   25  C15 UNL     1      22.215  -1.128  53.969  1.00  0.00     0.025 A 
HETATM   26  C16 UNL     1      20.834  -1.568  54.153  1.00  0.00    -0.002 A 
HETATM   27  C17 UNL     1      20.086  -0.522  53.878  1.00  0.00    -0.021 A 
HETATM   28  C18 UNL     1      20.917   0.648  53.506  1.00  0.00     0.084 A 
ENDBRANCH   4  24
TORSDOF 6
ENDMDL
MODEL 3
REMARK VINA RESULT:      -7.7      2.418      5.035
REMARK  6 active torsions:
REMARK  status: ('A' for Active; 'I' for Inactive)
REMARK    1  A    between atoms: C3_3  and  O1_4 
REMARK    2  A    between atoms: C5_6  and  N1_7 
REMARK    3  A    between atoms: N1_7  and  C6_8 
REMARK       I    between atoms: N1_7  and  C13_16 
REMARK    4  A    between atoms: C6_8  and  C7_9 
REMARK    5  A    between atoms: C10_12  and  O2_13 
REMARK       I    between atoms: C13_16  and  N2_18 
REMARK    6  A    between atoms: N2_18  and  C14_19 
ROOT
HETATM    1  N1  UNL     1      25.126   2.920  51.973  1.00  0.00    -0.303 N 
HETATM    2  C13 UNL     1      26.286   2.104  52.079  1.00  0.00     0.325 C 
HETATM    3  O3  UNL     1      27.131   2.249  51.162  1.00  0.00    -0.247 OA
HETATM    4  N2  UNL     1      26.512   1.176  53.131  1.00  0.00    -0.312 N 
HETATM    5  H15 UNL     1      25.738   1.162  53.809  1.00  0.00     0.170 HD
ENDROOT
BRANCH   1   6
HETATM    6  C5  UNL     1      25.109   3.806  50.796  1.00  0.00     0.234 C 
HETATM    7  C4  UNL     1      24.489   2.998  49.679  1.00  0.00     0.118 C 
HETATM    8  C3  UNL     1      23.342   3.694  49.042  1.00  0.00     0.051 C 
HETATM    9  C2  UNL     1      23.007   4.962  49.203  1.00  0.00    -0.031 C 
HETATM   10  C1  UNL     1      21.817   5.512  48.487  1.00  0.00     0.048 C 
HETATM   11  C19 UNL     1      23.916   5.690  50.126  1.00  0.00     0.207 C 
HETATM   12  O4  UNL     1      24.338   4.896  51.181  1.00  0.00    -0.362 OA
BRANCH   8  13
HETATM   13  O1  UNL     1      22.564   2.897  48.196  1.00  0.00    -0.365 OA
HETATM   14  H4  UNL     1      22.253   2.003  48.583  1.00  0.00     0.217 HD
ENDBRANCH   8  13
ENDBRANCH   1   6
BRANCH   1  15
HETATM   15  C6  UNL     1      23.997   2.979  52.863  1.00  0.00     0.168 C 
BRANCH  15  16
HETATM   16  C7  UNL     1      22.871   2.120  52.495  1.00  0.00    -0.040 A 
HETATM   17  C8  UNL     1      21.697   2.779  52.185  1.00  0.00     0.011 A 
HETATM   18  C9  UNL     1      20.529   2.141  51.816  1.00  0.00     0.037 A 
HETATM   19  C10 UNL     1      20.508   0.763  51.743  1.00  0.00     0.065 A 
HETATM   20  C11 UNL     1      21.677   0.085  52.051  1.00  0.00     0.037 A 
HETATM   21  C12 UNL     1      22.833   0.744  52.417  1.00  0.00     0.011 A 
BRANCH  19  22
HETATM   22  O2  UNL     1      19.402   0.019  51.387  1.00  0.00    -0.361 OA
HETATM   23  H12 UNL     1      19.469  -0.826  50.803  1.00  0.00     0.217 HD
ENDBRANCH  19  22
ENDBRANCH  15  16
ENDBRANCH   1  15
BRANCH   4  24
HETATM   24  C14 UNL     1      27.658   0.348  53.265  1.00  0.00     0.017 A 
HETATM   25  C15 UNL     1      27.774  -0.940  52.995  1.00  0.00     0.025 A 
HETATM   26  C16 UNL     1      29.120  -1.438  53.265  1.00  0.00    -0.002 A 
HETATM   27  C17 UNL     1      29.802  -0.404  53.707  1.00  0.00    -0.021 A 
HETATM   28  C18 UNL     1      28.958   0.814  53.751  1.00  0.00     0.084 A 
ENDBRANCH   4  24
TORSDOF 6
ENDMDL
MODEL 4
REMARK VINA RESULT:      -7.6      3.542      4.762
REMARK  6 active torsions:
REMARK  status: ('A' for Active; 'I' for Inactive)
REMARK    1  A    between atoms: C3_3  and  O1_4 
REMARK    2  A    between atoms: C5_6  and  N1_7 
REMARK    3  A    between atoms: N1_7  and  C6_8 
REMARK       I    between atoms: N1_7  and  C13_16 
REMARK    4  A    between atoms: C6_8  and  C7_9 
REMARK    5  A    between atoms: C10_12  and  O2_13 
REMARK       I    between atoms: C13_16  and  N2_18 
REMARK    6  A    between atoms: N2_18  and  C14_19 
ROOT
HETATM    1  N1  UNL     1      23.506   0.357  52.924  1.00  0.00    -0.303 N 
HETATM    2  C13 UNL     1      24.812  -0.018  53.343  1.00  0.00     0.325 C 
HETATM    3  O3  UNL     1      24.879  -0.561  54.472  1.00  0.00    -0.247 OA
HETATM    4  N2  UNL     1      25.986   0.190  52.570  1.00  0.00    -0.312 N 
HETATM    5  H15 UNL     1      25.781   0.645  51.669  1.00  0.00     0.170 HD
ENDROOT
BRANCH   1   6
HETATM    6  C5  UNL     1      22.441   0.043  53.892  1.00  0.00     0.234 C 
HETATM    7  C4  UNL     1      21.235   0.843  53.454  1.00  0.00     0.118 C 
HETATM    8  C3  UNL     1      20.025  -0.001  53.280  1.00  0.00     0.051 C 
HETATM    9  C2  UNL     1      19.876  -1.250  53.682  1.00  0.00    -0.031 C 
HETATM   10  C1  UNL     1      18.588  -1.963  53.429  1.00  0.00     0.048 C 
HETATM   11  C19 UNL     1      21.083  -1.789  54.363  1.00  0.00     0.207 C 
HETATM   12  O4  UNL     1      22.258  -1.331  53.788  1.00  0.00    -0.362 OA
BRANCH   8  13
HETATM   13  O1  UNL     1      18.960   0.624  52.623  1.00  0.00    -0.365 OA
HETATM   14  H4  UNL     1      18.875   0.430  51.623  1.00  0.00     0.217 HD
ENDBRANCH   8  13
ENDBRANCH   1   6
BRANCH   1  15
HETATM   15  C6  UNL     1      23.115   0.989  51.692  1.00  0.00     0.168 C 
BRANCH  15  16
HETATM   16  C7  UNL     1      23.564   2.373  51.534  1.00  0.00    -0.040 A 
HETATM   17  C8  UNL     1      24.306   2.632  50.399  1.00  0.00     0.011 A 
HETATM   18  C9  UNL     1      24.816   3.874  50.077  1.00  0.00     0.037 A 
HETATM   19  C10 UNL     1      24.583   4.938  50.925  1.00  0.00     0.065 A 
HETATM   20  C11 UNL     1      23.841   4.697  52.070  1.00  0.00     0.037 A 
HETATM   21  C12 UNL     1      23.340   3.447  52.371  1.00  0.00     0.011 A 
BRANCH  19  22
HETATM   22  O2  UNL     1      25.041   6.222  50.709  1.00  0.00    -0.361 OA
HETATM   23  H12 UNL     1      24.824   6.750  49.853  1.00  0.00     0.217 HD
ENDBRANCH  19  22
ENDBRANCH  15  16
ENDBRANCH   1  15
BRANCH   4  24
HETATM   24  C14 UNL     1      27.303  -0.172  52.959  1.00  0.00     0.017 A 
HETATM   25  C15 UNL     1      28.260   0.606  53.431  1.00  0.00     0.025 A 
HETATM   26  C16 UNL     1      29.482  -0.142  53.718  1.00  0.00    -0.002 A 
HETATM   27  C17 UNL     1      29.221  -1.390  53.400  1.00  0.00    -0.021 A 
HETATM   28  C18 UNL     1      27.834  -1.535  52.895  1.00  0.00     0.084 A 
ENDBRANCH   4  24
TORSDOF 6
ENDMDL
MODEL 5
REMARK VINA RESULT:      -7.6      2.584      5.989
REMARK  6 active torsions:
REMARK  status: ('A' for Active; 'I' for Inactive)
REMARK    1  A    between atoms: C3_3  and  O1_4 
REMARK    2  A    between atoms: C5_6  and  N1_7 
REMARK    3  A    between atoms: N1_7  and  C6_8 
REMARK       I    between atoms: N1_7  and  C13_16 
REMARK    4  A    between atoms: C6_8  and  C7_9 
REMARK    5  A    between atoms: C10_12  and  O2_13 
REMARK       I    between atoms: C13_16  and  N2_18 
REMARK    6  A    between atoms: N2_18  and  C14_19 
ROOT
HETATM    1  N1  UNL     1      23.880   3.286  51.517  1.00  0.00    -0.303 N 
HETATM    2  C13 UNL     1      24.495   4.070  50.503  1.00  0.00     0.325 C 
HETATM    3  O3  UNL     1      23.780   4.308  49.500  1.00  0.00    -0.247 OA
HETATM    4  N2  UNL     1      25.824   4.569  50.578  1.00  0.00    -0.312 N 
HETATM    5  H15 UNL     1      26.291   4.295  51.454  1.00  0.00     0.170 HD
ENDROOT
BRANCH   1   6
HETATM    6  C5  UNL     1      22.496   2.880  51.220  1.00  0.00     0.234 C 
HETATM    7  C4  UNL     1      22.552   1.397  50.931  1.00  0.00     0.118 C 
HETATM    8  C3  UNL     1      21.600   0.619  51.765  1.00  0.00     0.051 C 
HETATM    9  C2  UNL     1      20.619   1.111  52.501  1.00  0.00    -0.031 C 
HETATM   10  C1  UNL     1      19.745   0.188  53.286  1.00  0.00     0.048 C 
HETATM   11  C19 UNL     1      20.529   2.593  52.433  1.00  0.00     0.207 C 
HETATM   12  O4  UNL     1      21.778   3.191  52.369  1.00  0.00    -0.362 OA
BRANCH   8  13
HETATM   13  O1  UNL     1      21.792  -0.766  51.743  1.00  0.00    -0.365 OA
HETATM   14  H4  UNL     1      20.951  -1.337  51.854  1.00  0.00     0.217 HD
ENDBRANCH   8  13
ENDBRANCH   1   6
BRANCH   1  15
HETATM   15  C6  UNL     1      24.441   2.856  52.771  1.00  0.00     0.168 C 
BRANCH  15  16
HETATM   16  C7  UNL     1      25.174   1.590  52.722  1.00  0.00    -0.040 A 
HETATM   17  C8  UNL     1      24.771   0.635  53.634  1.00  0.00     0.011 A 
HETATM   18  C9  UNL     1      25.340  -0.619  53.741  1.00  0.00     0.037 A 
HETATM   19  C10 UNL     1      26.375  -0.963  52.895  1.00  0.00     0.065 A 
HETATM   20  C11 UNL     1      26.793  -0.016  51.972  1.00  0.00     0.037 A 
HETATM   21  C12 UNL     1      26.209   1.231  51.884  1.00  0.00     0.011 A 
BRANCH  19  22
HETATM   22  O2  UNL     1      27.020  -2.182  52.908  1.00  0.00    -0.361 OA
HETATM   23  H12 UNL     1      27.376  -2.629  52.052  1.00  0.00     0.217 HD
ENDBRANCH  19  22
ENDBRANCH  15  16
ENDBRANCH   1  15
BRANCH   4  24
HETATM   24  C14 UNL     1      26.466   5.353  49.584  1.00  0.00     0.017 A 
HETATM   25  C15 UNL     1      26.185   6.587  49.207  1.00  0.00     0.025 A 
HETATM   26  C16 UNL     1      27.076   7.053  48.148  1.00  0.00    -0.002 A 
HETATM   27  C17 UNL     1      27.897   6.055  47.906  1.00  0.00    -0.021 A 
HETATM   28  C18 UNL     1      27.598   4.893  48.778  1.00  0.00     0.084 A 
ENDBRANCH   4  24
TORSDOF 6
ENDMDL
MODEL 6
REMARK VINA RESULT:      -7.6      3.232      7.217
REMARK  6 active torsions:
REMARK  status: ('A' for Active; 'I' for Inactive)
REMARK    1  A    between atoms: C3_3  and  O1_4 
REMARK    2  A    between atoms: C5_6  and  N1_7 
REMARK    3  A    between atoms: N1_7  and  C6_8 
REMARK       I    between atoms: N1_7  and  C13_16 
REMARK    4  A    between atoms: C6_8  and  C7_9 
REMARK    5  A    between atoms: C10_12  and  O2_13 
REMARK       I    between atoms: C13_16  and  N2_18 
REMARK    6  A    between atoms: N2_18  and  C14_19 
ROOT
HETATM    1  N1  UNL     1      24.533   0.520  52.823  1.00  0.00    -0.303 N 
HETATM    2  C13 UNL     1      23.194   0.087  53.027  1.00  0.00     0.325 C 
HETATM    3  O3  UNL     1      23.023  -0.691  53.997  1.00  0.00    -0.247 OA
HETATM    4  N2  UNL     1      22.097   0.482  52.215  1.00  0.00    -0.312 N 
HETATM    5  H15 UNL     1      22.384   1.119  51.459  1.00  0.00     0.170 HD
ENDROOT
BRANCH   1   6
HETATM    6  C5  UNL     1      25.503  -0.020  53.790  1.00  0.00     0.234 C 
HETATM    7  C4  UNL     1      25.966  -1.341  53.217  1.00  0.00     0.118 C 
HETATM    8  C3  UNL     1      27.445  -1.430  53.115  1.00  0.00     0.051 C 
HETATM    9  C2  UNL     1      28.320  -0.608  53.667  1.00  0.00    -0.031 C 
HETATM   10  C1  UNL     1      29.783  -0.838  53.467  1.00  0.00     0.048 C 
HETATM   11  C19 UNL     1      27.680   0.482  54.448  1.00  0.00     0.207 C 
HETATM   12  O4  UNL     1      26.511   0.935  53.855  1.00  0.00    -0.362 OA
BRANCH   8  13
HETATM   13  O1  UNL     1      27.920  -2.501  52.352  1.00  0.00    -0.365 OA
HETATM   14  H4  UNL     1      27.211  -3.058  51.869  1.00  0.00     0.217 HD
ENDBRANCH   8  13
ENDBRANCH   1   6
BRANCH   1  15
HETATM   15  C6  UNL     1      25.034   1.406  51.805  1.00  0.00     0.168 C 
BRANCH  15  16
HETATM   16  C7  UNL     1      24.474   2.757  51.827  1.00  0.00    -0.040 A 
HETATM   17  C8  UNL     1      24.322   3.358  50.593  1.00  0.00     0.011 A 
HETATM   18  C9  UNL     1      23.811   4.628  50.410  1.00  0.00     0.037 A 
HETATM   19  C10 UNL     1      23.419   5.362  51.512  1.00  0.00     0.065 A 
HETATM   20  C11 UNL     1      23.564   4.775  52.759  1.00  0.00     0.037 A 
HETATM   21  C12 UNL     1      24.077   3.503  52.917  1.00  0.00     0.011 A 
BRANCH  19  22
HETATM   22  O2  UNL     1      22.896   6.637  51.453  1.00  0.00    -0.361 OA
HETATM   23  H12 UNL     1      22.555   7.055  50.578  1.00  0.00     0.217 HD
ENDBRANCH  19  22
ENDBRANCH  15  16
ENDBRANCH   1  15
BRANCH   4  24
HETATM   24  C14 UNL     1      20.750   0.067  52.393  1.00  0.00     0.017 A 
HETATM   25  C15 UNL     1      20.221  -0.580  53.416  1.00  0.00     0.025 A 
HETATM   26  C16 UNL     1      18.794  -0.828  53.228  1.00  0.00    -0.002 A 
HETATM   27  C17 UNL     1      18.491  -0.309  52.058  1.00  0.00    -0.021 A 
HETATM   28  C18 UNL     1      19.682   0.302  51.420  1.00  0.00     0.084 A 
ENDBRANCH   4  24
TORSDOF 6
ENDMDL
MODEL 7
REMARK VINA RESULT:      -7.6      2.805      3.792
REMARK  6 active torsions:
REMARK  status: ('A' for Active; 'I' for Inactive)
REMARK    1  A    between atoms: C3_3  and  O1_4 
REMARK    2  A    between atoms: C5_6  and  N1_7 
REMARK    3  A    between atoms: N1_7  and  C6_8 
REMARK       I    between atoms: N1_7  and  C13_16 
REMARK    4  A    between atoms: C6_8  and  C7_9 
REMARK    5  A    between atoms: C10_12  and  O2_13 
REMARK       I    between atoms: C13_16  and  N2_18 
REMARK    6  A    between atoms: N2_18  and  C14_19 
ROOT
HETATM    1  N1  UNL     1      21.974   3.646  50.540  1.00  0.00    -0.303 N 
HETATM    2  C13 UNL     1      21.865   2.704  51.599  1.00  0.00     0.325 C 
HETATM    3  O3  UNL     1      21.194   3.085  52.590  1.00  0.00    -0.247 OA
HETATM    4  N2  UNL     1      22.456   1.412  51.580  1.00  0.00    -0.312 N 
HETATM    5  H15 UNL     1      22.975   1.237  50.708  1.00  0.00     0.170 HD
ENDROOT
BRANCH   1   6
HETATM    6  C5  UNL     1      21.278   4.921  50.783  1.00  0.00     0.234 C 
HETATM    7  C4  UNL     1      22.281   5.814  51.478  1.00  0.00     0.118 C 
HETATM    8  C3  UNL     1      22.449   7.122  50.794  1.00  0.00     0.051 C 
HETATM    9  C2  UNL     1      21.673   7.616  49.846  1.00  0.00    -0.031 C 
HETATM   10  C1  UNL     1      21.979   8.955  49.258  1.00  0.00     0.048 C 
HETATM   11  C19 UNL     1      20.548   6.713  49.488  1.00  0.00     0.207 C 
HETATM   12  O4  UNL     1      20.917   5.378  49.521  1.00  0.00    -0.362 OA
BRANCH   8  13
HETATM   13  O1  UNL     1      23.546   7.876  51.223  1.00  0.00    -0.365 OA
HETATM   14  H4  UNL     1      24.406   7.765  50.681  1.00  0.00     0.217 HD
ENDBRANCH   8  13
ENDBRANCH   1   6
BRANCH   1  15
HETATM   15  C6  UNL     1      22.668   3.499  49.288  1.00  0.00     0.168 C 
BRANCH  15  16
HETATM   16  C7  UNL     1      24.102   3.786  49.335  1.00  0.00    -0.040 A 
HETATM   17  C8  UNL     1      24.475   5.028  48.862  1.00  0.00     0.011 A 
HETATM   18  C9  UNL     1      25.780   5.480  48.826  1.00  0.00     0.037 A 
HETATM   19  C10 UNL     1      26.790   4.659  49.286  1.00  0.00     0.065 A 
HETATM   20  C11 UNL     1      26.434   3.408  49.764  1.00  0.00     0.037 A 
HETATM   21  C12 UNL     1      25.123   2.978  49.791  1.00  0.00     0.011 A 
BRANCH  19  22
HETATM   22  O2  UNL     1      28.127   5.001  49.299  1.00  0.00    -0.361 OA
HETATM   23  H12 UNL     1      28.554   5.532  50.069  1.00  0.00     0.217 HD
ENDBRANCH  19  22
ENDBRANCH  15  16
ENDBRANCH   1  15
BRANCH   4  24
HETATM   24  C14 UNL     1      22.365   0.450  52.620  1.00  0.00     0.017 A 
HETATM   25  C15 UNL     1      23.302   0.074  53.472  1.00  0.00     0.025 A 
HETATM   26  C16 UNL     1      22.822  -0.947  54.399  1.00  0.00    -0.002 A 
HETATM   27  C17 UNL     1      21.568  -1.169  54.070  1.00  0.00    -0.021 A 
HETATM   28  C18 UNL     1      21.157  -0.319  52.926  1.00  0.00     0.084 A 
ENDBRANCH   4  24
TORSDOF 6
ENDMDL
MODEL 8
REMARK VINA RESULT:      -7.4      3.071      6.840
REMARK  6 active torsions:
REMARK  status: ('A' for Active; 'I' for Inactive)
REMARK    1  A    between atoms: C3_3  and  O1_4 
REMARK    2  A    between atoms: C5_6  and  N1_7 
REMARK    3  A    between atoms: N1_7  and  C6_8 
REMARK       I    between atoms: N1_7  and  C13_16 
REMARK    4  A    between atoms: C6_8  and  C7_9 
REMARK    5  A    between atoms: C10_12  and  O2_13 
REMARK       I    between atoms: C13_16  and  N2_18 
REMARK    6  A    between atoms: N2_18  and  C14_19 
ROOT
HETATM    1  N1  UNL     1      23.969   1.419  52.904  1.00  0.00    -0.303 N 
HETATM    2  C13 UNL     1      22.794   0.623  52.823  1.00  0.00     0.325 C 
HETATM    3  O3  UNL     1      22.988  -0.612  52.703  1.00  0.00    -0.247 OA
HETATM    4  N2  UNL     1      21.473   1.145  52.868  1.00  0.00    -0.312 N 
HETATM    5  H15 UNL     1      21.465   2.170  52.967  1.00  0.00     0.170 HD
ENDROOT
BRANCH   1   6
HETATM    6  C5  UNL     1      25.228   0.658  52.834  1.00  0.00     0.234 C 
HETATM    7  C4  UNL     1      26.218   1.559  52.130  1.00  0.00     0.118 C 
HETATM    8  C3  UNL     1      27.471   1.742  52.906  1.00  0.00     0.051 C 
HETATM    9  C2  UNL     1      27.851   1.040  53.958  1.00  0.00    -0.031 C 
HETATM   10  C1  UNL     1      29.150   1.352  54.629  1.00  0.00     0.048 C 
HETATM   11  C19 UNL     1      26.874  -0.013  54.338  1.00  0.00     0.207 C 
HETATM   12  O4  UNL     1      25.563   0.399  54.158  1.00  0.00    -0.362 OA
BRANCH   8  13
HETATM   13  O1  UNL     1      28.305   2.767  52.447  1.00  0.00    -0.365 OA
HETATM   14  H4  UNL     1      28.105   3.703  52.807  1.00  0.00     0.217 HD
ENDBRANCH   8  13
ENDBRANCH   1   6
BRANCH   1  15
HETATM   15  C6  UNL     1      24.066   2.848  53.045  1.00  0.00     0.168 C 
BRANCH  15  16
HETATM   16  C7  UNL     1      23.444   3.622  51.971  1.00  0.00    -0.040 A 
HETATM   17  C8  UNL     1      22.675   4.694  52.379  1.00  0.00     0.011 A 
HETATM   18  C9  UNL     1      22.011   5.541  51.513  1.00  0.00     0.037 A 
HETATM   19  C10 UNL     1      22.106   5.325  50.153  1.00  0.00     0.065 A 
HETATM   20  C11 UNL     1      22.874   4.253  49.725  1.00  0.00     0.037 A 
HETATM   21  C12 UNL     1      23.529   3.420  50.609  1.00  0.00     0.011 A 
BRANCH  19  22
HETATM   22  O2  UNL     1      21.488   6.102  49.195  1.00  0.00    -0.361 OA
HETATM   23  H12 UNL     1      22.013   6.712  48.555  1.00  0.00     0.217 HD
ENDBRANCH  19  22
ENDBRANCH  15  16
ENDBRANCH   1  15
BRANCH   4  24
HETATM   24  C14 UNL     1      20.281   0.377  52.790  1.00  0.00     0.017 A 
HETATM   25  C15 UNL     1      19.827  -0.519  53.647  1.00  0.00     0.025 A 
HETATM   26  C16 UNL     1      18.558  -1.098  53.213  1.00  0.00    -0.002 A 
HETATM   27  C17 UNL     1      18.272  -0.517  52.068  1.00  0.00    -0.021 A 
HETATM   28  C18 UNL     1      19.320   0.462  51.689  1.00  0.00     0.084 A 
ENDBRANCH   4  24
TORSDOF 6
ENDMDL
MODEL 9
REMARK VINA RESULT:      -7.4      3.413      6.449
REMARK  6 active torsions:
REMARK  status: ('A' for Active; 'I' for Inactive)
REMARK    1  A    between atoms: C3_3  and  O1_4 
REMARK    2  A    between atoms: C5_6  and  N1_7 
REMARK    3  A    between atoms: N1_7  and  C6_8 
REMARK       I    between atoms: N1_7  and  C13_16 
REMARK    4  A    between atoms: C6_8  and  C7_9 
REMARK    5  A    between atoms: C10_12  and  O2_13 
REMARK       I    between atoms: C13_16  and  N2_18 
REMARK    6  A    between atoms: N2_18  and  C14_19 
ROOT
HETATM    1  N1  UNL     1      21.819   2.482  51.023  1.00  0.00    -0.303 N 
HETATM    2  C13 UNL     1      20.625   1.864  51.484  1.00  0.00     0.325 C 
HETATM    3  O3  UNL     1      19.680   2.647  51.743  1.00  0.00    -0.247 OA
HETATM    4  N2  UNL     1      20.469   0.462  51.656  1.00  0.00    -0.312 N 
HETATM    5  H15 UNL     1      21.324  -0.056  51.407  1.00  0.00     0.170 HD
ENDROOT
BRANCH   1   6
HETATM    6  C5  UNL     1      21.748   3.950  50.924  1.00  0.00     0.234 C 
HETATM    7  C4  UNL     1      22.303   4.479  52.228  1.00  0.00     0.118 C 
HETATM    8  C3  UNL     1      23.397   5.462  52.022  1.00  0.00     0.051 C 
HETATM    9  C2  UNL     1      23.727   6.042  50.882  1.00  0.00    -0.031 C 
HETATM   10  C1  UNL     1      24.860   7.015  50.843  1.00  0.00     0.048 C 
HETATM   11  C19 UNL     1      22.871   5.614  49.744  1.00  0.00     0.207 C 
HETATM   12  O4  UNL     1      22.530   4.272  49.821  1.00  0.00    -0.362 OA
BRANCH   8  13
HETATM   13  O1  UNL     1      24.128   5.781  53.171  1.00  0.00    -0.365 OA
HETATM   14  H4  UNL     1      23.759   6.547  53.739  1.00  0.00     0.217 HD
ENDBRANCH   8  13
ENDBRANCH   1   6
BRANCH   1  15
HETATM   15  C6  UNL     1      23.058   1.852  50.648  1.00  0.00     0.168 C 
BRANCH  15  16
HETATM   16  C7  UNL     1      23.948   1.521  51.760  1.00  0.00    -0.040 A 
HETATM   17  C8  UNL     1      25.091   2.291  51.857  1.00  0.00     0.011 A 
HETATM   18  C9  UNL     1      26.049   2.128  52.838  1.00  0.00     0.037 A 
HETATM   19  C10 UNL     1      25.877   1.146  53.792  1.00  0.00     0.065 A 
HETATM   20  C11 UNL     1      24.736   0.363  53.711  1.00  0.00     0.037 A 
HETATM   21  C12 UNL     1      23.791   0.544  52.721  1.00  0.00     0.011 A 
BRANCH  19  22
HETATM   22  O2  UNL     1      26.765   0.891  54.817  1.00  0.00    -0.361 OA
HETATM   23  H12 UNL     1      27.412   0.091  54.803  1.00  0.00     0.217 HD
ENDBRANCH  19  22
ENDBRANCH  15  16
ENDBRANCH   1  15
BRANCH   4  24
HETATM   24  C14 UNL     1      19.292  -0.186  52.114  1.00  0.00     0.017 A 
HETATM   25  C15 UNL     1      18.116  -0.266  51.517  1.00  0.00     0.025 A 
HETATM   26  C16 UNL     1      17.150  -1.021  52.310  1.00  0.00    -0.002 A 
HETATM   27  C17 UNL     1      17.788  -1.386  53.400  1.00  0.00    -0.021 A 
HETATM   28  C18 UNL     1      19.189  -0.902  53.387  1.00  0.00     0.084 A 
ENDBRANCH   4  24
TORSDOF 6
ENDMDL
