MODEL 1
REMARK VINA RESULT:      -7.5      0.000      0.000
REMARK  7 active torsions:
REMARK  status: ('A' for Active; 'I' for Inactive)
REMARK    1  A    between atoms: C2_2  and  C3_3 
REMARK    2  A    between atoms: N3_13  and  C11_14 
REMARK    3  A    between atoms: N4_17  and  C14_18 
REMARK    4  A    between atoms: C14_18  and  N5_19 
REMARK    5  A    between atoms: N5_19  and  C15_20 
REMARK    6  A    between atoms: C15_20  and  C16_21 
REMARK    7  A    between atoms: C16_21  and  N6_22 
ROOT
HETATM    1  C3  UNL     1      18.951  -0.662  53.122  1.00  0.00     0.048 C 
HETATM    2  C4  UNL     1      18.944   0.264  52.184  1.00  0.00     0.070 C 
HETATM    3  C5  UNL     1      17.935   0.155  51.174  1.00  0.00     0.102 C 
HETATM    4  N1  UNL     1      17.122   0.085  50.371  1.00  0.00    -0.191 NA
HETATM    5  C6  UNL     1      19.911   1.383  52.118  1.00  0.00     0.026 C 
HETATM    6  C7  UNL     1      21.114   1.450  52.705  1.00  0.00     0.013 C 
HETATM    7  C8  UNL     1      21.773   0.461  53.542  1.00  0.00    -0.008 C 
HETATM    8  C9  UNL     1      23.082   0.338  53.379  1.00  0.00     0.111 A 
HETATM    9  N2  UNL     1      23.830  -0.617  54.163  1.00  0.00    -0.239 NA
HETATM   10  C10 UNL     1      25.075  -0.598  53.848  1.00  0.00     0.212 A 
HETATM   11  N3  UNL     1      25.297   0.364  52.825  1.00  0.00    -0.325 N 
HETATM   12  C13 UNL     1      24.073   0.967  52.509  1.00  0.00     0.157 A 
HETATM   13  N4  UNL     1      23.801   1.867  51.681  1.00  0.00    -0.240 NA
HETATM   14  C17 UNL     1      21.111  -0.408  54.536  1.00  0.00     0.161 C 
HETATM   15  N7  UNL     1      19.800  -0.841  54.239  1.00  0.00    -0.384 N 
HETATM   16  H23 UNL     1      19.411  -1.405  55.025  1.00  0.00     0.160 HD
ENDROOT
BRANCH   1  17
HETATM   17  C2  UNL     1      17.896  -1.619  52.919  1.00  0.00     0.020 C 
HETATM   18  C1  UNL     1      17.816  -2.690  53.684  1.00  0.00     0.013 C 
ENDBRANCH   1  17
BRANCH  11  19
HETATM   19  C11 UNL     1      26.652   0.498  52.357  1.00  0.00     0.127 C 
HETATM   20  C12 UNL     1      27.340  -0.843  52.658  1.00  0.00     0.027 C 
ENDBRANCH  11  19
BRANCH  13  21
HETATM   21  C14 UNL     1      24.603   2.591  50.765  1.00  0.00     0.420 C 
BRANCH  21  22
HETATM   22  N5  UNL     1      24.918   3.900  51.277  1.00  0.00     0.104 N 
HETATM   23  H14 UNL     1      25.762   3.976  51.840  1.00  0.00     0.318 HD
BRANCH  22  24
HETATM   24  C15 UNL     1      23.774   4.544  51.862  1.00  0.00     0.301 C 
BRANCH  24  25
HETATM   25  C16 UNL     1      23.580   5.973  51.338  1.00  0.00     0.296 C 
BRANCH  25  26
HETATM   26  N6  UNL     1      24.470   6.912  51.976  1.00  0.00     0.080 N 
HETATM   27  H19 UNL     1      24.163   7.157  52.932  1.00  0.00     0.312 HD
HETATM   28  H20 UNL     1      25.431   6.513  52.059  1.00  0.00     0.312 HD
ENDBRANCH  25  26
ENDBRANCH  24  25
ENDBRANCH  22  24
ENDBRANCH  21  22
ENDBRANCH  13  21
TORSDOF 7
ENDMDL
MODEL 2
REMARK VINA RESULT:      -7.1      2.342      6.952
REMARK  7 active torsions:
REMARK  status: ('A' for Active; 'I' for Inactive)
REMARK    1  A    between atoms: C2_2  and  C3_3 
REMARK    2  A    between atoms: N3_13  and  C11_14 
REMARK    3  A    between atoms: N4_17  and  C14_18 
REMARK    4  A    between atoms: C14_18  and  N5_19 
REMARK    5  A    between atoms: N5_19  and  C15_20 
REMARK    6  A    between atoms: C15_20  and  C16_21 
REMARK    7  A    between atoms: C16_21  and  N6_22 
ROOT
HETATM    1  C3  UNL     1      28.231   0.227  53.446  1.00  0.00     0.048 C 
HETATM    2  C4  UNL     1      28.350   1.539  53.507  1.00  0.00     0.070 C 
HETATM    3  C5  UNL     1      29.355   2.058  54.383  1.00  0.00     0.102 C 
HETATM    4  N1  UNL     1      30.166   2.483  55.071  1.00  0.00    -0.191 NA
HETATM    5  C6  UNL     1      27.509   2.482  52.736  1.00  0.00     0.026 C 
HETATM    6  C7  UNL     1      26.312   2.237  52.185  1.00  0.00     0.013 C 
HETATM    7  C8  UNL     1      25.540   1.006  52.199  1.00  0.00    -0.008 C 
HETATM    8  C9  UNL     1      24.228   1.141  52.320  1.00  0.00     0.111 A 
HETATM    9  N2  UNL     1      23.372  -0.022  52.345  1.00  0.00    -0.239 NA
HETATM   10  C10 UNL     1      22.140   0.315  52.485  1.00  0.00     0.212 A 
HETATM   11  N3  UNL     1      22.036   1.731  52.569  1.00  0.00    -0.325 N 
HETATM   12  C13 UNL     1      23.321   2.277  52.468  1.00  0.00     0.157 A 
HETATM   13  N4  UNL     1      23.699   3.472  52.482  1.00  0.00    -0.240 NA
HETATM   14  C17 UNL     1      26.092  -0.361  52.102  1.00  0.00     0.161 C 
HETATM   15  N7  UNL     1      27.353  -0.589  52.695  1.00  0.00    -0.384 N 
HETATM   16  H23 UNL     1      27.669  -1.568  52.526  1.00  0.00     0.160 HD
ENDROOT
BRANCH   1  17
HETATM   17  C2  UNL     1      29.181  -0.423  54.310  1.00  0.00     0.020 C 
HETATM   18  C1  UNL     1      29.973  -1.363  53.834  1.00  0.00     0.013 C 
ENDBRANCH   1  17
BRANCH  11  19
HETATM   19  C11 UNL     1      20.709   2.265  52.736  1.00  0.00     0.127 C 
HETATM   20  C12 UNL     1      19.756   1.243  52.097  1.00  0.00     0.027 C 
ENDBRANCH  11  19
BRANCH  13  21
HETATM   21  C14 UNL     1      22.992   4.693  52.613  1.00  0.00     0.420 C 
BRANCH  21  22
HETATM   22  N5  UNL     1      23.847   5.816  52.331  1.00  0.00     0.104 N 
HETATM   23  H14 UNL     1      23.853   6.567  53.019  1.00  0.00     0.318 HD
BRANCH  22  24
HETATM   24  C15 UNL     1      23.709   6.278  50.977  1.00  0.00     0.301 C 
BRANCH  24  25
HETATM   25  C16 UNL     1      24.507   7.563  50.717  1.00  0.00     0.296 C 
BRANCH  25  26
HETATM   26  N6  UNL     1      25.930   7.353  50.832  1.00  0.00     0.080 N 
HETATM   27  H19 UNL     1      26.254   6.543  50.278  1.00  0.00     0.312 HD
HETATM   28  H20 UNL     1      26.456   8.186  50.486  1.00  0.00     0.312 HD
ENDBRANCH  25  26
ENDBRANCH  24  25
ENDBRANCH  22  24
ENDBRANCH  21  22
ENDBRANCH  13  21
TORSDOF 7
ENDMDL
MODEL 3
REMARK VINA RESULT:      -7.1      2.064      7.268
REMARK  7 active torsions:
REMARK  status: ('A' for Active; 'I' for Inactive)
REMARK    1  A    between atoms: C2_2  and  C3_3 
REMARK    2  A    between atoms: N3_13  and  C11_14 
REMARK    3  A    between atoms: N4_17  and  C14_18 
REMARK    4  A    between atoms: C14_18  and  N5_19 
REMARK    5  A    between atoms: N5_19  and  C15_20 
REMARK    6  A    between atoms: C15_20  and  C16_21 
REMARK    7  A    between atoms: C16_21  and  N6_22 
ROOT
HETATM    1  C3  UNL     1      27.100   0.437  53.565  1.00  0.00     0.048 C 
HETATM    2  C4  UNL     1      26.391  -0.639  53.286  1.00  0.00     0.070 C 
HETATM    3  C5  UNL     1      27.117  -1.816  52.916  1.00  0.00     0.102 C 
HETATM    4  N1  UNL     1      27.689  -2.767  52.633  1.00  0.00    -0.191 NA
HETATM    5  C6  UNL     1      24.912  -0.688  53.327  1.00  0.00     0.026 C 
HETATM    6  C7  UNL     1      24.065   0.349  53.269  1.00  0.00     0.013 C 
HETATM    7  C8  UNL     1      24.369   1.765  53.151  1.00  0.00    -0.008 C 
HETATM    8  C9  UNL     1      23.554   2.475  52.384  1.00  0.00     0.111 A 
HETATM    9  N2  UNL     1      23.770   3.891  52.202  1.00  0.00    -0.239 NA
HETATM   10  C10 UNL     1      22.889   4.394  51.414  1.00  0.00     0.212 A 
HETATM   11  N3  UNL     1      21.992   3.377  50.985  1.00  0.00    -0.325 N 
HETATM   12  C13 UNL     1      22.378   2.167  51.573  1.00  0.00     0.157 A 
HETATM   13  N4  UNL     1      21.874   1.024  51.484  1.00  0.00    -0.240 NA
HETATM   14  C17 UNL     1      25.498   2.463  53.798  1.00  0.00     0.161 C 
HETATM   15  N7  UNL     1      26.699   1.736  53.954  1.00  0.00    -0.384 N 
HETATM   16  H23 UNL     1      27.410   2.303  54.464  1.00  0.00     0.160 HD
ENDROOT
BRANCH   1  17
HETATM   17  C2  UNL     1      28.511   0.180  53.434  1.00  0.00     0.020 C 
HETATM   18  C1  UNL     1      29.385   0.961  54.036  1.00  0.00     0.013 C 
ENDBRANCH   1  17
BRANCH  11  19
HETATM   19  C11 UNL     1      20.945   3.788  50.085  1.00  0.00     0.127 C 
HETATM   20  C12 UNL     1      19.781   4.258  50.973  1.00  0.00     0.027 C 
ENDBRANCH  11  19
BRANCH  13  21
HETATM   21  C14 UNL     1      20.757   0.529  50.766  1.00  0.00     0.420 C 
BRANCH  21  22
HETATM   22  N5  UNL     1      19.537   0.737  51.502  1.00  0.00     0.104 N 
HETATM   23  H14 UNL     1      19.301   1.702  51.727  1.00  0.00     0.318 HD
BRANCH  22  24
HETATM   24  C15 UNL     1      19.416  -0.161  52.617  1.00  0.00     0.301 C 
BRANCH  24  25
HETATM   25  C16 UNL     1      18.028  -0.812  52.690  1.00  0.00     0.296 C 
BRANCH  25  26
HETATM   26  N6  UNL     1      17.839  -1.556  53.912  1.00  0.00     0.080 N 
HETATM   27  H19 UNL     1      17.543  -2.530  53.737  1.00  0.00     0.312 HD
HETATM   28  H20 UNL     1      18.728  -1.603  54.458  1.00  0.00     0.312 HD
ENDBRANCH  25  26
ENDBRANCH  24  25
ENDBRANCH  22  24
ENDBRANCH  21  22
ENDBRANCH  13  21
TORSDOF 7
ENDMDL
MODEL 4
REMARK VINA RESULT:      -7.0      3.831      6.898
REMARK  7 active torsions:
REMARK  status: ('A' for Active; 'I' for Inactive)
REMARK    1  A    between atoms: C2_2  and  C3_3 
REMARK    2  A    between atoms: N3_13  and  C11_14 
REMARK    3  A    between atoms: N4_17  and  C14_18 
REMARK    4  A    between atoms: C14_18  and  N5_19 
REMARK    5  A    between atoms: N5_19  and  C15_20 
REMARK    6  A    between atoms: C15_20  and  C16_21 
REMARK    7  A    between atoms: C16_21  and  N6_22 
ROOT
HETATM    1  C3  UNL     1      25.968   0.924  53.522  1.00  0.00     0.048 C 
HETATM    2  C4  UNL     1      26.975   1.288  52.752  1.00  0.00     0.070 C 
HETATM    3  C5  UNL     1      28.294   1.064  53.261  1.00  0.00     0.102 C 
HETATM    4  N1  UNL     1      29.353   0.875  53.653  1.00  0.00    -0.191 NA
HETATM    5  C6  UNL     1      26.814   1.911  51.418  1.00  0.00     0.026 C 
HETATM    6  C7  UNL     1      25.728   2.538  50.943  1.00  0.00     0.013 C 
HETATM    7  C8  UNL     1      24.451   2.767  51.597  1.00  0.00    -0.008 C 
HETATM    8  C9  UNL     1      23.875   3.936  51.359  1.00  0.00     0.111 A 
HETATM    9  N2  UNL     1      22.604   4.261  51.962  1.00  0.00    -0.239 NA
HETATM   10  C10 UNL     1      22.221   5.440  51.625  1.00  0.00     0.212 A 
HETATM   11  N3  UNL     1      23.188   6.031  50.765  1.00  0.00    -0.325 N 
HETATM   12  C13 UNL     1      24.233   5.118  50.578  1.00  0.00     0.157 A 
HETATM   13  N4  UNL     1      25.279   5.210  49.895  1.00  0.00    -0.240 NA
HETATM   14  C17 UNL     1      23.761   1.822  52.498  1.00  0.00     0.161 C 
HETATM   15  N7  UNL     1      24.571   1.008  53.320  1.00  0.00    -0.384 N 
HETATM   16  H23 UNL     1      23.987   0.348  53.876  1.00  0.00     0.160 HD
ENDROOT
BRANCH   1  17
HETATM   17  C2  UNL     1      26.437   0.354  54.757  1.00  0.00     0.020 C 
HETATM   18  C1  UNL     1      25.694  -0.520  55.407  1.00  0.00     0.013 C 
ENDBRANCH   1  17
BRANCH  11  19
HETATM   19  C11 UNL     1      22.902   7.365  50.304  1.00  0.00     0.127 C 
HETATM   20  C12 UNL     1      21.430   7.631  50.658  1.00  0.00     0.027 C 
ENDBRANCH  11  19
BRANCH  13  21
HETATM   21  C14 UNL     1      25.798   6.249  49.083  1.00  0.00     0.420 C 
BRANCH  21  22
HETATM   22  N5  UNL     1      26.726   7.066  49.822  1.00  0.00     0.104 N 
HETATM   23  H14 UNL     1      26.348   7.578  50.617  1.00  0.00     0.318 HD
BRANCH  22  24
HETATM   24  C15 UNL     1      27.550   7.867  48.960  1.00  0.00     0.301 C 
BRANCH  24  25
HETATM   25  C16 UNL     1      27.824   9.258  49.547  1.00  0.00     0.296 C 
BRANCH  25  26
HETATM   26  N6  UNL     1      27.608   9.300  50.973  1.00  0.00     0.080 N 
HETATM   27  H19 UNL     1      26.607   9.235  51.221  1.00  0.00     0.312 HD
HETATM   28  H20 UNL     1      28.089   8.501  51.443  1.00  0.00     0.312 HD
ENDBRANCH  25  26
ENDBRANCH  24  25
ENDBRANCH  22  24
ENDBRANCH  21  22
ENDBRANCH  13  21
TORSDOF 7
ENDMDL
MODEL 5
REMARK VINA RESULT:      -6.9      2.713      5.788
REMARK  7 active torsions:
REMARK  status: ('A' for Active; 'I' for Inactive)
REMARK    1  A    between atoms: C2_2  and  C3_3 
REMARK    2  A    between atoms: N3_13  and  C11_14 
REMARK    3  A    between atoms: N4_17  and  C14_18 
REMARK    4  A    between atoms: C14_18  and  N5_19 
REMARK    5  A    between atoms: N5_19  and  C15_20 
REMARK    6  A    between atoms: C15_20  and  C16_21 
REMARK    7  A    between atoms: C16_21  and  N6_22 
ROOT
HETATM    1  C3  UNL     1      23.296  -0.184  53.309  1.00  0.00     0.048 C 
HETATM    2  C4  UNL     1      24.556   0.196  53.237  1.00  0.00     0.070 C 
HETATM    3  C5  UNL     1      25.399  -0.141  54.344  1.00  0.00     0.102 C 
HETATM    4  N1  UNL     1      26.085  -0.419  55.218  1.00  0.00    -0.191 NA
HETATM    5  C6  UNL     1      25.130   0.946  52.097  1.00  0.00     0.026 C 
HETATM    6  C7  UNL     1      24.464   1.668  51.185  1.00  0.00     0.013 C 
HETATM    7  C8  UNL     1      23.034   1.902  51.078  1.00  0.00    -0.008 C 
HETATM    8  C9  UNL     1      22.668   3.115  50.694  1.00  0.00     0.111 A 
HETATM    9  N2  UNL     1      21.270   3.449  50.557  1.00  0.00    -0.239 NA
HETATM   10  C10 UNL     1      21.121   4.672  50.193  1.00  0.00     0.212 A 
HETATM   11  N3  UNL     1      22.394   5.289  50.047  1.00  0.00    -0.325 N 
HETATM   12  C13 UNL     1      23.382   4.344  50.351  1.00  0.00     0.157 A 
HETATM   13  N4  UNL     1      24.631   4.445  50.346  1.00  0.00    -0.240 NA
HETATM   14  C17 UNL     1      21.974   0.915  51.367  1.00  0.00     0.161 C 
HETATM   15  N7  UNL     1      22.223  -0.011  52.404  1.00  0.00    -0.384 N 
HETATM   16  H23 UNL     1      21.436  -0.689  52.490  1.00  0.00     0.160 HD
ENDROOT
BRANCH   1  17
HETATM   17  C2  UNL     1      23.033  -0.889  54.537  1.00  0.00     0.020 C 
HETATM   18  C1  UNL     1      21.792  -1.130  54.909  1.00  0.00     0.013 C 
ENDBRANCH   1  17
BRANCH  11  19
HETATM   19  C11 UNL     1      22.391   6.672  49.648  1.00  0.00     0.127 C 
HETATM   20  C12 UNL     1      21.554   7.417  50.699  1.00  0.00     0.027 C 
ENDBRANCH  11  19
BRANCH  13  21
HETATM   21  C14 UNL     1      25.497   5.526  50.049  1.00  0.00     0.420 C 
BRANCH  21  22
HETATM   22  N5  UNL     1      26.780   5.050  49.601  1.00  0.00     0.104 N 
HETATM   23  H14 UNL     1      27.454   4.810  50.326  1.00  0.00     0.318 HD
BRANCH  22  24
HETATM   24  C15 UNL     1      27.328   5.867  48.554  1.00  0.00     0.301 C 
BRANCH  24  25
HETATM   25  C16 UNL     1      28.788   5.511  48.242  1.00  0.00     0.296 C 
BRANCH  25  26
HETATM   26  N6  UNL     1      29.718   6.321  48.991  1.00  0.00     0.080 N 
HETATM   27  H19 UNL     1      30.469   6.708  48.396  1.00  0.00     0.312 HD
HETATM   28  H20 UNL     1      29.230   7.133  49.430  1.00  0.00     0.312 HD
ENDBRANCH  25  26
ENDBRANCH  24  25
ENDBRANCH  22  24
ENDBRANCH  21  22
ENDBRANCH  13  21
TORSDOF 7
ENDMDL
MODEL 6
REMARK VINA RESULT:      -6.8      3.665      7.343
REMARK  7 active torsions:
REMARK  status: ('A' for Active; 'I' for Inactive)
REMARK    1  A    between atoms: C2_2  and  C3_3 
REMARK    2  A    between atoms: N3_13  and  C11_14 
REMARK    3  A    between atoms: N4_17  and  C14_18 
REMARK    4  A    between atoms: C14_18  and  N5_19 
REMARK    5  A    between atoms: N5_19  and  C15_20 
REMARK    6  A    between atoms: C15_20  and  C16_21 
REMARK    7  A    between atoms: C16_21  and  N6_22 
ROOT
HETATM    1  C3  UNL     1      24.347   1.759  51.883  1.00  0.00     0.048 C 
HETATM    2  C4  UNL     1      25.626   2.058  51.996  1.00  0.00     0.070 C 
HETATM    3  C5  UNL     1      26.249   1.773  53.253  1.00  0.00     0.102 C 
HETATM    4  N1  UNL     1      26.760   1.536  54.250  1.00  0.00    -0.191 NA
HETATM    5  C6  UNL     1      26.432   2.669  50.915  1.00  0.00     0.026 C 
HETATM    6  C7  UNL     1      25.979   3.345  49.849  1.00  0.00     0.013 C 
HETATM    7  C8  UNL     1      24.606   3.649  49.483  1.00  0.00    -0.008 C 
HETATM    8  C9  UNL     1      24.396   4.843  48.948  1.00  0.00     0.111 A 
HETATM    9  N2  UNL     1      23.066   5.242  48.550  1.00  0.00    -0.239 NA
HETATM   10  C10 UNL     1      23.067   6.435  48.071  1.00  0.00     0.212 A 
HETATM   11  N3  UNL     1      24.388   6.962  48.097  1.00  0.00    -0.325 N 
HETATM   12  C13 UNL     1      25.242   5.993  48.637  1.00  0.00     0.157 A 
HETATM   13  N4  UNL     1      26.479   6.021  48.836  1.00  0.00    -0.240 NA
HETATM   14  C17 UNL     1      23.445   2.754  49.664  1.00  0.00     0.161 C 
HETATM   15  N7  UNL     1      23.453   1.912  50.797  1.00  0.00    -0.384 N 
HETATM   16  H23 UNL     1      22.616   1.291  50.801  1.00  0.00     0.160 HD
ENDROOT
BRANCH   1  17
HETATM   17  C2  UNL     1      23.836   1.183  53.099  1.00  0.00     0.020 C 
HETATM   18  C1  UNL     1      22.731   0.465  53.078  1.00  0.00     0.013 C 
ENDBRANCH   1  17
BRANCH  11  19
HETATM   19  C11 UNL     1      24.550   8.302  47.596  1.00  0.00     0.127 C 
HETATM   20  C12 UNL     1      24.798   8.164  46.085  1.00  0.00     0.027 C 
ENDBRANCH  11  19
BRANCH  13  21
HETATM   21  C14 UNL     1      27.457   7.020  48.608  1.00  0.00     0.420 C 
BRANCH  21  22
HETATM   22  N5  UNL     1      27.540   7.925  49.725  1.00  0.00     0.104 N 
HETATM   23  H14 UNL     1      26.699   8.030  50.288  1.00  0.00     0.318 HD
BRANCH  22  24
HETATM   24  C15 UNL     1      28.153   9.175  49.368  1.00  0.00     0.301 C 
BRANCH  24  25
HETATM   25  C16 UNL     1      29.679   9.061  49.251  1.00  0.00     0.296 C 
BRANCH  25  26
HETATM   26  N6  UNL     1      30.362  10.000  50.108  1.00  0.00     0.080 N 
HETATM   27  H19 UNL     1      31.027  10.595  49.587  1.00  0.00     0.312 HD
HETATM   28  H20 UNL     1      29.680  10.641  50.571  1.00  0.00     0.312 HD
ENDBRANCH  25  26
ENDBRANCH  24  25
ENDBRANCH  22  24
ENDBRANCH  21  22
ENDBRANCH  13  21
TORSDOF 7
ENDMDL
MODEL 7
REMARK VINA RESULT:      -6.7      2.527      6.371
REMARK  7 active torsions:
REMARK  status: ('A' for Active; 'I' for Inactive)
REMARK    1  A    between atoms: C2_2  and  C3_3 
REMARK    2  A    between atoms: N3_13  and  C11_14 
REMARK    3  A    between atoms: N4_17  and  C14_18 
REMARK    4  A    between atoms: C14_18  and  N5_19 
REMARK    5  A    between atoms: N5_19  and  C15_20 
REMARK    6  A    between atoms: C15_20  and  C16_21 
REMARK    7  A    between atoms: C16_21  and  N6_22 
ROOT
HETATM    1  C3  UNL     1      24.103   5.250  50.071  1.00  0.00     0.048 C 
HETATM    2  C4  UNL     1      23.070   4.503  50.409  1.00  0.00     0.070 C 
HETATM    3  C5  UNL     1      21.818   5.173  50.592  1.00  0.00     0.102 C 
HETATM    4  N1  UNL     1      20.810   5.698  50.726  1.00  0.00    -0.191 NA
HETATM    5  C6  UNL     1      23.139   3.038  50.612  1.00  0.00     0.026 C 
HETATM    6  C7  UNL     1      24.233   2.306  50.864  1.00  0.00     0.013 C 
HETATM    7  C8  UNL     1      25.611   2.748  51.002  1.00  0.00    -0.008 C 
HETATM    8  C9  UNL     1      26.330   2.134  51.929  1.00  0.00     0.111 A 
HETATM    9  N2  UNL     1      27.711   2.499  52.146  1.00  0.00    -0.239 NA
HETATM   10  C10 UNL     1      28.229   1.805  53.095  1.00  0.00     0.212 A 
HETATM   11  N3  UNL     1      27.259   0.903  53.614  1.00  0.00    -0.325 N 
HETATM   12  C13 UNL     1      26.063   1.082  52.908  1.00  0.00     0.157 A 
HETATM   13  N4  UNL     1      24.959   0.500  53.021  1.00  0.00    -0.240 NA
HETATM   14  C17 UNL     1      26.259   3.815  50.213  1.00  0.00     0.161 C 
HETATM   15  N7  UNL     1      25.452   4.906  49.822  1.00  0.00    -0.384 N 
HETATM   16  H23 UNL     1      25.994   5.572  49.231  1.00  0.00     0.160 HD
ENDROOT
BRANCH   1  17
HETATM   17  C2  UNL     1      23.729   6.634  49.952  1.00  0.00     0.020 C 
HETATM   18  C1  UNL     1      24.552   7.580  50.358  1.00  0.00     0.013 C 
ENDBRANCH   1  17
BRANCH  11  19
HETATM   19  C11 UNL     1      27.691   0.055  54.695  1.00  0.00     0.127 C 
HETATM   20  C12 UNL     1      29.123  -0.380  54.349  1.00  0.00     0.027 C 
ENDBRANCH  11  19
BRANCH  13  21
HETATM   21  C14 UNL     1      24.508  -0.525  53.889  1.00  0.00     0.420 C 
BRANCH  21  22
HETATM   22  N5  UNL     1      23.153  -0.903  53.578  1.00  0.00     0.104 N 
HETATM   23  H14 UNL     1      23.025  -1.507  52.768  1.00  0.00     0.318 HD
BRANCH  22  24
HETATM   24  C15 UNL     1      22.255   0.218  53.609  1.00  0.00     0.301 C 
BRANCH  24  25
HETATM   25  C16 UNL     1      21.122   0.026  54.626  1.00  0.00     0.296 C 
BRANCH  25  26
HETATM   26  N6  UNL     1      20.382  -1.191  54.393  1.00  0.00     0.080 N 
HETATM   27  H19 UNL     1      21.000  -1.993  54.187  1.00  0.00     0.312 HD
HETATM   28  H20 UNL     1      19.821  -1.449  55.235  1.00  0.00     0.312 HD
ENDBRANCH  25  26
ENDBRANCH  24  25
ENDBRANCH  22  24
ENDBRANCH  21  22
ENDBRANCH  13  21
TORSDOF 7
ENDMDL
MODEL 8
REMARK VINA RESULT:      -6.5      8.862     13.646
REMARK  7 active torsions:
REMARK  status: ('A' for Active; 'I' for Inactive)
REMARK    1  A    between atoms: C2_2  and  C3_3 
REMARK    2  A    between atoms: N3_13  and  C11_14 
REMARK    3  A    between atoms: N4_17  and  C14_18 
REMARK    4  A    between atoms: C14_18  and  N5_19 
REMARK    5  A    between atoms: N5_19  and  C15_20 
REMARK    6  A    between atoms: C15_20  and  C16_21 
REMARK    7  A    between atoms: C16_21  and  N6_22 
ROOT
HETATM    1  C3  UNL     1      34.275   4.529  47.208  1.00  0.00     0.048 C 
HETATM    2  C4  UNL     1      33.091   4.115  47.612  1.00  0.00     0.070 C 
HETATM    3  C5  UNL     1      32.646   2.846  47.121  1.00  0.00     0.102 C 
HETATM    4  N1  UNL     1      32.288   1.825  46.746  1.00  0.00    -0.191 NA
HETATM    5  C6  UNL     1      32.212   4.883  48.523  1.00  0.00     0.026 C 
HETATM    6  C7  UNL     1      32.258   6.198  48.775  1.00  0.00     0.013 C 
HETATM    7  C8  UNL     1      33.164   7.197  48.232  1.00  0.00    -0.008 C 
HETATM    8  C9  UNL     1      32.636   8.383  47.971  1.00  0.00     0.111 A 
HETATM    9  N2  UNL     1      33.452   9.444  47.429  1.00  0.00    -0.239 NA
HETATM   10  C10 UNL     1      32.756  10.506  47.230  1.00  0.00     0.212 A 
HETATM   11  N3  UNL     1      31.407  10.274  47.615  1.00  0.00    -0.325 N 
HETATM   12  C13 UNL     1      31.297   8.960  48.083  1.00  0.00     0.157 A 
HETATM   13  N4  UNL     1      30.306   8.336  48.529  1.00  0.00    -0.240 NA
HETATM   14  C17 UNL     1      34.599   6.995  47.944  1.00  0.00     0.161 C 
HETATM   15  N7  UNL     1      34.991   5.713  47.501  1.00  0.00    -0.384 N 
HETATM   16  H23 UNL     1      36.025   5.668  47.375  1.00  0.00     0.160 HD
ENDROOT
BRANCH   1  17
HETATM   17  C2  UNL     1      34.890   3.572  46.327  1.00  0.00     0.020 C 
HETATM   18  C1  UNL     1      35.170   3.903  45.082  1.00  0.00     0.013 C 
ENDBRANCH   1  17
BRANCH  11  19
HETATM   19  C11 UNL     1      30.496  11.377  47.444  1.00  0.00     0.127 C 
HETATM   20  C12 UNL     1      30.721  12.305  48.648  1.00  0.00     0.027 C 
ENDBRANCH  11  19
BRANCH  13  21
HETATM   21  C14 UNL     1      28.952   8.709  48.715  1.00  0.00     0.420 C 
BRANCH  21  22
HETATM   22  N5  UNL     1      28.199   7.635  49.309  1.00  0.00     0.104 N 
HETATM   23  H14 UNL     1      28.709   6.775  49.502  1.00  0.00     0.318 HD
BRANCH  22  24
HETATM   24  C15 UNL     1      26.940   7.423  48.649  1.00  0.00     0.301 C 
BRANCH  24  25
HETATM   25  C16 UNL     1      25.864   6.894  49.606  1.00  0.00     0.296 C 
BRANCH  25  26
HETATM   26  N6  UNL     1      26.025   7.408  50.945  1.00  0.00     0.080 N 
HETATM   27  H19 UNL     1      25.246   8.027  51.224  1.00  0.00     0.312 HD
HETATM   28  H20 UNL     1      26.057   6.629  51.639  1.00  0.00     0.312 HD
ENDBRANCH  25  26
ENDBRANCH  24  25
ENDBRANCH  22  24
ENDBRANCH  21  22
ENDBRANCH  13  21
TORSDOF 7
ENDMDL
MODEL 9
REMARK VINA RESULT:      -6.5      2.233      6.778
REMARK  7 active torsions:
REMARK  status: ('A' for Active; 'I' for Inactive)
REMARK    1  A    between atoms: C2_2  and  C3_3 
REMARK    2  A    between atoms: N3_13  and  C11_14 
REMARK    3  A    between atoms: N4_17  and  C14_18 
REMARK    4  A    between atoms: C14_18  and  N5_19 
REMARK    5  A    between atoms: N5_19  and  C15_20 
REMARK    6  A    between atoms: C15_20  and  C16_21 
REMARK    7  A    between atoms: C16_21  and  N6_22 
ROOT
HETATM    1  C3  UNL     1      24.422   4.594  50.008  1.00  0.00     0.048 C 
HETATM    2  C4  UNL     1      25.585   4.096  50.377  1.00  0.00     0.070 C 
HETATM    3  C5  UNL     1      26.667   4.219  49.447  1.00  0.00     0.102 C 
HETATM    4  N1  UNL     1      27.542   4.325  48.717  1.00  0.00    -0.191 NA
HETATM    5  C6  UNL     1      25.823   3.423  51.674  1.00  0.00     0.026 C 
HETATM    6  C7  UNL     1      24.905   2.880  52.485  1.00  0.00     0.013 C 
HETATM    7  C8  UNL     1      23.465   2.808  52.309  1.00  0.00    -0.008 C 
HETATM    8  C9  UNL     1      22.882   1.689  52.712  1.00  0.00     0.111 A 
HETATM    9  N2  UNL     1      21.454   1.519  52.581  1.00  0.00    -0.239 NA
HETATM   10  C10 UNL     1      21.085   0.366  53.011  1.00  0.00     0.212 A 
HETATM   11  N3  UNL     1      22.218  -0.358  53.475  1.00  0.00    -0.325 N 
HETATM   12  C13 UNL     1      23.355   0.439  53.304  1.00  0.00     0.157 A 
HETATM   13  N4  UNL     1      24.556   0.212  53.581  1.00  0.00    -0.240 NA
HETATM   14  C17 UNL     1      22.614   3.861  51.717  1.00  0.00     0.161 C 
HETATM   15  N7  UNL     1      23.177   4.635  50.679  1.00  0.00    -0.384 N 
HETATM   16  H23 UNL     1      22.513   5.376  50.369  1.00  0.00     0.160 HD
ENDROOT
BRANCH   1  17
HETATM   17  C2  UNL     1      24.498   5.180  48.696  1.00  0.00     0.020 C 
HETATM   18  C1  UNL     1      23.506   5.921  48.242  1.00  0.00     0.013 C 
ENDBRANCH   1  17
BRANCH  11  19
HETATM   19  C11 UNL     1      21.964  -1.681  53.985  1.00  0.00     0.127 C 
HETATM   20  C12 UNL     1      20.449  -1.760  54.227  1.00  0.00     0.027 C 
ENDBRANCH  11  19
BRANCH  13  21
HETATM   21  C14 UNL     1      25.205  -0.913  54.148  1.00  0.00     0.420 C 
BRANCH  21  22
HETATM   22  N5  UNL     1      26.273  -0.505  55.023  1.00  0.00     0.104 N 
HETATM   23  H14 UNL     1      26.015  -0.289  55.985  1.00  0.00     0.318 HD
BRANCH  22  24
HETATM   24  C15 UNL     1      27.123   0.484  54.419  1.00  0.00     0.301 C 
BRANCH  24  25
HETATM   25  C16 UNL     1      28.400  -0.129  53.830  1.00  0.00     0.296 C 
BRANCH  25  26
HETATM   26  N6  UNL     1      29.448   0.849  53.664  1.00  0.00     0.080 N 
HETATM   27  H19 UNL     1      29.082   1.815  53.632  1.00  0.00     0.312 HD
HETATM   28  H20 UNL     1      30.122   0.807  54.459  1.00  0.00     0.312 HD
ENDBRANCH  25  26
ENDBRANCH  24  25
ENDBRANCH  22  24
ENDBRANCH  21  22
ENDBRANCH  13  21
TORSDOF 7
ENDMDL
