MODEL 1
REMARK VINA RESULT:      -8.6      0.000      0.000
REMARK  5 active torsions:
REMARK  status: ('A' for Active; 'I' for Inactive)
REMARK    1  A    between atoms: C2_2  and  N1_3 
REMARK    2  A    between atoms: C2_2  and  C15_19 
REMARK    3  A    between atoms: N1_3  and  C3_4 
REMARK    4  A    between atoms: C8_11  and  C9_12 
REMARK    5  A    between atoms: C12_15  and  O1_16 
ROOT
HETATM    1  C3  UNL     1      22.023   0.585  52.940  1.00  0.00     0.138 A 
HETATM    2  N2  UNL     1      21.273  -0.126  53.930  1.00  0.00    -0.224 NA
HETATM    3  C4  UNL     1      21.838  -0.950  54.865  1.00  0.00     0.236 A 
HETATM    4  N3  UNL     1      23.161  -1.157  54.929  1.00  0.00    -0.240 NA
HETATM    5  C5  UNL     1      24.029  -0.582  54.089  1.00  0.00     0.083 A 
HETATM    6  C6  UNL     1      23.168   0.101  53.371  1.00  0.00     0.040 A 
HETATM    7  C7  UNL     1      24.310   0.657  52.513  1.00  0.00     0.032 A 
HETATM    8  C8  UNL     1      25.116  -0.057  53.277  1.00  0.00     0.005 A 
ENDROOT
BRANCH   1   9
HETATM    9  N1  UNL     1      20.810   1.097  52.484  1.00  0.00    -0.366 N 
HETATM   10  H5  UNL     1      19.819   0.967  52.391  1.00  0.00     0.161 HD
BRANCH   9  11
HETATM   11  C2  UNL     1      21.171   2.394  51.906  1.00  0.00     0.112 C 
HETATM   12  C1  UNL     1      20.043   3.378  52.044  1.00  0.00     0.037 C 
BRANCH  11  13
HETATM   13  C15 UNL     1      21.632   2.255  50.506  1.00  0.00    -0.036 A 
HETATM   14  C16 UNL     1      22.716   3.055  50.081  1.00  0.00     0.009 A 
HETATM   15  C17 UNL     1      23.062   2.843  48.751  1.00  0.00     0.001 A 
HETATM   16  C18 UNL     1      22.550   2.012  47.807  1.00  0.00     0.000 A 
HETATM   17  C19 UNL     1      21.528   1.332  48.393  1.00  0.00     0.001 A 
HETATM   18  C20 UNL     1      20.979   1.339  49.646  1.00  0.00     0.009 A 
ENDBRANCH  11  13
ENDBRANCH   9  11
ENDBRANCH   1   9
BRANCH   8  19
HETATM   19  C9  UNL     1      26.526  -0.370  53.458  1.00  0.00    -0.023 A 
HETATM   20  C10 UNL     1      27.238   0.425  54.346  1.00  0.00     0.015 A 
HETATM   21  C11 UNL     1      28.611   0.240  54.605  1.00  0.00     0.037 A 
HETATM   22  C12 UNL     1      29.097  -0.791  53.880  1.00  0.00     0.065 A 
HETATM   23  C13 UNL     1      28.550  -1.662  52.982  1.00  0.00     0.037 A 
HETATM   24  C14 UNL     1      27.180  -1.403  52.786  1.00  0.00     0.015 A 
BRANCH  22  25
HETATM   25  O1  UNL     1      30.473  -1.037  54.081  1.00  0.00    -0.361 OA
HETATM   26  H10 UNL     1      31.006  -1.202  53.218  1.00  0.00     0.217 HD
ENDBRANCH  22  25
ENDBRANCH   8  19
TORSDOF 5
ENDMDL
MODEL 2
REMARK VINA RESULT:      -8.4      2.641      3.908
REMARK  5 active torsions:
REMARK  status: ('A' for Active; 'I' for Inactive)
REMARK    1  A    between atoms: C2_2  and  N1_3 
REMARK    2  A    between atoms: C2_2  and  C15_19 
REMARK    3  A    between atoms: N1_3  and  C3_4 
REMARK    4  A    between atoms: C8_11  and  C9_12 
REMARK    5  A    between atoms: C12_15  and  O1_16 
ROOT
HETATM    1  C3  UNL     1      24.329   3.694  51.546  1.00  0.00     0.138 A 
HETATM    2  N2  UNL     1      24.973   4.444  50.512  1.00  0.00    -0.224 NA
HETATM    3  C4  UNL     1      26.171   4.095  49.952  1.00  0.00     0.236 A 
HETATM    4  N3  UNL     1      26.847   3.001  50.336  1.00  0.00    -0.240 NA
HETATM    5  C5  UNL     1      26.408   2.173  51.290  1.00  0.00     0.083 A 
HETATM    6  C6  UNL     1      25.290   2.797  51.579  1.00  0.00     0.040 A 
HETATM    7  C7  UNL     1      24.962   1.738  52.638  1.00  0.00     0.032 A 
HETATM    8  C8  UNL     1      26.101   1.165  52.294  1.00  0.00     0.005 A 
ENDROOT
BRANCH   1   9
HETATM    9  N1  UNL     1      23.311   4.645  51.512  1.00  0.00    -0.366 N 
HETATM   10  H5  UNL     1      22.971   5.532  51.839  1.00  0.00     0.161 HD
BRANCH   9  11
HETATM   11  C2  UNL     1      22.335   4.082  50.575  1.00  0.00     0.112 C 
HETATM   12  C1  UNL     1      21.304   5.106  50.192  1.00  0.00     0.037 C 
BRANCH  11  13
HETATM   13  C15 UNL     1      21.729   2.840  51.105  1.00  0.00    -0.036 A 
HETATM   14  C16 UNL     1      21.896   1.649  50.362  1.00  0.00     0.009 A 
HETATM   15  C17 UNL     1      21.286   0.548  50.952  1.00  0.00     0.001 A 
HETATM   16  C18 UNL     1      20.571   0.419  52.099  1.00  0.00     0.000 A 
HETATM   17  C19 UNL     1      20.516   1.653  52.670  1.00  0.00     0.001 A 
HETATM   18  C20 UNL     1      21.006   2.882  52.322  1.00  0.00     0.009 A 
ENDBRANCH  11  13
ENDBRANCH   9  11
ENDBRANCH   1   9
BRANCH   8  19
HETATM   19  C9  UNL     1      26.935   0.016  52.613  1.00  0.00    -0.023 A 
HETATM   20  C10 UNL     1      26.458  -1.232  52.233  1.00  0.00     0.015 A 
HETATM   21  C11 UNL     1      27.157  -2.428  52.490  1.00  0.00     0.037 A 
HETATM   22  C12 UNL     1      28.314  -2.172  53.138  1.00  0.00     0.065 A 
HETATM   23  C13 UNL     1      28.926  -1.033  53.577  1.00  0.00     0.037 A 
HETATM   24  C14 UNL     1      28.158   0.109  53.277  1.00  0.00     0.015 A 
BRANCH  22  25
HETATM   25  O1  UNL     1      29.072  -3.325  53.439  1.00  0.00    -0.361 OA
HETATM   26  H10 UNL     1      29.005  -4.074  52.738  1.00  0.00     0.217 HD
ENDBRANCH  22  25
ENDBRANCH   8  19
TORSDOF 5
ENDMDL
MODEL 3
REMARK VINA RESULT:      -8.4      3.473      4.578
REMARK  5 active torsions:
REMARK  status: ('A' for Active; 'I' for Inactive)
REMARK    1  A    between atoms: C2_2  and  N1_3 
REMARK    2  A    between atoms: C2_2  and  C15_19 
REMARK    3  A    between atoms: N1_3  and  C3_4 
REMARK    4  A    between atoms: C8_11  and  C9_12 
REMARK    5  A    between atoms: C12_15  and  O1_16 
ROOT
HETATM    1  C3  UNL     1      24.877   3.922  51.395  1.00  0.00     0.138 A 
HETATM    2  N2  UNL     1      23.570   3.886  51.973  1.00  0.00    -0.224 NA
HETATM    3  C4  UNL     1      23.102   2.849  52.734  1.00  0.00     0.236 A 
HETATM    4  N3  UNL     1      23.848   1.767  53.002  1.00  0.00    -0.240 NA
HETATM    5  C5  UNL     1      25.097   1.614  52.549  1.00  0.00     0.083 A 
HETATM    6  C6  UNL     1      25.197   2.747  51.893  1.00  0.00     0.040 A 
HETATM    7  C7  UNL     1      26.628   2.389  51.474  1.00  0.00     0.032 A 
HETATM    8  C8  UNL     1      26.454   1.270  52.153  1.00  0.00     0.005 A 
ENDROOT
BRANCH   1   9
HETATM    9  N1  UNL     1      24.538   5.165  50.866  1.00  0.00    -0.366 N 
HETATM   10  H5  UNL     1      24.249   6.110  51.046  1.00  0.00     0.161 HD
BRANCH   9  11
HETATM   11  C2  UNL     1      24.692   4.987  49.420  1.00  0.00     0.112 C 
HETATM   12  C1  UNL     1      24.403   3.567  49.019  1.00  0.00     0.037 C 
BRANCH  11  13
HETATM   13  C15 UNL     1      26.021   5.445  48.956  1.00  0.00    -0.036 A 
HETATM   14  C16 UNL     1      26.166   6.805  48.598  1.00  0.00     0.009 A 
HETATM   15  C17 UNL     1      27.453   7.124  48.177  1.00  0.00     0.001 A 
HETATM   16  C18 UNL     1      28.575   6.369  48.055  1.00  0.00     0.000 A 
HETATM   17  C19 UNL     1      28.245   5.106  48.438  1.00  0.00     0.001 A 
HETATM   18  C20 UNL     1      27.091   4.521  48.882  1.00  0.00     0.009 A 
ENDBRANCH  11  13
ENDBRANCH   9  11
ENDBRANCH   1   9
BRANCH   8  19
HETATM   19  C9  UNL     1      27.151   0.045  52.518  1.00  0.00    -0.023 A 
HETATM   20  C10 UNL     1      26.548  -1.153  52.158  1.00  0.00     0.015 A 
HETATM   21  C11 UNL     1      27.108  -2.411  52.460  1.00  0.00     0.037 A 
HETATM   22  C12 UNL     1      28.272  -2.265  53.128  1.00  0.00     0.065 A 
HETATM   23  C13 UNL     1      28.996  -1.188  53.552  1.00  0.00     0.037 A 
HETATM   24  C14 UNL     1      28.363   0.023  53.208  1.00  0.00     0.015 A 
BRANCH  22  25
HETATM   25  O1  UNL     1      28.894  -3.485  53.473  1.00  0.00    -0.361 OA
HETATM   26  H10 UNL     1      29.749  -3.383  54.034  1.00  0.00     0.217 HD
ENDBRANCH  22  25
ENDBRANCH   8  19
TORSDOF 5
ENDMDL
MODEL 4
REMARK VINA RESULT:      -8.3      2.155      3.145
REMARK  5 active torsions:
REMARK  status: ('A' for Active; 'I' for Inactive)
REMARK    1  A    between atoms: C2_2  and  N1_3 
REMARK    2  A    between atoms: C2_2  and  C15_19 
REMARK    3  A    between atoms: N1_3  and  C3_4 
REMARK    4  A    between atoms: C8_11  and  C9_12 
REMARK    5  A    between atoms: C12_15  and  O1_16 
ROOT
HETATM    1  C3  UNL     1      21.881   0.558  53.125  1.00  0.00     0.138 A 
HETATM    2  N2  UNL     1      21.167  -0.236  54.076  1.00  0.00    -0.224 NA
HETATM    3  C4  UNL     1      21.770  -1.083  54.965  1.00  0.00     0.236 A 
HETATM    4  N3  UNL     1      23.102  -1.236  55.016  1.00  0.00    -0.240 NA
HETATM    5  C5  UNL     1      23.940  -0.580  54.206  1.00  0.00     0.083 A 
HETATM    6  C6  UNL     1      23.048   0.103  53.527  1.00  0.00     0.040 A 
HETATM    7  C7  UNL     1      24.162   0.753  52.698  1.00  0.00     0.032 A 
HETATM    8  C8  UNL     1      25.001   0.035  53.422  1.00  0.00     0.005 A 
ENDROOT
BRANCH   1   9
HETATM    9  N1  UNL     1      20.646   1.041  52.698  1.00  0.00    -0.366 N 
HETATM   10  H5  UNL     1      19.888   1.680  52.857  1.00  0.00     0.161 HD
BRANCH   9  11
HETATM   11  C2  UNL     1      20.367   0.270  51.484  1.00  0.00     0.112 C 
HETATM   12  C1  UNL     1      21.020   0.900  50.285  1.00  0.00     0.037 C 
BRANCH  11  13
HETATM   13  C15 UNL     1      18.913   0.067  51.293  1.00  0.00    -0.036 A 
HETATM   14  C16 UNL     1      18.313   0.612  50.135  1.00  0.00     0.009 A 
HETATM   15  C17 UNL     1      16.947   0.362  50.060  1.00  0.00     0.001 A 
HETATM   16  C18 UNL     1      16.105  -0.307  50.889  1.00  0.00     0.000 A 
HETATM   17  C19 UNL     1      16.853  -0.753  51.934  1.00  0.00     0.001 A 
HETATM   18  C20 UNL     1      18.177  -0.655  52.264  1.00  0.00     0.009 A 
ENDBRANCH  11  13
ENDBRANCH   9  11
ENDBRANCH   1   9
BRANCH   8  19
HETATM   19  C9  UNL     1      26.424  -0.226  53.583  1.00  0.00    -0.023 A 
HETATM   20  C10 UNL     1      26.960  -1.270  52.842  1.00  0.00     0.015 A 
HETATM   21  C11 UNL     1      28.319  -1.638  52.912  1.00  0.00     0.037 A 
HETATM   22  C12 UNL     1      28.982  -0.843  53.779  1.00  0.00     0.065 A 
HETATM   23  C13 UNL     1      28.621   0.208  54.572  1.00  0.00     0.037 A 
HETATM   24  C14 UNL     1      27.250   0.504  54.438  1.00  0.00     0.015 A 
BRANCH  22  25
HETATM   25  O1  UNL     1      30.354  -1.153  53.910  1.00  0.00    -0.361 OA
HETATM   26  H10 UNL     1      30.626  -1.496  54.840  1.00  0.00     0.217 HD
ENDBRANCH  22  25
ENDBRANCH   8  19
TORSDOF 5
ENDMDL
MODEL 5
REMARK VINA RESULT:      -8.0      3.942      7.879
REMARK  5 active torsions:
REMARK  status: ('A' for Active; 'I' for Inactive)
REMARK    1  A    between atoms: C2_2  and  N1_3 
REMARK    2  A    between atoms: C2_2  and  C15_19 
REMARK    3  A    between atoms: N1_3  and  C3_4 
REMARK    4  A    between atoms: C8_11  and  C9_12 
REMARK    5  A    between atoms: C12_15  and  O1_16 
ROOT
HETATM    1  C3  UNL     1      23.736   0.747  53.010  1.00  0.00     0.138 A 
HETATM    2  N2  UNL     1      24.060   1.462  51.814  1.00  0.00    -0.224 NA
HETATM    3  C4  UNL     1      23.170   1.689  50.800  1.00  0.00     0.236 A 
HETATM    4  N3  UNL     1      21.903   1.254  50.850  1.00  0.00    -0.240 NA
HETATM    5  C5  UNL     1      21.411   0.565  51.886  1.00  0.00     0.083 A 
HETATM    6  C6  UNL     1      22.495   0.541  52.625  1.00  0.00     0.040 A 
HETATM    7  C7  UNL     1      21.752  -0.253  53.706  1.00  0.00     0.032 A 
HETATM    8  C8  UNL     1      20.701  -0.188  52.909  1.00  0.00     0.005 A 
ENDROOT
BRANCH   1   9
HETATM    9  N1  UNL     1      25.050   0.965  53.419  1.00  0.00    -0.366 N 
HETATM   10  H5  UNL     1      25.781   1.631  53.597  1.00  0.00     0.161 HD
BRANCH   9  11
HETATM   11  C2  UNL     1      25.551  -0.378  53.724  1.00  0.00     0.112 C 
HETATM   12  C1  UNL     1      24.977  -0.885  55.017  1.00  0.00     0.037 C 
BRANCH  11  13
HETATM   13  C15 UNL     1      27.031  -0.421  53.708  1.00  0.00    -0.036 A 
HETATM   14  C16 UNL     1      27.656  -1.508  53.056  1.00  0.00     0.009 A 
HETATM   15  C17 UNL     1      29.045  -1.447  53.104  1.00  0.00     0.001 A 
HETATM   16  C18 UNL     1      29.890  -0.538  53.655  1.00  0.00     0.000 A 
HETATM   17  C19 UNL     1      29.115   0.422  54.230  1.00  0.00     0.001 A 
HETATM   18  C20 UNL     1      27.765   0.612  54.340  1.00  0.00     0.009 A 
ENDBRANCH  11  13
ENDBRANCH   9  11
ENDBRANCH   1   9
BRANCH   8  19
HETATM   19  C9  UNL     1      19.308  -0.602  52.833  1.00  0.00    -0.023 A 
HETATM   20  C10 UNL     1      18.947  -1.733  53.553  1.00  0.00     0.015 A 
HETATM   21  C11 UNL     1      17.636  -2.249  53.557  1.00  0.00     0.037 A 
HETATM   22  C12 UNL     1      16.826  -1.497  52.783  1.00  0.00     0.065 A 
HETATM   23  C13 UNL     1      17.008  -0.376  52.024  1.00  0.00     0.037 A 
HETATM   24  C14 UNL     1      18.344   0.068  52.079  1.00  0.00     0.015 A 
BRANCH  22  25
HETATM   25  O1  UNL     1      15.491  -1.955  52.731  1.00  0.00    -0.361 OA
HETATM   26  H10 UNL     1      15.246  -2.457  51.868  1.00  0.00     0.217 HD
ENDBRANCH  22  25
ENDBRANCH   8  19
TORSDOF 5
ENDMDL
MODEL 6
REMARK VINA RESULT:      -8.0      4.051      7.726
REMARK  5 active torsions:
REMARK  status: ('A' for Active; 'I' for Inactive)
REMARK    1  A    between atoms: C2_2  and  N1_3 
REMARK    2  A    between atoms: C2_2  and  C15_19 
REMARK    3  A    between atoms: N1_3  and  C3_4 
REMARK    4  A    between atoms: C8_11  and  C9_12 
REMARK    5  A    between atoms: C12_15  and  O1_16 
ROOT
HETATM    1  C3  UNL     1      23.501  -0.367  53.130  1.00  0.00     0.138 A 
HETATM    2  N2  UNL     1      23.763  -0.927  54.420  1.00  0.00    -0.224 NA
HETATM    3  C4  UNL     1      22.785  -1.337  55.284  1.00  0.00     0.236 A 
HETATM    4  N3  UNL     1      21.481  -1.245  54.983  1.00  0.00    -0.240 NA
HETATM    5  C5  UNL     1      21.036  -0.747  53.824  1.00  0.00     0.083 A 
HETATM    6  C6  UNL     1      22.199  -0.472  53.281  1.00  0.00     0.040 A 
HETATM    7  C7  UNL     1      21.497   0.061  52.026  1.00  0.00     0.032 A 
HETATM    8  C8  UNL     1      20.365  -0.242  52.636  1.00  0.00     0.005 A 
ENDROOT
BRANCH   1   9
HETATM    9  N1  UNL     1      24.881  -0.254  52.971  1.00  0.00    -0.366 N 
HETATM   10  H5  UNL     1      25.730  -0.674  52.639  1.00  0.00     0.161 HD
BRANCH   9  11
HETATM   11  C2  UNL     1      25.193   1.064  53.529  1.00  0.00     0.112 C 
HETATM   12  C1  UNL     1      24.680   2.161  52.639  1.00  0.00     0.037 C 
BRANCH  11  13
HETATM   13  C15 UNL     1      26.638   1.201  53.819  1.00  0.00    -0.036 A 
HETATM   14  C16 UNL     1      27.259   0.194  54.592  1.00  0.00     0.009 A 
HETATM   15  C17 UNL     1      28.614   0.424  54.803  1.00  0.00     0.001 A 
HETATM   16  C18 UNL     1      29.431   1.431  54.399  1.00  0.00     0.000 A 
HETATM   17  C19 UNL     1      28.666   2.294  53.677  1.00  0.00     0.001 A 
HETATM   18  C20 UNL     1      27.346   2.323  53.322  1.00  0.00     0.009 A 
ENDBRANCH  11  13
ENDBRANCH   9  11
ENDBRANCH   1   9
BRANCH   8  19
HETATM   19  C9  UNL     1      18.924  -0.199  52.439  1.00  0.00    -0.023 A 
HETATM   20  C10 UNL     1      18.418   0.882  51.729  1.00  0.00     0.015 A 
HETATM   21  C11 UNL     1      17.042   1.053  51.477  1.00  0.00     0.037 A 
HETATM   22  C12 UNL     1      16.330   0.040  52.016  1.00  0.00     0.065 A 
HETATM   23  C13 UNL     1      16.657  -1.079  52.726  1.00  0.00     0.037 A 
HETATM   24  C14 UNL     1      18.048  -1.168  52.930  1.00  0.00     0.015 A 
BRANCH  22  25
HETATM   25  O1  UNL     1      14.936   0.143  51.810  1.00  0.00    -0.361 OA
HETATM   26  H10 UNL     1      14.444  -0.758  51.770  1.00  0.00     0.217 HD
ENDBRANCH  22  25
ENDBRANCH   8  19
TORSDOF 5
ENDMDL
MODEL 7
REMARK VINA RESULT:      -8.0      4.537      7.032
REMARK  5 active torsions:
REMARK  status: ('A' for Active; 'I' for Inactive)
REMARK    1  A    between atoms: C2_2  and  N1_3 
REMARK    2  A    between atoms: C2_2  and  C15_19 
REMARK    3  A    between atoms: N1_3  and  C3_4 
REMARK    4  A    between atoms: C8_11  and  C9_12 
REMARK    5  A    between atoms: C12_15  and  O1_16 
ROOT
HETATM    1  C3  UNL     1      24.025   3.005  50.696  1.00  0.00     0.138 A 
HETATM    2  N2  UNL     1      23.186   3.829  51.511  1.00  0.00    -0.224 NA
HETATM    3  C4  UNL     1      23.327   5.185  51.623  1.00  0.00     0.236 A 
HETATM    4  N3  UNL     1      24.280   5.860  50.963  1.00  0.00    -0.240 NA
HETATM    5  C5  UNL     1      25.163   5.267  50.153  1.00  0.00     0.083 A 
HETATM    6  C6  UNL     1      24.740   4.032  50.289  1.00  0.00     0.040 A 
HETATM    7  C7  UNL     1      25.830   3.543  49.328  1.00  0.00     0.032 A 
HETATM    8  C8  UNL     1      26.200   4.808  49.241  1.00  0.00     0.005 A 
ENDROOT
BRANCH   1   9
HETATM    9  N1  UNL     1      23.268   1.918  51.128  1.00  0.00    -0.366 N 
HETATM   10  H5  UNL     1      22.494   1.304  50.951  1.00  0.00     0.161 HD
BRANCH   9  11
HETATM   11  C2  UNL     1      23.917   1.512  52.378  1.00  0.00     0.112 C 
HETATM   12  C1  UNL     1      25.257   0.887  52.110  1.00  0.00     0.037 C 
BRANCH  11  13
HETATM   13  C15 UNL     1      23.036   0.638  53.186  1.00  0.00    -0.036 A 
HETATM   14  C16 UNL     1      23.620  -0.472  53.837  1.00  0.00     0.009 A 
HETATM   15  C17 UNL     1      22.703  -1.222  54.564  1.00  0.00     0.001 A 
HETATM   16  C18 UNL     1      21.367  -1.075  54.757  1.00  0.00     0.000 A 
HETATM   17  C19 UNL     1      20.989   0.032  54.062  1.00  0.00     0.001 A 
HETATM   18  C20 UNL     1      21.655   0.934  53.278  1.00  0.00     0.009 A 
ENDBRANCH  11  13
ENDBRANCH   9  11
ENDBRANCH   1   9
BRANCH   8  19
HETATM   19  C9  UNL     1      27.182   5.660  48.588  1.00  0.00    -0.023 A 
HETATM   20  C10 UNL     1      28.482   5.178  48.513  1.00  0.00     0.015 A 
HETATM   21  C11 UNL     1      29.533   5.905  47.919  1.00  0.00     0.037 A 
HETATM   22  C12 UNL     1      29.088   7.093  47.456  1.00  0.00     0.065 A 
HETATM   23  C13 UNL     1      27.871   7.712  47.443  1.00  0.00     0.037 A 
HETATM   24  C14 UNL     1      26.884   6.915  48.056  1.00  0.00     0.015 A 
BRANCH  22  25
HETATM   25  O1  UNL     1      30.087   7.886  46.850  1.00  0.00    -0.361 OA
HETATM   26  H10 UNL     1      29.730   8.699  46.334  1.00  0.00     0.217 HD
ENDBRANCH  22  25
ENDBRANCH   8  19
TORSDOF 5
ENDMDL
MODEL 8
REMARK VINA RESULT:      -8.0      2.600      3.877
REMARK  5 active torsions:
REMARK  status: ('A' for Active; 'I' for Inactive)
REMARK    1  A    between atoms: C2_2  and  N1_3 
REMARK    2  A    between atoms: C2_2  and  C15_19 
REMARK    3  A    between atoms: N1_3  and  C3_4 
REMARK    4  A    between atoms: C8_11  and  C9_12 
REMARK    5  A    between atoms: C12_15  and  O1_16 
ROOT
HETATM    1  C3  UNL     1      21.659   1.695  52.537  1.00  0.00     0.138 A 
HETATM    2  N2  UNL     1      21.697   3.098  52.265  1.00  0.00    -0.224 NA
HETATM    3  C4  UNL     1      22.846   3.841  52.255  1.00  0.00     0.236 A 
HETATM    4  N3  UNL     1      24.048   3.300  52.502  1.00  0.00    -0.240 NA
HETATM    5  C5  UNL     1      24.219   2.002  52.779  1.00  0.00     0.083 A 
HETATM    6  C6  UNL     1      22.962   1.629  52.704  1.00  0.00     0.040 A 
HETATM    7  C7  UNL     1      23.361   0.187  53.036  1.00  0.00     0.032 A 
HETATM    8  C8  UNL     1      24.602   0.635  53.095  1.00  0.00     0.005 A 
ENDROOT
BRANCH   1   9
HETATM    9  N1  UNL     1      20.279   1.764  52.361  1.00  0.00    -0.366 N 
HETATM   10  H5  UNL     1      19.421   2.236  52.583  1.00  0.00     0.161 HD
BRANCH   9  11
HETATM   11  C2  UNL     1      19.987   0.666  51.436  1.00  0.00     0.112 C 
HETATM   12  C1  UNL     1      19.864   1.169  50.025  1.00  0.00     0.037 C 
BRANCH  11  13
HETATM   13  C15 UNL     1      18.798  -0.104  51.866  1.00  0.00    -0.036 A 
HETATM   14  C16 UNL     1      17.656  -0.083  51.033  1.00  0.00     0.009 A 
HETATM   15  C17 UNL     1      16.601  -0.838  51.535  1.00  0.00     0.001 A 
HETATM   16  C18 UNL     1      16.481  -1.581  52.665  1.00  0.00     0.000 A 
HETATM   17  C19 UNL     1      17.663  -1.481  53.331  1.00  0.00     0.001 A 
HETATM   18  C20 UNL     1      18.838  -0.825  53.084  1.00  0.00     0.009 A 
ENDBRANCH  11  13
ENDBRANCH   9  11
ENDBRANCH   1   9
BRANCH   8  19
HETATM   19  C9  UNL     1      25.961   0.180  53.345  1.00  0.00    -0.023 A 
HETATM   20  C10 UNL     1      26.584   0.657  54.491  1.00  0.00     0.015 A 
HETATM   21  C11 UNL     1      27.902   0.306  54.846  1.00  0.00     0.037 A 
HETATM   22  C12 UNL     1      28.435  -0.530  53.931  1.00  0.00     0.065 A 
HETATM   23  C13 UNL     1      27.975  -1.091  52.773  1.00  0.00     0.037 A 
HETATM   24  C14 UNL     1      26.654  -0.686  52.498  1.00  0.00     0.015 A 
BRANCH  22  25
HETATM   25  O1  UNL     1      29.762  -0.924  54.214  1.00  0.00    -0.361 OA
HETATM   26  H10 UNL     1      30.481  -0.390  53.710  1.00  0.00     0.217 HD
ENDBRANCH  22  25
ENDBRANCH   8  19
TORSDOF 5
ENDMDL
MODEL 9
REMARK VINA RESULT:      -7.9      4.608      6.994
REMARK  5 active torsions:
REMARK  status: ('A' for Active; 'I' for Inactive)
REMARK    1  A    between atoms: C2_2  and  N1_3 
REMARK    2  A    between atoms: C2_2  and  C15_19 
REMARK    3  A    between atoms: N1_3  and  C3_4 
REMARK    4  A    between atoms: C8_11  and  C9_12 
REMARK    5  A    between atoms: C12_15  and  O1_16 
ROOT
HETATM    1  C3  UNL     1      24.297   4.514  51.192  1.00  0.00     0.138 A 
HETATM    2  N2  UNL     1      23.591   5.744  51.001  1.00  0.00    -0.224 NA
HETATM    3  C4  UNL     1      22.244   5.885  51.189  1.00  0.00     0.236 A 
HETATM    4  N3  UNL     1      21.466   4.863  51.576  1.00  0.00    -0.240 NA
HETATM    5  C5  UNL     1      21.940   3.634  51.804  1.00  0.00     0.083 A 
HETATM    6  C6  UNL     1      23.204   3.869  51.536  1.00  0.00     0.040 A 
HETATM    7  C7  UNL     1      23.551   2.408  51.844  1.00  0.00     0.032 A 
HETATM    8  C8  UNL     1      22.265   2.246  52.098  1.00  0.00     0.005 A 
ENDROOT
BRANCH   1   9
HETATM    9  N1  UNL     1      25.455   5.197  50.827  1.00  0.00    -0.366 N 
HETATM   10  H5  UNL     1      26.153   5.874  51.081  1.00  0.00     0.161 HD
BRANCH   9  11
HETATM   11  C2  UNL     1      25.774   4.666  49.500  1.00  0.00     0.112 C 
HETATM   12  C1  UNL     1      26.282   3.254  49.593  1.00  0.00     0.037 C 
BRANCH  11  13
HETATM   13  C15 UNL     1      26.707   5.554  48.770  1.00  0.00    -0.036 A 
HETATM   14  C16 UNL     1      26.212   6.790  48.297  1.00  0.00     0.009 A 
HETATM   15  C17 UNL     1      27.171   7.542  47.627  1.00  0.00     0.001 A 
HETATM   16  C18 UNL     1      28.480   7.299  47.356  1.00  0.00     0.000 A 
HETATM   17  C19 UNL     1      28.772   6.079  47.882  1.00  0.00     0.001 A 
HETATM   18  C20 UNL     1      28.047   5.144  48.569  1.00  0.00     0.009 A 
ENDBRANCH  11  13
ENDBRANCH   9  11
ENDBRANCH   1   9
BRANCH   8  19
HETATM   19  C9  UNL     1      21.309   1.229  52.512  1.00  0.00    -0.023 A 
HETATM   20  C10 UNL     1      21.574   0.565  53.702  1.00  0.00     0.015 A 
HETATM   21  C11 UNL     1      20.739  -0.449  54.213  1.00  0.00     0.037 A 
HETATM   22  C12 UNL     1      19.688  -0.658  53.392  1.00  0.00     0.065 A 
HETATM   23  C13 UNL     1      19.280  -0.106  52.211  1.00  0.00     0.037 A 
HETATM   24  C14 UNL     1      20.171   0.894  51.778  1.00  0.00     0.015 A 
BRANCH  22  25
HETATM   25  O1  UNL     1      18.805  -1.668  53.833  1.00  0.00    -0.361 OA
HETATM   26  H10 UNL     1      17.906  -1.321  54.190  1.00  0.00     0.217 HD
ENDBRANCH  22  25
ENDBRANCH   8  19
TORSDOF 5
ENDMDL
