MODEL 1
REMARK VINA RESULT:      -9.3      0.000      0.000
REMARK  4 active torsions:
REMARK  status: ('A' for Active; 'I' for Inactive)
REMARK    1  A    between atoms: N1_2  and  C2_3 
REMARK    2  A    between atoms: N2_6  and  C5_7 
REMARK    3  A    between atoms: C13_19  and  C14_20 
REMARK    4  A    between atoms: C18_24  and  N6_25 
ROOT
HETATM    1  C2  UNL     1      22.597   2.464  51.992  1.00  0.00     0.033 A 
HETATM    2  C3  UNL     1      23.525   3.392  51.907  1.00  0.00     0.023 A 
HETATM    3  C4  UNL     1      24.884   3.082  52.343  1.00  0.00     0.161 A 
HETATM    4  N2  UNL     1      25.099   1.766  52.842  1.00  0.00    -0.315 N 
HETATM    5  C12 UNL     1      24.036   0.863  52.887  1.00  0.00     0.104 A 
HETATM    6  C13 UNL     1      22.779   1.127  52.488  1.00  0.00    -0.012 A 
ENDROOT
BRANCH   4   7
HETATM    7  C5  UNL     1      26.409   1.436  53.278  1.00  0.00     0.291 C 
HETATM    8  N3  UNL     1      26.883   0.283  52.976  1.00  0.00    -0.121 NA
HETATM    9  N4  UNL     1      28.130  -0.312  53.265  1.00  0.00    -0.233 N 
HETATM   10  C6  UNL     1      28.476  -1.599  53.092  1.00  0.00     0.033 A 
HETATM   11  C10 UNL     1      29.215   0.333  53.779  1.00  0.00     0.078 A 
HETATM   12  C7  UNL     1      27.579  -2.646  52.550  1.00  0.00     0.070 C 
HETATM   13  C8  UNL     1      29.770  -1.791  53.488  1.00  0.00     0.029 A 
HETATM   14  C9  UNL     1      30.248  -0.560  53.928  1.00  0.00     0.035 A 
HETATM   15  C11 UNL     1      29.359   1.758  54.149  1.00  0.00     0.178 C 
HETATM   16  N5  UNL     1      28.416   2.648  54.244  1.00  0.00    -0.135 NA
HETATM   17  O1  UNL     1      27.057   2.445  54.014  1.00  0.00    -0.173 OA
ENDBRANCH   4   7
BRANCH   6  18
HETATM   18  C14 UNL     1      21.688   0.122  52.561  1.00  0.00     0.024 C 
HETATM   19  C15 UNL     1      22.141  -1.217  53.036  1.00  0.00     0.009 C 
HETATM   20  C16 UNL     1      21.332  -1.898  54.052  1.00  0.00     0.003 C 
HETATM   21  C17 UNL     1      19.870  -1.599  54.106  1.00  0.00     0.026 C 
HETATM   22  C18 UNL     1      19.423  -0.303  53.538  1.00  0.00     0.091 C 
HETATM   23  C20 UNL     1      20.518   0.681  53.291  1.00  0.00     0.035 C 
BRANCH  22  24
HETATM   24  N6  UNL     1      18.530  -0.471  52.418  1.00  0.00    -0.348 N 
HETATM   25  C19 UNL     1      18.272   0.652  51.611  1.00  0.00     0.158 C 
HETATM   26 BR1  UNL     1      17.040  -1.504  52.761  1.00  0.00     0.044 Br
ENDBRANCH  22  24
ENDBRANCH   6  18
BRANCH   1  27
HETATM   27  N1  UNL     1      21.344   2.901  51.540  1.00  0.00    -0.394 N 
HETATM   28  C1  UNL     1      20.929   4.285  51.820  1.00  0.00     0.146 C 
HETATM   29  H4  UNL     1      20.605   2.390  51.005  1.00  0.00     0.159 HD
ENDBRANCH   1  27
TORSDOF 4
ENDMDL
MODEL 2
REMARK VINA RESULT:      -9.1      2.110      3.989
REMARK  4 active torsions:
REMARK  status: ('A' for Active; 'I' for Inactive)
REMARK    1  A    between atoms: N1_2  and  C2_3 
REMARK    2  A    between atoms: N2_6  and  C5_7 
REMARK    3  A    between atoms: C13_19  and  C14_20 
REMARK    4  A    between atoms: C18_24  and  N6_25 
ROOT
HETATM    1  C2  UNL     1      21.960   0.576  52.738  1.00  0.00     0.033 A 
HETATM    2  C3  UNL     1      22.474  -0.350  53.518  1.00  0.00     0.023 A 
HETATM    3  C4  UNL     1      23.900  -0.305  53.831  1.00  0.00     0.161 A 
HETATM    4  N2  UNL     1      24.638   0.763  53.246  1.00  0.00    -0.315 N 
HETATM    5  C12 UNL     1      23.985   1.689  52.432  1.00  0.00     0.104 A 
HETATM    6  C13 UNL     1      22.672   1.667  52.134  1.00  0.00    -0.012 A 
ENDROOT
BRANCH   4   7
HETATM    7  C5  UNL     1      26.028   0.832  53.529  1.00  0.00     0.291 C 
HETATM    8  N3  UNL     1      26.761  -0.184  53.252  1.00  0.00    -0.121 NA
HETATM    9  N4  UNL     1      28.146  -0.400  53.417  1.00  0.00    -0.233 N 
HETATM   10  C6  UNL     1      28.806  -1.564  53.295  1.00  0.00     0.033 A 
HETATM   11  C10 UNL     1      29.064   0.555  53.734  1.00  0.00     0.078 A 
HETATM   12  C7  UNL     1      28.174  -2.859  52.955  1.00  0.00     0.070 C 
HETATM   13  C8  UNL     1      30.139  -1.370  53.530  1.00  0.00     0.029 A 
HETATM   14  C9  UNL     1      30.310  -0.018  53.811  1.00  0.00     0.035 A 
HETATM   15  C11 UNL     1      28.856   1.999  53.977  1.00  0.00     0.178 C 
HETATM   16  N5  UNL     1      27.723   2.618  54.130  1.00  0.00    -0.135 NA
HETATM   17  O1  UNL     1      26.453   2.046  54.097  1.00  0.00    -0.173 OA
ENDBRANCH   4   7
BRANCH   6  18
HETATM   18  C14 UNL     1      22.034   2.682  51.258  1.00  0.00     0.024 C 
HETATM   19  C15 UNL     1      21.296   3.739  52.009  1.00  0.00     0.009 C 
HETATM   20  C16 UNL     1      21.495   5.135  51.609  1.00  0.00     0.003 C 
HETATM   21  C17 UNL     1      21.858   5.417  50.188  1.00  0.00     0.026 C 
HETATM   22  C18 UNL     1      22.502   4.320  49.424  1.00  0.00     0.091 C 
HETATM   23  C20 UNL     1      23.012   3.193  50.260  1.00  0.00     0.035 C 
BRANCH  22  24
HETATM   24  N6  UNL     1      21.709   3.893  48.297  1.00  0.00    -0.348 N 
HETATM   25  C19 UNL     1      20.322   4.128  48.344  1.00  0.00     0.158 C 
HETATM   26 BR1  UNL     1      22.166   2.243  47.608  1.00  0.00     0.044 Br
ENDBRANCH  22  24
ENDBRANCH   6  18
BRANCH   1  27
HETATM   27  N1  UNL     1      20.584   0.407  52.525  1.00  0.00    -0.394 N 
HETATM   28  C1  UNL     1      19.819  -0.445  53.450  1.00  0.00     0.146 C 
HETATM   29  H4  UNL     1      19.964   0.803  51.782  1.00  0.00     0.159 HD
ENDBRANCH   1  27
TORSDOF 4
ENDMDL
MODEL 3
REMARK VINA RESULT:      -9.1      2.796      5.023
REMARK  4 active torsions:
REMARK  status: ('A' for Active; 'I' for Inactive)
REMARK    1  A    between atoms: N1_2  and  C2_3 
REMARK    2  A    between atoms: N2_6  and  C5_7 
REMARK    3  A    between atoms: C13_19  and  C14_20 
REMARK    4  A    between atoms: C18_24  and  N6_25 
ROOT
HETATM    1  C2  UNL     1      22.472   2.738  51.973  1.00  0.00     0.033 A 
HETATM    2  C3  UNL     1      22.537   1.655  52.716  1.00  0.00     0.023 A 
HETATM    3  C4  UNL     1      23.841   1.190  53.182  1.00  0.00     0.161 A 
HETATM    4  N2  UNL     1      24.965   1.964  52.779  1.00  0.00    -0.315 N 
HETATM    5  C12 UNL     1      24.775   3.097  51.987  1.00  0.00     0.104 A 
HETATM    6  C13 UNL     1      23.584   3.544  51.550  1.00  0.00    -0.012 A 
ENDROOT
BRANCH   4   7
HETATM    7  C5  UNL     1      26.247   1.534  53.213  1.00  0.00     0.291 C 
HETATM    8  N3  UNL     1      26.647   0.363  52.878  1.00  0.00    -0.121 NA
HETATM    9  N4  UNL     1      27.850  -0.321  53.157  1.00  0.00    -0.233 N 
HETATM   10  C6  UNL     1      28.113  -1.622  52.945  1.00  0.00     0.033 A 
HETATM   11  C10 UNL     1      28.970   0.236  53.699  1.00  0.00     0.078 A 
HETATM   12  C7  UNL     1      27.155  -2.590  52.364  1.00  0.00     0.070 C 
HETATM   13  C8  UNL     1      29.388  -1.910  53.344  1.00  0.00     0.029 A 
HETATM   14  C9  UNL     1      29.941  -0.728  53.826  1.00  0.00     0.035 A 
HETATM   15  C11 UNL     1      29.203   1.635  54.115  1.00  0.00     0.178 C 
HETATM   16  N5  UNL     1      28.319   2.581  54.233  1.00  0.00    -0.135 NA
HETATM   17  O1  UNL     1      26.952   2.475  53.986  1.00  0.00    -0.173 OA
ENDBRANCH   4   7
BRANCH   6  18
HETATM   18  C14 UNL     1      23.445   4.759  50.707  1.00  0.00     0.024 C 
HETATM   19  C15 UNL     1      23.786   6.024  51.421  1.00  0.00     0.009 C 
HETATM   20  C16 UNL     1      24.642   6.994  50.733  1.00  0.00     0.003 C 
HETATM   21  C17 UNL     1      24.617   7.024  49.240  1.00  0.00     0.026 C 
HETATM   22  C18 UNL     1      24.180   5.788  48.546  1.00  0.00     0.091 C 
HETATM   23  C20 UNL     1      24.144   4.568  49.407  1.00  0.00     0.035 C 
BRANCH  22  24
HETATM   24  N6  UNL     1      22.980   5.986  47.771  1.00  0.00    -0.348 N 
HETATM   25  C19 UNL     1      22.132   7.049  48.133  1.00  0.00     0.158 C 
HETATM   26 BR1  UNL     1      22.085   4.436  47.318  1.00  0.00     0.044 Br
ENDBRANCH  22  24
ENDBRANCH   6  18
BRANCH   1  27
HETATM   27  N1  UNL     1      21.160   3.067  51.599  1.00  0.00    -0.394 N 
HETATM   28  C1  UNL     1      20.040   2.352  52.233  1.00  0.00     0.146 C 
HETATM   29  H4  UNL     1      20.813   3.771  50.910  1.00  0.00     0.159 HD
ENDBRANCH   1  27
TORSDOF 4
ENDMDL
MODEL 4
REMARK VINA RESULT:      -9.0      3.381      7.791
REMARK  4 active torsions:
REMARK  status: ('A' for Active; 'I' for Inactive)
REMARK    1  A    between atoms: N1_2  and  C2_3 
REMARK    2  A    between atoms: N2_6  and  C5_7 
REMARK    3  A    between atoms: C13_19  and  C14_20 
REMARK    4  A    between atoms: C18_24  and  N6_25 
ROOT
HETATM    1  C2  UNL     1      25.449   2.958  50.544  1.00  0.00     0.033 A 
HETATM    2  C3  UNL     1      24.568   3.460  49.706  1.00  0.00     0.023 A 
HETATM    3  C4  UNL     1      23.202   2.945  49.718  1.00  0.00     0.161 A 
HETATM    4  N2  UNL     1      22.927   1.912  50.656  1.00  0.00    -0.315 N 
HETATM    5  C12 UNL     1      23.943   1.455  51.498  1.00  0.00     0.104 A 
HETATM    6  C13 UNL     1      25.207   1.917  51.505  1.00  0.00    -0.012 A 
ENDROOT
BRANCH   4   7
HETATM    7  C5  UNL     1      21.607   1.388  50.689  1.00  0.00     0.291 C 
HETATM    8  N3  UNL     1      21.213   0.786  51.750  1.00  0.00    -0.121 NA
HETATM    9  N4  UNL     1      19.979   0.177  52.066  1.00  0.00    -0.233 N 
HETATM   10  C6  UNL     1      19.710  -0.614  53.119  1.00  0.00     0.033 A 
HETATM   11  C10 UNL     1      18.832   0.290  51.340  1.00  0.00     0.078 A 
HETATM   12  C7  UNL     1      20.692  -0.991  54.161  1.00  0.00     0.070 C 
HETATM   13  C8  UNL     1      18.402  -1.011  53.080  1.00  0.00     0.029 A 
HETATM   14  C9  UNL     1      17.836  -0.437  51.947  1.00  0.00     0.035 A 
HETATM   15  C11 UNL     1      18.593   1.046  50.092  1.00  0.00     0.178 C 
HETATM   16  N5  UNL     1      19.482   1.599  49.322  1.00  0.00    -0.135 NA
HETATM   17  O1  UNL     1      20.862   1.598  49.514  1.00  0.00    -0.173 OA
ENDBRANCH   4   7
BRANCH   6  18
HETATM   18  C14 UNL     1      26.246   1.389  52.425  1.00  0.00     0.024 C 
HETATM   19  C15 UNL     1      26.292   2.092  53.740  1.00  0.00     0.009 C 
HETATM   20  C16 UNL     1      26.380   1.276  54.955  1.00  0.00     0.003 C 
HETATM   21  C17 UNL     1      27.035  -0.063  54.859  1.00  0.00     0.026 C 
HETATM   22  C18 UNL     1      27.069  -0.705  53.522  1.00  0.00     0.091 C 
HETATM   23  C20 UNL     1      26.155  -0.093  52.512  1.00  0.00     0.035 C 
BRANCH  22  24
HETATM   24  N6  UNL     1      28.414  -0.905  53.040  1.00  0.00    -0.348 N 
HETATM   25  C19 UNL     1      28.902  -2.224  52.985  1.00  0.00     0.158 C 
HETATM   26 BR1  UNL     1      29.648   0.323  53.654  1.00  0.00     0.044 Br
ENDBRANCH  22  24
ENDBRANCH   6  18
BRANCH   1  27
HETATM   27  N1  UNL     1      26.716   3.545  50.421  1.00  0.00    -0.394 N 
HETATM   28  C1  UNL     1      27.037   4.298  49.198  1.00  0.00     0.146 C 
HETATM   29  H4  UNL     1      27.526   3.545  51.084  1.00  0.00     0.159 HD
ENDBRANCH   1  27
TORSDOF 4
ENDMDL
MODEL 5
REMARK VINA RESULT:      -8.8      3.420      5.734
REMARK  4 active torsions:
REMARK  status: ('A' for Active; 'I' for Inactive)
REMARK    1  A    between atoms: N1_2  and  C2_3 
REMARK    2  A    between atoms: N2_6  and  C5_7 
REMARK    3  A    between atoms: C13_19  and  C14_20 
REMARK    4  A    between atoms: C18_24  and  N6_25 
ROOT
HETATM    1  C2  UNL     1      25.523   0.483  52.377  1.00  0.00     0.033 A 
HETATM    2  C3  UNL     1      26.643   1.069  52.013  1.00  0.00     0.023 A 
HETATM    3  C4  UNL     1      26.581   2.360  51.333  1.00  0.00     0.161 A 
HETATM    4  N2  UNL     1      25.280   2.891  51.108  1.00  0.00    -0.315 N 
HETATM    5  C12 UNL     1      24.160   2.178  51.538  1.00  0.00     0.104 A 
HETATM    6  C13 UNL     1      24.194   0.990  52.169  1.00  0.00    -0.012 A 
ENDROOT
BRANCH   4   7
HETATM    7  C5  UNL     1      25.188   4.143  50.444  1.00  0.00     0.291 C 
HETATM    8  N3  UNL     1      26.161   4.513  49.696  1.00  0.00    -0.121 NA
HETATM    9  N4  UNL     1      26.345   5.682  48.926  1.00  0.00    -0.233 N 
HETATM   10  C6  UNL     1      27.479   6.093  48.332  1.00  0.00     0.033 A 
HETATM   11  C10 UNL     1      25.385   6.609  48.651  1.00  0.00     0.078 A 
HETATM   12  C7  UNL     1      28.768   5.367  48.386  1.00  0.00     0.070 C 
HETATM   13  C8  UNL     1      27.260   7.274  47.678  1.00  0.00     0.029 A 
HETATM   14  C9  UNL     1      25.925   7.608  47.878  1.00  0.00     0.035 A 
HETATM   15  C11 UNL     1      23.967   6.628  49.068  1.00  0.00     0.178 C 
HETATM   16  N5  UNL     1      23.393   5.864  49.949  1.00  0.00    -0.135 NA
HETATM   17  O1  UNL     1      23.999   4.854  50.693  1.00  0.00    -0.173 OA
ENDBRANCH   4   7
BRANCH   6  18
HETATM   18  C14 UNL     1      22.965   0.278  52.602  1.00  0.00     0.024 C 
HETATM   19  C15 UNL     1      23.176  -0.619  53.775  1.00  0.00     0.009 C 
HETATM   20  C16 UNL     1      22.198  -0.569  54.866  1.00  0.00     0.003 C 
HETATM   21  C17 UNL     1      20.796  -0.173  54.537  1.00  0.00     0.026 C 
HETATM   22  C18 UNL     1      20.591   0.637  53.311  1.00  0.00     0.091 C 
HETATM   23  C20 UNL     1      21.836   1.236  52.744  1.00  0.00     0.035 C 
BRANCH  22  24
HETATM   24  N6  UNL     1      19.776  -0.041  52.333  1.00  0.00    -0.348 N 
HETATM   25  C19 UNL     1      19.500   0.633  51.128  1.00  0.00     0.158 C 
HETATM   26 BR1  UNL     1      18.331  -0.956  53.027  1.00  0.00     0.044 Br
ENDBRANCH  22  24
ENDBRANCH   6  18
BRANCH   1  27
HETATM   27  N1  UNL     1      25.733  -0.746  53.019  1.00  0.00    -0.394 N 
HETATM   28  C1  UNL     1      26.932  -1.530  52.680  1.00  0.00     0.146 C 
HETATM   29  H4  UNL     1      25.156  -1.237  53.739  1.00  0.00     0.159 HD
ENDBRANCH   1  27
TORSDOF 4
ENDMDL
MODEL 6
REMARK VINA RESULT:      -8.7      2.785      7.862
REMARK  4 active torsions:
REMARK  status: ('A' for Active; 'I' for Inactive)
REMARK    1  A    between atoms: N1_2  and  C2_3 
REMARK    2  A    between atoms: N2_6  and  C5_7 
REMARK    3  A    between atoms: C13_19  and  C14_20 
REMARK    4  A    between atoms: C18_24  and  N6_25 
ROOT
HETATM    1  C2  UNL     1      25.406   2.690  51.141  1.00  0.00     0.033 A 
HETATM    2  C3  UNL     1      24.248   3.113  50.683  1.00  0.00     0.023 A 
HETATM    3  C4  UNL     1      23.022   2.473  51.148  1.00  0.00     0.161 A 
HETATM    4  N2  UNL     1      23.182   1.410  52.081  1.00  0.00    -0.315 N 
HETATM    5  C12 UNL     1      24.463   1.045  52.498  1.00  0.00     0.104 A 
HETATM    6  C13 UNL     1      25.605   1.624  52.084  1.00  0.00    -0.012 A 
ENDROOT
BRANCH   4   7
HETATM    7  C5  UNL     1      22.007   0.765  52.550  1.00  0.00     0.291 C 
HETATM    8  N3  UNL     1      20.989   0.704  51.772  1.00  0.00    -0.121 NA
HETATM    9  N4  UNL     1      19.711   0.136  51.960  1.00  0.00    -0.233 N 
HETATM   10  C6  UNL     1      18.629   0.293  51.178  1.00  0.00     0.033 A 
HETATM   11  C10 UNL     1      19.352  -0.683  52.988  1.00  0.00     0.078 A 
HETATM   12  C7  UNL     1      18.593   1.114  49.946  1.00  0.00     0.070 C 
HETATM   13  C8  UNL     1      17.578  -0.415  51.691  1.00  0.00     0.029 A 
HETATM   14  C9  UNL     1      18.034  -1.041  52.846  1.00  0.00     0.035 A 
HETATM   15  C11 UNL     1      20.172  -1.166  54.120  1.00  0.00     0.178 C 
HETATM   16  N5  UNL     1      21.352  -0.750  54.474  1.00  0.00    -0.135 NA
HETATM   17  O1  UNL     1      22.100   0.249  53.855  1.00  0.00    -0.173 OA
ENDBRANCH   4   7
BRANCH   6  18
HETATM   18  C14 UNL     1      26.942   1.189  52.564  1.00  0.00     0.024 C 
HETATM   19  C15 UNL     1      27.916   2.309  52.712  1.00  0.00     0.009 C 
HETATM   20  C16 UNL     1      28.722   2.364  53.935  1.00  0.00     0.003 C 
HETATM   21  C17 UNL     1      29.025   1.081  54.639  1.00  0.00     0.026 C 
HETATM   22  C18 UNL     1      28.100  -0.055  54.402  1.00  0.00     0.091 C 
HETATM   23  C20 UNL     1      26.803   0.319  53.763  1.00  0.00     0.035 C 
BRANCH  22  24
HETATM   24  N6  UNL     1      28.753  -1.176  53.774  1.00  0.00    -0.348 N 
HETATM   25  C19 UNL     1      30.018  -0.959  53.196  1.00  0.00     0.158 C 
HETATM   26 BR1  UNL     1      27.646  -2.254  52.765  1.00  0.00     0.044 Br
ENDBRANCH  22  24
ENDBRANCH   6  18
BRANCH   1  27
HETATM   27  N1  UNL     1      26.496   3.395  50.610  1.00  0.00    -0.394 N 
HETATM   28  C1  UNL     1      26.262   4.336  49.502  1.00  0.00     0.146 C 
HETATM   29  H4  UNL     1      27.507   3.372  50.875  1.00  0.00     0.159 HD
ENDBRANCH   1  27
TORSDOF 4
ENDMDL
MODEL 7
REMARK VINA RESULT:      -8.6      2.485      4.708
REMARK  4 active torsions:
REMARK  status: ('A' for Active; 'I' for Inactive)
REMARK    1  A    between atoms: N1_2  and  C2_3 
REMARK    2  A    between atoms: N2_6  and  C5_7 
REMARK    3  A    between atoms: C13_19  and  C14_20 
REMARK    4  A    between atoms: C18_24  and  N6_25 
ROOT
HETATM    1  C2  UNL     1      22.012   1.149  52.692  1.00  0.00     0.033 A 
HETATM    2  C3  UNL     1      22.201   0.053  53.394  1.00  0.00     0.023 A 
HETATM    3  C4  UNL     1      23.543  -0.518  53.473  1.00  0.00     0.161 A 
HETATM    4  N2  UNL     1      24.563   0.173  52.762  1.00  0.00    -0.315 N 
HETATM    5  C12 UNL     1      24.245   1.329  52.048  1.00  0.00     0.104 A 
HETATM    6  C13 UNL     1      23.017   1.873  51.964  1.00  0.00    -0.012 A 
ENDROOT
BRANCH   4   7
HETATM    7  C5  UNL     1      25.878  -0.360  52.816  1.00  0.00     0.291 C 
HETATM    8  N3  UNL     1      26.828   0.393  53.236  1.00  0.00    -0.121 NA
HETATM    9  N4  UNL     1      28.208   0.141  53.397  1.00  0.00    -0.233 N 
HETATM   10  C6  UNL     1      29.174   1.042  53.647  1.00  0.00     0.033 A 
HETATM   11  C10 UNL     1      28.803  -1.082  53.325  1.00  0.00     0.078 A 
HETATM   12  C7  UNL     1      28.948   2.497  53.800  1.00  0.00     0.070 C 
HETATM   13  C8  UNL     1      30.385   0.413  53.736  1.00  0.00     0.029 A 
HETATM   14  C9  UNL     1      30.154  -0.944  53.532  1.00  0.00     0.035 A 
HETATM   15  C11 UNL     1      28.186  -2.402  53.072  1.00  0.00     0.178 C 
HETATM   16  N5  UNL     1      26.974  -2.642  52.669  1.00  0.00    -0.135 NA
HETATM   17  O1  UNL     1      25.989  -1.696  52.390  1.00  0.00    -0.173 OA
ENDBRANCH   4   7
BRANCH   6  18
HETATM   18  C14 UNL     1      22.740   3.107  51.186  1.00  0.00     0.024 C 
HETATM   19  C15 UNL     1      22.765   4.351  52.009  1.00  0.00     0.009 C 
HETATM   20  C16 UNL     1      23.491   5.511  51.483  1.00  0.00     0.003 C 
HETATM   21  C17 UNL     1      23.610   5.656  50.001  1.00  0.00     0.026 C 
HETATM   22  C18 UNL     1      23.482   4.421  49.188  1.00  0.00     0.091 C 
HETATM   23  C20 UNL     1      23.588   3.149  49.964  1.00  0.00     0.035 C 
BRANCH  22  24
HETATM   24  N6  UNL     1      22.350   4.463  48.296  1.00  0.00    -0.348 N 
HETATM   25  C19 UNL     1      21.242   5.242  48.678  1.00  0.00     0.158 C 
HETATM   26 BR1  UNL     1      21.899   2.841  47.538  1.00  0.00     0.044 Br
ENDBRANCH  22  24
ENDBRANCH   6  18
BRANCH   1  27
HETATM   27  N1  UNL     1      20.678   1.582  52.704  1.00  0.00    -0.394 N 
HETATM   28  C1  UNL     1      19.685   0.851  51.901  1.00  0.00     0.146 C 
HETATM   29  H4  UNL     1      20.234   2.380  53.213  1.00  0.00     0.159 HD
ENDBRANCH   1  27
TORSDOF 4
ENDMDL
MODEL 8
REMARK VINA RESULT:      -8.6      3.576      7.952
REMARK  4 active torsions:
REMARK  status: ('A' for Active; 'I' for Inactive)
REMARK    1  A    between atoms: N1_2  and  C2_3 
REMARK    2  A    between atoms: N2_6  and  C5_7 
REMARK    3  A    between atoms: C13_19  and  C14_20 
REMARK    4  A    between atoms: C18_24  and  N6_25 
ROOT
HETATM    1  C2  UNL     1      25.954   1.963  52.380  1.00  0.00     0.033 A 
HETATM    2  C3  UNL     1      25.909   0.996  53.271  1.00  0.00     0.023 A 
HETATM    3  C4  UNL     1      24.626   0.368  53.575  1.00  0.00     0.161 A 
HETATM    4  N2  UNL     1      23.497   0.869  52.868  1.00  0.00    -0.315 N 
HETATM    5  C12 UNL     1      23.664   1.901  51.943  1.00  0.00     0.104 A 
HETATM    6  C13 UNL     1      24.837   2.491  51.646  1.00  0.00    -0.012 A 
ENDROOT
BRANCH   4   7
HETATM    7  C5  UNL     1      22.235   0.280  53.144  1.00  0.00     0.291 C 
HETATM    8  N3  UNL     1      21.290   0.427  52.290  1.00  0.00    -0.121 NA
HETATM    9  N4  UNL     1      19.956  -0.037  52.295  1.00  0.00    -0.233 N 
HETATM   10  C6  UNL     1      18.966   0.330  51.462  1.00  0.00     0.033 A 
HETATM   11  C10 UNL     1      19.439  -0.952  53.161  1.00  0.00     0.078 A 
HETATM   12  C7  UNL     1      19.111   1.313  50.365  1.00  0.00     0.070 C 
HETATM   13  C8  UNL     1      17.817  -0.338  51.783  1.00  0.00     0.029 A 
HETATM   14  C9  UNL     1      18.113  -1.158  52.867  1.00  0.00     0.035 A 
HETATM   15  C11 UNL     1      20.110  -1.664  54.270  1.00  0.00     0.178 C 
HETATM   16  N5  UNL     1      21.284  -1.416  54.771  1.00  0.00    -0.135 NA
HETATM   17  O1  UNL     1      22.166  -0.417  54.364  1.00  0.00    -0.173 OA
ENDBRANCH   4   7
BRANCH   6  18
HETATM   18  C14 UNL     1      24.951   3.588  50.651  1.00  0.00     0.024 C 
HETATM   19  C15 UNL     1      24.362   3.253  49.323  1.00  0.00     0.009 C 
HETATM   20  C16 UNL     1      23.505   4.252  48.677  1.00  0.00     0.003 C 
HETATM   21  C17 UNL     1      23.745   5.693  48.988  1.00  0.00     0.026 C 
HETATM   22  C18 UNL     1      24.424   6.005  50.270  1.00  0.00     0.091 C 
HETATM   23  C20 UNL     1      24.478   4.870  51.239  1.00  0.00     0.035 C 
BRANCH  22  24
HETATM   24  N6  UNL     1      25.692   6.664  50.077  1.00  0.00    -0.348 N 
HETATM   25  C19 UNL     1      25.742   8.058  50.262  1.00  0.00     0.158 C 
HETATM   26 BR1  UNL     1      26.662   6.067  48.625  1.00  0.00     0.044 Br
ENDBRANCH  22  24
ENDBRANCH   6  18
BRANCH   1  27
HETATM   27  N1  UNL     1      27.247   2.471  52.190  1.00  0.00    -0.394 N 
HETATM   28  C1  UNL     1      28.238   2.316  53.267  1.00  0.00     0.146 C 
HETATM   29  H4  UNL     1      27.660   2.971  51.370  1.00  0.00     0.159 HD
ENDBRANCH   1  27
TORSDOF 4
ENDMDL
MODEL 9
REMARK VINA RESULT:      -8.6      3.946      6.844
REMARK  4 active torsions:
REMARK  status: ('A' for Active; 'I' for Inactive)
REMARK    1  A    between atoms: N1_2  and  C2_3 
REMARK    2  A    between atoms: N2_6  and  C5_7 
REMARK    3  A    between atoms: C13_19  and  C14_20 
REMARK    4  A    between atoms: C18_24  and  N6_25 
ROOT
HETATM    1  C2  UNL     1      25.915   4.198  49.823  1.00  0.00     0.033 A 
HETATM    2  C3  UNL     1      26.769   3.241  50.115  1.00  0.00     0.023 A 
HETATM    3  C4  UNL     1      26.406   2.247  51.121  1.00  0.00     0.161 A 
HETATM    4  N2  UNL     1      25.126   2.400  51.724  1.00  0.00    -0.315 N 
HETATM    5  C12 UNL     1      24.302   3.457  51.334  1.00  0.00     0.104 A 
HETATM    6  C13 UNL     1      24.615   4.382  50.408  1.00  0.00    -0.012 A 
ENDROOT
BRANCH   4   7
HETATM    7  C5  UNL     1      24.746   1.451  52.709  1.00  0.00     0.291 C 
HETATM    8  N3  UNL     1      23.543   1.007  52.702  1.00  0.00    -0.121 NA
HETATM    9  N4  UNL     1      22.893   0.076  53.540  1.00  0.00    -0.233 N 
HETATM   10  C6  UNL     1      21.576  -0.184  53.598  1.00  0.00     0.033 A 
HETATM   11  C10 UNL     1      23.506  -0.732  54.450  1.00  0.00     0.078 A 
HETATM   12  C7  UNL     1      20.549   0.483  52.765  1.00  0.00     0.070 C 
HETATM   13  C8  UNL     1      21.332  -1.149  54.535  1.00  0.00     0.029 A 
HETATM   14  C9  UNL     1      22.561  -1.503  55.083  1.00  0.00     0.035 A 
HETATM   15  C11 UNL     1      24.943  -0.837  54.780  1.00  0.00     0.178 C 
HETATM   16  N5  UNL     1      25.899  -0.039  54.407  1.00  0.00    -0.135 NA
HETATM   17  O1  UNL     1      25.769   1.096  53.608  1.00  0.00    -0.173 OA
ENDBRANCH   4   7
BRANCH   6  18
HETATM   18  C14 UNL     1      23.695   5.486  50.036  1.00  0.00     0.024 C 
HETATM   19  C15 UNL     1      22.264   5.071  49.962  1.00  0.00     0.009 C 
HETATM   20  C16 UNL     1      21.262   5.934  50.595  1.00  0.00     0.003 C 
HETATM   21  C17 UNL     1      21.558   7.394  50.706  1.00  0.00     0.026 C 
HETATM   22  C18 UNL     1      22.985   7.800  50.678  1.00  0.00     0.091 C 
HETATM   23  C20 UNL     1      23.955   6.683  50.882  1.00  0.00     0.035 C 
BRANCH  22  24
HETATM   24  N6  UNL     1      23.297   8.640  49.548  1.00  0.00    -0.348 N 
HETATM   25  C19 UNL     1      22.489   8.525  48.402  1.00  0.00     0.158 C 
HETATM   26 BR1  UNL     1      25.098   8.805  49.179  1.00  0.00     0.044 Br
ENDBRANCH  22  24
ENDBRANCH   6  18
BRANCH   1  27
HETATM   27  N1  UNL     1      26.394   5.078  48.842  1.00  0.00    -0.394 N 
HETATM   28  C1  UNL     1      27.838   5.105  48.555  1.00  0.00     0.146 C 
HETATM   29  H4  UNL     1      25.880   5.762  48.241  1.00  0.00     0.159 HD
ENDBRANCH   1  27
TORSDOF 4
ENDMDL
