MODEL 1
REMARK VINA RESULT:      -9.4      0.000      0.000
REMARK  5 active torsions:
REMARK  status: ('A' for Active; 'I' for Inactive)
REMARK    1  A    between atoms: C2_4  and  O2_5 
REMARK    2  A    between atoms: O2_5  and  C3_6 
REMARK    3  A    between atoms: C7_13  and  C8_14 
REMARK    4  A    between atoms: C8_14  and  N4_15 
REMARK    5  A    between atoms: N4_15  and  C9_16 
ROOT
HETATM    1  O1  UNL     1      24.843   2.942  51.629  1.00  0.00    -0.143 OA
HETATM    2  C1  UNL     1      24.322   3.902  52.255  1.00  0.00     0.365 A 
HETATM    3  N1  UNL     1      24.819   2.892  53.090  1.00  0.00     0.140 N 
HETATM    4  C2  UNL     1      25.474   1.660  52.878  1.00  0.00     0.283 C 
HETATM    5  C4  UNL     1      25.039   0.436  53.115  1.00  0.00     0.099 C 
HETATM    6  C5  UNL     1      23.811  -0.114  53.647  1.00  0.00     0.072 A 
HETATM    7  N2  UNL     1      24.019  -0.857  54.741  1.00  0.00    -0.241 NA
HETATM    8  C6  UNL     1      23.022  -1.464  55.408  1.00  0.00     0.234 A 
HETATM    9  N3  UNL     1      21.736  -1.359  55.008  1.00  0.00    -0.240 NA
HETATM   10  C7  UNL     1      21.468  -0.624  53.916  1.00  0.00     0.083 A 
HETATM   11  C15 UNL     1      22.504  -0.019  53.261  1.00  0.00     0.016 A 
HETATM   12  C16 UNL     1      22.306   0.705  52.199  1.00  0.00     0.201 C 
HETATM   13  S1  UNL     1      21.328   1.465  50.934  1.00  0.00    -0.205 SA
HETATM   14  C17 UNL     1      22.411   2.185  49.638  1.00  0.00     0.329 C 
HETATM   15  N5  UNL     1      23.191   3.172  50.205  1.00  0.00     0.096 N 
HETATM   16  C18 UNL     1      24.119   3.809  49.324  1.00  0.00     0.274 C 
HETATM   17  C19 UNL     1      24.666   5.006  50.132  1.00  0.00     0.042 C 
HETATM   18  C20 UNL     1      23.796   4.973  51.374  1.00  0.00     0.091 C 
HETATM   19  C21 UNL     1      22.504   4.330  50.750  1.00  0.00     0.283 C 
HETATM   20  H1  UNL     1      24.781   2.907  54.122  1.00  0.00     0.332 HD
ENDROOT
BRANCH  10  21
HETATM   21  C8  UNL     1      20.217  -0.525  53.534  1.00  0.00     0.120 C 
BRANCH  21  22
HETATM   22  N4  UNL     1      19.305  -1.540  53.939  1.00  0.00    -0.364 N 
HETATM   23  H7  UNL     1      19.700  -2.052  54.780  1.00  0.00     0.165 HD
BRANCH  22  24
HETATM   24  C9  UNL     1      18.052  -1.950  53.442  1.00  0.00     0.033 A 
HETATM   25  C10 UNL     1      17.160  -1.217  52.687  1.00  0.00     0.029 A 
HETATM   26  C11 UNL     1      15.972  -1.808  52.297  1.00  0.00     0.004 A 
HETATM   27  C12 UNL     1      15.683  -3.115  52.657  1.00  0.00     0.024 A 
HETATM   28  C13 UNL     1      16.567  -3.863  53.413  1.00  0.00     0.036 A 
HETATM   29 CL1  UNL     1      16.156  -5.519  53.846  1.00  0.00    -0.084 Cl
HETATM   30  C14 UNL     1      17.765  -3.258  53.804  1.00  0.00     0.053 A 
ENDBRANCH  22  24
ENDBRANCH  21  22
ENDBRANCH  10  21
BRANCH   4  31
HETATM   31  O2  UNL     1      26.733   1.866  52.355  1.00  0.00    -0.298 OA
BRANCH  31  32
HETATM   32  C3  UNL     1      27.901   1.644  53.150  1.00  0.00     0.400 C 
HETATM   33  F1  UNL     1      28.191   2.813  53.836  1.00  0.00    -0.227 F 
ENDBRANCH  31  32
ENDBRANCH   4  31
TORSDOF 5
ENDMDL
MODEL 2
REMARK VINA RESULT:      -9.2      1.125      1.412
REMARK  5 active torsions:
REMARK  status: ('A' for Active; 'I' for Inactive)
REMARK    1  A    between atoms: C2_4  and  O2_5 
REMARK    2  A    between atoms: O2_5  and  C3_6 
REMARK    3  A    between atoms: C7_13  and  C8_14 
REMARK    4  A    between atoms: C8_14  and  N4_15 
REMARK    5  A    between atoms: N4_15  and  C9_16 
ROOT
HETATM    1  O1  UNL     1      24.463   3.152  51.784  1.00  0.00    -0.143 OA
HETATM    2  C1  UNL     1      23.922   4.047  52.484  1.00  0.00     0.365 A 
HETATM    3  N1  UNL     1      24.504   3.020  53.240  1.00  0.00     0.140 N 
HETATM    4  C2  UNL     1      25.211   1.838  52.932  1.00  0.00     0.283 C 
HETATM    5  C4  UNL     1      24.849   0.582  53.116  1.00  0.00     0.099 C 
HETATM    6  C5  UNL     1      23.674  -0.061  53.663  1.00  0.00     0.072 A 
HETATM    7  N2  UNL     1      23.966  -0.851  54.703  1.00  0.00    -0.241 NA
HETATM    8  C6  UNL     1      23.030  -1.546  55.374  1.00  0.00     0.234 A 
HETATM    9  N3  UNL     1      21.724  -1.487  55.032  1.00  0.00    -0.240 NA
HETATM   10  C7  UNL     1      21.374  -0.708  53.995  1.00  0.00     0.083 A 
HETATM   11  C15 UNL     1      22.349  -0.014  53.336  1.00  0.00     0.016 A 
HETATM   12  C16 UNL     1      22.070   0.756  52.325  1.00  0.00     0.201 C 
HETATM   13  S1  UNL     1      21.001   1.532  51.146  1.00  0.00    -0.205 SA
HETATM   14  C17 UNL     1      21.990   2.378  49.851  1.00  0.00     0.329 C 
HETATM   15  N5  UNL     1      22.742   3.373  50.443  1.00  0.00     0.096 N 
HETATM   16  C18 UNL     1      23.599   4.105  49.564  1.00  0.00     0.274 C 
HETATM   17  C19 UNL     1      24.118   5.283  50.416  1.00  0.00     0.042 C 
HETATM   18  C20 UNL     1      23.305   5.136  51.688  1.00  0.00     0.091 C 
HETATM   19  C21 UNL     1      22.021   4.461  51.081  1.00  0.00     0.283 C 
HETATM   20  H1  UNL     1      24.509   2.976  54.271  1.00  0.00     0.332 HD
ENDROOT
BRANCH  10  21
HETATM   21  C8  UNL     1      20.104  -0.655  53.670  1.00  0.00     0.120 C 
BRANCH  21  22
HETATM   22  N4  UNL     1      19.267  -1.745  54.035  1.00  0.00    -0.364 N 
HETATM   23  H7  UNL     1      19.710  -2.273  54.842  1.00  0.00     0.165 HD
BRANCH  22  24
HETATM   24  C9  UNL     1      18.032  -2.210  53.539  1.00  0.00     0.033 A 
HETATM   25  C10 UNL     1      17.481  -3.466  53.686  1.00  0.00     0.029 A 
HETATM   26  C11 UNL     1      16.247  -3.723  53.116  1.00  0.00     0.004 A 
HETATM   27  C12 UNL     1      15.576  -2.737  52.411  1.00  0.00     0.024 A 
HETATM   28  C13 UNL     1      16.116  -1.472  52.255  1.00  0.00     0.036 A 
HETATM   29 CL1  UNL     1      15.226  -0.253  51.351  1.00  0.00    -0.084 Cl
HETATM   30  C14 UNL     1      17.363  -1.221  52.833  1.00  0.00     0.053 A 
ENDBRANCH  22  24
ENDBRANCH  21  22
ENDBRANCH  10  21
BRANCH   4  31
HETATM   31  O2  UNL     1      26.435   2.140  52.372  1.00  0.00    -0.298 OA
BRANCH  31  32
HETATM   32  C3  UNL     1      27.650   1.723  53.000  1.00  0.00     0.400 C 
HETATM   33  F1  UNL     1      28.105   2.760  53.800  1.00  0.00    -0.227 F 
ENDBRANCH  31  32
ENDBRANCH   4  31
TORSDOF 5
ENDMDL
MODEL 3
REMARK VINA RESULT:      -8.7      4.870      9.033
REMARK  5 active torsions:
REMARK  status: ('A' for Active; 'I' for Inactive)
REMARK    1  A    between atoms: C2_4  and  O2_5 
REMARK    2  A    between atoms: O2_5  and  C3_6 
REMARK    3  A    between atoms: C7_13  and  C8_14 
REMARK    4  A    between atoms: C8_14  and  N4_15 
REMARK    5  A    between atoms: N4_15  and  C9_16 
ROOT
HETATM    1  O1  UNL     1      20.722   1.234  52.050  1.00  0.00    -0.143 OA
HETATM    2  C1  UNL     1      20.570   0.572  50.989  1.00  0.00     0.365 A 
HETATM    3  N1  UNL     1      21.728   0.230  51.703  1.00  0.00     0.140 N 
HETATM    4  C2  UNL     1      22.315   0.664  52.911  1.00  0.00     0.283 C 
HETATM    5  C4  UNL     1      23.447   1.318  53.096  1.00  0.00     0.099 C 
HETATM    6  C5  UNL     1      24.477   1.824  52.214  1.00  0.00     0.072 A 
HETATM    7  N2  UNL     1      25.681   1.309  52.493  1.00  0.00    -0.241 NA
HETATM    8  C6  UNL     1      26.787   1.632  51.800  1.00  0.00     0.234 A 
HETATM    9  N3  UNL     1      26.748   2.505  50.770  1.00  0.00    -0.240 NA
HETATM   10  C7  UNL     1      25.565   3.052  50.446  1.00  0.00     0.083 A 
HETATM   11  C15 UNL     1      24.460   2.703  51.169  1.00  0.00     0.016 A 
HETATM   12  C16 UNL     1      23.287   3.199  50.901  1.00  0.00     0.201 C 
HETATM   13  S1  UNL     1      22.138   4.211  50.012  1.00  0.00    -0.205 SA
HETATM   14  C17 UNL     1      20.516   4.237  50.872  1.00  0.00     0.329 C 
HETATM   15  N5  UNL     1      20.003   2.956  50.898  1.00  0.00     0.096 N 
HETATM   16  C18 UNL     1      18.751   2.806  51.570  1.00  0.00     0.274 C 
HETATM   17  C19 UNL     1      18.301   1.366  51.240  1.00  0.00     0.042 C 
HETATM   18  C20 UNL     1      19.347   0.931  50.231  1.00  0.00     0.091 C 
HETATM   19  C21 UNL     1      19.696   2.337  49.620  1.00  0.00     0.283 C 
HETATM   20  H1  UNL     1      22.406  -0.493  51.416  1.00  0.00     0.332 HD
ENDROOT
BRANCH  10  21
HETATM   21  C8  UNL     1      25.534   3.899  49.444  1.00  0.00     0.120 C 
BRANCH  21  22
HETATM   22  N4  UNL     1      26.166   5.163  49.608  1.00  0.00    -0.364 N 
HETATM   23  H7  UNL     1      25.890   5.574  50.547  1.00  0.00     0.165 HD
BRANCH  22  24
HETATM   24  C9  UNL     1      27.037   5.909  48.789  1.00  0.00     0.033 A 
HETATM   25  C10 UNL     1      26.780   7.105  48.152  1.00  0.00     0.029 A 
HETATM   26  C11 UNL     1      27.778   7.680  47.386  1.00  0.00     0.004 A 
HETATM   27  C12 UNL     1      29.014   7.066  47.261  1.00  0.00     0.024 A 
HETATM   28  C13 UNL     1      29.287   5.867  47.893  1.00  0.00     0.036 A 
HETATM   29 CL1  UNL     1      30.871   5.125  47.705  1.00  0.00    -0.084 Cl
HETATM   30  C14 UNL     1      28.273   5.292  48.665  1.00  0.00     0.053 A 
ENDBRANCH  22  24
ENDBRANCH  21  22
ENDBRANCH  10  21
BRANCH   4  31
HETATM   31  O2  UNL     1      21.529   0.307  53.985  1.00  0.00    -0.298 OA
BRANCH  31  32
HETATM   32  C3  UNL     1      21.911  -0.768  54.847  1.00  0.00     0.400 C 
HETATM   33  F1  UNL     1      21.070  -1.843  54.604  1.00  0.00    -0.227 F 
ENDBRANCH  31  32
ENDBRANCH   4  31
TORSDOF 5
ENDMDL
MODEL 4
REMARK VINA RESULT:      -8.4      3.307      4.781
REMARK  5 active torsions:
REMARK  status: ('A' for Active; 'I' for Inactive)
REMARK    1  A    between atoms: C2_4  and  O2_5 
REMARK    2  A    between atoms: O2_5  and  C3_6 
REMARK    3  A    between atoms: C7_13  and  C8_14 
REMARK    4  A    between atoms: C8_14  and  N4_15 
REMARK    5  A    between atoms: N4_15  and  C9_16 
ROOT
HETATM    1  O1  UNL     1      25.499   6.432  48.883  1.00  0.00    -0.143 OA
HETATM    2  C1  UNL     1      25.407   7.237  49.847  1.00  0.00     0.365 A 
HETATM    3  N1  UNL     1      26.361   6.230  50.047  1.00  0.00     0.140 N 
HETATM    4  C2  UNL     1      26.825   5.135  49.287  1.00  0.00     0.283 C 
HETATM    5  C4  UNL     1      26.689   3.843  49.523  1.00  0.00     0.099 C 
HETATM    6  C5  UNL     1      26.060   3.068  50.570  1.00  0.00     0.072 A 
HETATM    7  N2  UNL     1      26.925   2.256  51.190  1.00  0.00    -0.241 NA
HETATM    8  C6  UNL     1      26.565   1.445  52.200  1.00  0.00     0.234 A 
HETATM    9  N3  UNL     1      25.293   1.402  52.654  1.00  0.00    -0.240 NA
HETATM   10  C7  UNL     1      24.382   2.197  52.069  1.00  0.00     0.083 A 
HETATM   11  C15 UNL     1      24.781   3.010  51.046  1.00  0.00     0.016 A 
HETATM   12  C16 UNL     1      23.944   3.802  50.442  1.00  0.00     0.201 C 
HETATM   13  S1  UNL     1      22.361   4.537  50.141  1.00  0.00    -0.205 SA
HETATM   14  C17 UNL     1      22.406   5.535  48.601  1.00  0.00     0.329 C 
HETATM   15  N5  UNL     1      23.314   6.563  48.761  1.00  0.00     0.096 N 
HETATM   16  C18 UNL     1      23.489   7.415  47.627  1.00  0.00     0.274 C 
HETATM   17  C19 UNL     1      24.343   8.590  48.149  1.00  0.00     0.042 C 
HETATM   18  C20 UNL     1      24.398   8.304  49.638  1.00  0.00     0.091 C 
HETATM   19  C21 UNL     1      23.029   7.546  49.792  1.00  0.00     0.283 C 
HETATM   20  H1  UNL     1      26.950   6.134  50.889  1.00  0.00     0.332 HD
ENDROOT
BRANCH  10  21
HETATM   21  C8  UNL     1      23.150   2.151  52.516  1.00  0.00     0.120 C 
BRANCH  21  22
HETATM   22  N4  UNL     1      22.612   0.886  52.885  1.00  0.00    -0.364 N 
HETATM   23  H7  UNL     1      23.388   0.275  53.275  1.00  0.00     0.165 HD
BRANCH  22  24
HETATM   24  C9  UNL     1      21.312   0.346  52.824  1.00  0.00     0.033 A 
HETATM   25  C10 UNL     1      20.701  -0.492  53.733  1.00  0.00     0.029 A 
HETATM   26  C11 UNL     1      19.407  -0.914  53.486  1.00  0.00     0.004 A 
HETATM   27  C12 UNL     1      18.736  -0.502  52.346  1.00  0.00     0.024 A 
HETATM   28  C13 UNL     1      19.335   0.339  51.425  1.00  0.00     0.036 A 
HETATM   29 CL1  UNL     1      18.443   0.835  49.992  1.00  0.00    -0.084 Cl
HETATM   30  C14 UNL     1      20.643   0.760  51.682  1.00  0.00     0.053 A 
ENDBRANCH  22  24
ENDBRANCH  21  22
ENDBRANCH  10  21
BRANCH   4  31
HETATM   31  O2  UNL     1      27.503   5.575  48.170  1.00  0.00    -0.298 OA
BRANCH  31  32
HETATM   32  C3  UNL     1      28.913   5.808  48.214  1.00  0.00     0.400 C 
HETATM   33  F1  UNL     1      29.559   4.654  47.797  1.00  0.00    -0.227 F 
ENDBRANCH  31  32
ENDBRANCH   4  31
TORSDOF 5
ENDMDL
MODEL 5
REMARK VINA RESULT:      -8.2      4.577      7.527
REMARK  5 active torsions:
REMARK  status: ('A' for Active; 'I' for Inactive)
REMARK    1  A    between atoms: C2_4  and  O2_5 
REMARK    2  A    between atoms: O2_5  and  C3_6 
REMARK    3  A    between atoms: C7_13  and  C8_14 
REMARK    4  A    between atoms: C8_14  and  N4_15 
REMARK    5  A    between atoms: N4_15  and  C9_16 
ROOT
HETATM    1  O1  UNL     1      20.550   3.066  49.635  1.00  0.00    -0.143 OA
HETATM    2  C1  UNL     1      21.100   2.483  48.664  1.00  0.00     0.365 A 
HETATM    3  N1  UNL     1      20.458   1.609  49.553  1.00  0.00     0.140 N 
HETATM    4  C2  UNL     1      19.720   1.770  50.745  1.00  0.00     0.283 C 
HETATM    5  C4  UNL     1      20.033   1.394  51.972  1.00  0.00     0.099 C 
HETATM    6  C5  UNL     1      21.166   0.716  52.563  1.00  0.00     0.072 A 
HETATM    7  N2  UNL     1      20.813  -0.415  53.185  1.00  0.00    -0.241 NA
HETATM    8  C6  UNL     1      21.702  -1.213  53.802  1.00  0.00     0.234 A 
HETATM    9  N3  UNL     1      23.019  -0.915  53.833  1.00  0.00    -0.240 NA
HETATM   10  C7  UNL     1      23.430   0.209  53.224  1.00  0.00     0.083 A 
HETATM   11  C15 UNL     1      22.502   0.998  52.604  1.00  0.00     0.016 A 
HETATM   12  C16 UNL     1      22.840   2.097  51.997  1.00  0.00     0.201 C 
HETATM   13  S1  UNL     1      23.973   3.336  51.433  1.00  0.00    -0.205 SA
HETATM   14  C17 UNL     1      23.056   4.775  50.754  1.00  0.00     0.329 C 
HETATM   15  N5  UNL     1      22.320   4.361  49.662  1.00  0.00     0.096 N 
HETATM   16  C18 UNL     1      21.519   5.368  49.041  1.00  0.00     0.274 C 
HETATM   17  C19 UNL     1      21.013   4.714  47.736  1.00  0.00     0.042 C 
HETATM   18  C20 UNL     1      21.779   3.405  47.721  1.00  0.00     0.091 C 
HETATM   19  C21 UNL     1      23.057   3.860  48.516  1.00  0.00     0.283 C 
HETATM   20  H1  UNL     1      20.417   0.583  49.446  1.00  0.00     0.332 HD
ENDROOT
BRANCH  10  21
HETATM   21  C8  UNL     1      24.711   0.492  53.256  1.00  0.00     0.120 C 
BRANCH  21  22
HETATM   22  N4  UNL     1      25.642  -0.573  53.105  1.00  0.00    -0.364 N 
HETATM   23  H7  UNL     1      25.125  -1.453  52.813  1.00  0.00     0.165 HD
BRANCH  22  24
HETATM   24  C9  UNL     1      27.039  -0.650  53.269  1.00  0.00     0.033 A 
HETATM   25  C10 UNL     1      27.862  -1.729  53.017  1.00  0.00     0.029 A 
HETATM   26  C11 UNL     1      29.219  -1.600  53.246  1.00  0.00     0.004 A 
HETATM   27  C12 UNL     1      29.745  -0.408  53.719  1.00  0.00     0.024 A 
HETATM   28  C13 UNL     1      28.934   0.682  53.976  1.00  0.00     0.036 A 
HETATM   29 CL1  UNL     1      29.648   2.174  54.576  1.00  0.00    -0.084 Cl
HETATM   30  C14 UNL     1      27.563   0.543  53.743  1.00  0.00     0.053 A 
ENDBRANCH  22  24
ENDBRANCH  21  22
ENDBRANCH  10  21
BRANCH   4  31
HETATM   31  O2  UNL     1      18.527   2.412  50.492  1.00  0.00    -0.298 OA
BRANCH  31  32
HETATM   32  C3  UNL     1      17.403   2.236  51.359  1.00  0.00     0.400 C 
HETATM   33  F1  UNL     1      16.714   1.103  50.954  1.00  0.00    -0.227 F 
ENDBRANCH  31  32
ENDBRANCH   4  31
TORSDOF 5
ENDMDL
MODEL 6
REMARK VINA RESULT:      -8.0      7.957      9.924
REMARK  5 active torsions:
REMARK  status: ('A' for Active; 'I' for Inactive)
REMARK    1  A    between atoms: C2_4  and  O2_5 
REMARK    2  A    between atoms: O2_5  and  C3_6 
REMARK    3  A    between atoms: C7_13  and  C8_14 
REMARK    4  A    between atoms: C8_14  and  N4_15 
REMARK    5  A    between atoms: N4_15  and  C9_16 
ROOT
HETATM    1  O1  UNL     1      30.263   8.293  48.010  1.00  0.00    -0.143 OA
HETATM    2  C1  UNL     1      30.414   8.784  49.160  1.00  0.00     0.365 A 
HETATM    3  N1  UNL     1      30.275   7.389  49.160  1.00  0.00     0.140 N 
HETATM    4  C2  UNL     1      30.095   6.408  48.161  1.00  0.00     0.283 C 
HETATM    5  C4  UNL     1      29.046   5.640  47.931  1.00  0.00     0.099 C 
HETATM    6  C5  UNL     1      27.748   5.490  48.553  1.00  0.00     0.072 A 
HETATM    7  N2  UNL     1      27.537   4.244  48.993  1.00  0.00    -0.241 NA
HETATM    8  C6  UNL     1      26.401   3.873  49.609  1.00  0.00     0.234 A 
HETATM    9  N3  UNL     1      25.393   4.747  49.822  1.00  0.00    -0.240 NA
HETATM   10  C7  UNL     1      25.551   6.013  49.400  1.00  0.00     0.083 A 
HETATM   11  C15 UNL     1      26.718   6.358  48.779  1.00  0.00     0.016 A 
HETATM   12  C16 UNL     1      26.928   7.568  48.350  1.00  0.00     0.201 C 
HETATM   13  S1  UNL     1      26.512   9.266  48.069  1.00  0.00    -0.205 SA
HETATM   14  C17 UNL     1      27.757  10.053  46.974  1.00  0.00     0.329 C 
HETATM   15  N5  UNL     1      28.985  10.028  47.603  1.00  0.00     0.096 N 
HETATM   16  C18 UNL     1      30.073  10.578  46.856  1.00  0.00     0.274 C 
HETATM   17  C19 UNL     1      31.241  10.650  47.864  1.00  0.00     0.042 C 
HETATM   18  C20 UNL     1      30.562  10.260  49.163  1.00  0.00     0.091 C 
HETATM   19  C21 UNL     1      29.110  10.772  48.844  1.00  0.00     0.283 C 
HETATM   20  H1  UNL     1      30.295   6.794  50.003  1.00  0.00     0.332 HD
ENDROOT
BRANCH  10  21
HETATM   21  C8  UNL     1      24.569   6.857  49.610  1.00  0.00     0.120 C 
BRANCH  21  22
HETATM   22  N4  UNL     1      23.380   6.714  48.842  1.00  0.00    -0.364 N 
HETATM   23  H7  UNL     1      22.549   6.613  49.495  1.00  0.00     0.165 HD
BRANCH  22  24
HETATM   24  C9  UNL     1      23.137   6.686  47.454  1.00  0.00     0.033 A 
HETATM   25  C10 UNL     1      23.489   7.634  46.515  1.00  0.00     0.029 A 
HETATM   26  C11 UNL     1      23.155   7.416  45.191  1.00  0.00     0.004 A 
HETATM   27  C12 UNL     1      22.480   6.267  44.813  1.00  0.00     0.024 A 
HETATM   28  C13 UNL     1      22.121   5.307  45.742  1.00  0.00     0.036 A 
HETATM   29 CL1  UNL     1      21.264   3.863  45.215  1.00  0.00    -0.084 Cl
HETATM   30  C14 UNL     1      22.461   5.535  47.079  1.00  0.00     0.053 A 
ENDBRANCH  22  24
ENDBRANCH  21  22
ENDBRANCH  10  21
BRANCH   4  31
HETATM   31  O2  UNL     1      31.221   6.311  47.372  1.00  0.00    -0.298 OA
BRANCH  31  32
HETATM   32  C3  UNL     1      32.053   5.149  47.425  1.00  0.00     0.400 C 
HETATM   33  F1  UNL     1      32.247   4.812  48.756  1.00  0.00    -0.227 F 
ENDBRANCH  31  32
ENDBRANCH   4  31
TORSDOF 5
ENDMDL
MODEL 7
REMARK VINA RESULT:      -7.9      2.676      3.320
REMARK  5 active torsions:
REMARK  status: ('A' for Active; 'I' for Inactive)
REMARK    1  A    between atoms: C2_4  and  O2_5 
REMARK    2  A    between atoms: O2_5  and  C3_6 
REMARK    3  A    between atoms: C7_13  and  C8_14 
REMARK    4  A    between atoms: C8_14  and  N4_15 
REMARK    5  A    between atoms: N4_15  and  C9_16 
ROOT
HETATM    1  O1  UNL     1      23.821   5.475  50.115  1.00  0.00    -0.143 OA
HETATM    2  C1  UNL     1      23.549   6.239  51.078  1.00  0.00     0.365 A 
HETATM    3  N1  UNL     1      24.451   5.218  51.410  1.00  0.00     0.140 N 
HETATM    4  C2  UNL     1      25.050   4.153  50.703  1.00  0.00     0.283 C 
HETATM    5  C4  UNL     1      24.873   2.853  50.853  1.00  0.00     0.099 C 
HETATM    6  C5  UNL     1      24.061   2.040  51.732  1.00  0.00     0.072 A 
HETATM    7  N2  UNL     1      24.796   1.195  52.466  1.00  0.00    -0.241 NA
HETATM    8  C6  UNL     1      24.255   0.345  53.355  1.00  0.00     0.234 A 
HETATM    9  N3  UNL     1      22.921   0.291  53.563  1.00  0.00    -0.240 NA
HETATM   10  C7  UNL     1      22.135   1.117  52.854  1.00  0.00     0.083 A 
HETATM   11  C15 UNL     1      22.716   1.970  51.958  1.00  0.00     0.016 A 
HETATM   12  C16 UNL     1      22.005   2.793  51.244  1.00  0.00     0.201 C 
HETATM   13  S1  UNL     1      20.505   3.551  50.685  1.00  0.00    -0.205 SA
HETATM   14  C17 UNL     1      20.835   4.613  49.225  1.00  0.00     0.329 C 
HETATM   15  N5  UNL     1      21.696   5.626  49.594  1.00  0.00     0.096 N 
HETATM   16  C18 UNL     1      22.078   6.524  48.550  1.00  0.00     0.274 C 
HETATM   17  C19 UNL     1      22.819   7.670  49.272  1.00  0.00     0.042 C 
HETATM   18  C20 UNL     1      22.596   7.321  50.731  1.00  0.00     0.091 C 
HETATM   19  C21 UNL     1      21.223   6.567  50.595  1.00  0.00     0.283 C 
HETATM   20  H1  UNL     1      24.873   5.083  52.342  1.00  0.00     0.332 HD
ENDROOT
BRANCH  10  21
HETATM   21  C8  UNL     1      20.840   1.060  53.061  1.00  0.00     0.120 C 
BRANCH  21  22
HETATM   22  N4  UNL     1      20.178  -0.183  52.860  1.00  0.00    -0.364 N 
HETATM   23  H7  UNL     1      20.868  -0.976  53.008  1.00  0.00     0.165 HD
BRANCH  22  24
HETATM   24  C9  UNL     1      18.851  -0.514  52.521  1.00  0.00     0.033 A 
HETATM   25  C10 UNL     1      17.971  -1.309  53.226  1.00  0.00     0.029 A 
HETATM   26  C11 UNL     1      16.702  -1.512  52.717  1.00  0.00     0.004 A 
HETATM   27  C12 UNL     1      16.319  -0.928  51.520  1.00  0.00     0.024 A 
HETATM   28  C13 UNL     1      17.190  -0.128  50.801  1.00  0.00     0.036 A 
HETATM   29 CL1  UNL     1      16.659   0.592  49.286  1.00  0.00    -0.084 Cl
HETATM   30  C14 UNL     1      18.471   0.072  51.322  1.00  0.00     0.053 A 
ENDBRANCH  22  24
ENDBRANCH  21  22
ENDBRANCH  10  21
BRANCH   4  31
HETATM   31  O2  UNL     1      25.923   4.636  49.751  1.00  0.00    -0.298 OA
BRANCH  31  32
HETATM   32  C3  UNL     1      26.935   3.794  49.193  1.00  0.00     0.400 C 
HETATM   33  F1  UNL     1      27.760   4.573  48.396  1.00  0.00    -0.227 F 
ENDBRANCH  31  32
ENDBRANCH   4  31
TORSDOF 5
ENDMDL
MODEL 8
REMARK VINA RESULT:      -7.7      3.062      3.797
REMARK  5 active torsions:
REMARK  status: ('A' for Active; 'I' for Inactive)
REMARK    1  A    between atoms: C2_4  and  O2_5 
REMARK    2  A    between atoms: O2_5  and  C3_6 
REMARK    3  A    between atoms: C7_13  and  C8_14 
REMARK    4  A    between atoms: C8_14  and  N4_15 
REMARK    5  A    between atoms: N4_15  and  C9_16 
ROOT
HETATM    1  O1  UNL     1      23.958   2.416  51.606  1.00  0.00    -0.143 OA
HETATM    2  C1  UNL     1      23.511   3.516  52.026  1.00  0.00     0.365 A 
HETATM    3  N1  UNL     1      23.213   2.433  52.865  1.00  0.00     0.140 N 
HETATM    4  C2  UNL     1      23.489   1.049  52.836  1.00  0.00     0.283 C 
HETATM    5  C4  UNL     1      22.653   0.038  52.686  1.00  0.00     0.099 C 
HETATM    6  C5  UNL     1      21.222  -0.069  52.504  1.00  0.00     0.072 A 
HETATM    7  N2  UNL     1      20.641  -0.798  53.465  1.00  0.00    -0.241 NA
HETATM    8  C6  UNL     1      19.317  -1.029  53.502  1.00  0.00     0.234 A 
HETATM    9  N3  UNL     1      18.485  -0.533  52.560  1.00  0.00    -0.240 NA
HETATM   10  C7  UNL     1      19.014   0.206  51.572  1.00  0.00     0.083 A 
HETATM   11  C15 UNL     1      20.363   0.423  51.563  1.00  0.00     0.016 A 
HETATM   12  C16 UNL     1      20.931   1.131  50.632  1.00  0.00     0.201 C 
HETATM   13  S1  UNL     1      20.967   2.115  49.160  1.00  0.00    -0.205 SA
HETATM   14  C17 UNL     1      22.701   2.401  48.628  1.00  0.00     0.329 C 
HETATM   15  N5  UNL     1      23.360   3.108  49.613  1.00  0.00     0.096 N 
HETATM   16  C18 UNL     1      24.740   3.381  49.360  1.00  0.00     0.274 C 
HETATM   17  C19 UNL     1      25.153   4.370  50.471  1.00  0.00     0.042 C 
HETATM   18  C20 UNL     1      23.825   4.665  51.142  1.00  0.00     0.091 C 
HETATM   19  C21 UNL     1      22.874   4.445  49.909  1.00  0.00     0.283 C 
HETATM   20  H1  UNL     1      22.686   2.499  53.750  1.00  0.00     0.332 HD
ENDROOT
BRANCH  10  21
HETATM   21  C8  UNL     1      18.200   0.685  50.660  1.00  0.00     0.120 C 
BRANCH  21  22
HETATM   22  N4  UNL     1      16.837   0.890  51.013  1.00  0.00    -0.364 N 
HETATM   23  H7  UNL     1      16.264   0.051  50.705  1.00  0.00     0.165 HD
BRANCH  22  24
HETATM   24  C9  UNL     1      16.167   1.949  51.657  1.00  0.00     0.033 A 
HETATM   25  C10 UNL     1      16.551   3.272  51.732  1.00  0.00     0.029 A 
HETATM   26  C11 UNL     1      15.746   4.162  52.419  1.00  0.00     0.004 A 
HETATM   27  C12 UNL     1      14.574   3.734  53.021  1.00  0.00     0.024 A 
HETATM   28  C13 UNL     1      14.175   2.411  52.956  1.00  0.00     0.036 A 
HETATM   29 CL1  UNL     1      12.679   1.914  53.737  1.00  0.00    -0.084 Cl
HETATM   30  C14 UNL     1      14.995   1.517  52.260  1.00  0.00     0.053 A 
ENDBRANCH  22  24
ENDBRANCH  21  22
ENDBRANCH  10  21
BRANCH   4  31
HETATM   31  O2  UNL     1      24.840   0.822  52.998  1.00  0.00    -0.298 OA
BRANCH  31  32
HETATM   32  C3  UNL     1      25.320  -0.451  53.438  1.00  0.00     0.400 C 
HETATM   33  F1  UNL     1      25.253  -0.488  54.822  1.00  0.00    -0.227 F 
ENDBRANCH  31  32
ENDBRANCH   4  31
TORSDOF 5
ENDMDL
MODEL 9
REMARK VINA RESULT:      -7.6      7.867      9.967
REMARK  5 active torsions:
REMARK  status: ('A' for Active; 'I' for Inactive)
REMARK    1  A    between atoms: C2_4  and  O2_5 
REMARK    2  A    between atoms: O2_5  and  C3_6 
REMARK    3  A    between atoms: C7_13  and  C8_14 
REMARK    4  A    between atoms: C8_14  and  N4_15 
REMARK    5  A    between atoms: N4_15  and  C9_16 
ROOT
HETATM    1  O1  UNL     1      30.651   8.758  48.168  1.00  0.00    -0.143 OA
HETATM    2  C1  UNL     1      30.506   9.339  49.276  1.00  0.00     0.365 A 
HETATM    3  N1  UNL     1      30.423   7.941  49.360  1.00  0.00     0.140 N 
HETATM    4  C2  UNL     1      30.523   6.882  48.432  1.00  0.00     0.283 C 
HETATM    5  C4  UNL     1      29.588   6.042  48.028  1.00  0.00     0.099 C 
HETATM    6  C5  UNL     1      28.186   5.865  48.339  1.00  0.00     0.072 A 
HETATM    7  N2  UNL     1      27.923   4.644  48.820  1.00  0.00    -0.241 NA
HETATM    8  C6  UNL     1      26.687   4.256  49.181  1.00  0.00     0.234 A 
HETATM    9  N3  UNL     1      25.626   5.085  49.078  1.00  0.00    -0.240 NA
HETATM   10  C7  UNL     1      25.832   6.324  48.601  1.00  0.00     0.083 A 
HETATM   11  C15 UNL     1      27.100   6.687  48.243  1.00  0.00     0.016 A 
HETATM   12  C16 UNL     1      27.360   7.873  47.777  1.00  0.00     0.201 C 
HETATM   13  S1  UNL     1      26.960   9.521  47.266  1.00  0.00    -0.205 SA
HETATM   14  C17 UNL     1      28.400  10.295  46.430  1.00  0.00     0.329 C 
HETATM   15  N5  UNL     1      29.443  10.385  47.330  1.00  0.00     0.096 N 
HETATM   16  C18 UNL     1      30.656  10.939  46.815  1.00  0.00     0.274 C 
HETATM   17  C19 UNL     1      31.547  11.149  48.059  1.00  0.00     0.042 C 
HETATM   18  C20 UNL     1      30.594  10.817  49.191  1.00  0.00     0.091 C 
HETATM   19  C21 UNL     1      29.241  11.222  48.499  1.00  0.00     0.283 C 
HETATM   20  H1  UNL     1      30.264   7.411  50.231  1.00  0.00     0.332 HD
ENDROOT
BRANCH  10  21
HETATM   21  C8  UNL     1      24.797   7.124  48.504  1.00  0.00     0.120 C 
BRANCH  21  22
HETATM   22  N4  UNL     1      23.800   7.065  49.517  1.00  0.00    -0.364 N 
HETATM   23  H7  UNL     1      24.256   7.196  50.467  1.00  0.00     0.165 HD
BRANCH  22  24
HETATM   24  C9  UNL     1      22.405   6.873  49.474  1.00  0.00     0.033 A 
HETATM   25  C10 UNL     1      21.720   5.725  49.132  1.00  0.00     0.029 A 
HETATM   26  C11 UNL     1      20.337   5.743  49.152  1.00  0.00     0.004 A 
HETATM   27  C12 UNL     1      19.651   6.893  49.509  1.00  0.00     0.024 A 
HETATM   28  C13 UNL     1      20.324   8.052  49.855  1.00  0.00     0.036 A 
HETATM   29 CL1  UNL     1      19.410   9.487  50.302  1.00  0.00    -0.084 Cl
HETATM   30  C14 UNL     1      21.721   8.025  49.832  1.00  0.00     0.053 A 
ENDBRANCH  22  24
ENDBRANCH  21  22
ENDBRANCH  10  21
BRANCH   4  31
HETATM   31  O2  UNL     1      31.807   6.791  47.940  1.00  0.00    -0.298 OA
BRANCH  31  32
HETATM   32  C3  UNL     1      32.624   5.655  48.233  1.00  0.00     0.400 C 
HETATM   33  F1  UNL     1      33.154   5.816  49.504  1.00  0.00    -0.227 F 
ENDBRANCH  31  32
ENDBRANCH   4  31
TORSDOF 5
ENDMDL
