MODEL 1
REMARK VINA RESULT:      -8.8      0.000      0.000
REMARK  5 active torsions:
REMARK  status: ('A' for Active; 'I' for Inactive)
REMARK    1  A    between atoms: C6_6  and  C7_7 
REMARK    2  A    between atoms: C7_7  and  N1_8 
REMARK    3  A    between atoms: N1_8  and  C8_9 
REMARK       I    between atoms: N1_8  and  C15_17 
REMARK    4  A    between atoms: C8_9  and  C9_10 
REMARK       I    between atoms: C15_17  and  N2_19 
REMARK    5  A    between atoms: C21_25  and  O2_26 
ROOT
HETATM    1  N1  UNL     1      25.093   1.761  53.014  1.00  0.00    -0.325 N 
HETATM    2  C15 UNL     1      26.439   1.383  53.368  1.00  0.00     0.325 C 
HETATM    3  O1  UNL     1      26.906   2.425  53.944  1.00  0.00    -0.247 OA
HETATM    4  N2  UNL     1      27.489   0.456  53.401  1.00  0.00    -0.306 N 
HETATM    5  C16 UNL     1      27.532  -0.867  52.898  1.00  0.00     0.096 A 
HETATM    6  C17 UNL     1      28.460  -1.791  52.924  1.00  0.00     0.017 A 
HETATM    7  C18 UNL     1      29.706  -1.413  53.593  1.00  0.00    -0.001 A 
HETATM    8  C19 UNL     1      29.732  -0.195  54.077  1.00  0.00    -0.007 A 
HETATM    9  C20 UNL     1      28.727   0.842  54.059  1.00  0.00     0.160 A 
ENDROOT
BRANCH   1  10
HETATM   10  C7  UNL     1      24.471   0.630  52.305  1.00  0.00     0.169 C 
BRANCH  10  11
HETATM   11  C6  UNL     1      23.416   0.049  53.140  1.00  0.00    -0.006 A 
HETATM   12  C5  UNL     1      23.517  -0.710  54.279  1.00  0.00     0.012 A 
HETATM   13  C4  UNL     1      22.481  -1.290  54.966  1.00  0.00     0.001 A 
HETATM   14  C3  UNL     1      21.191  -1.132  54.521  1.00  0.00     0.009 A 
HETATM   15  C2  UNL     1      20.962  -0.387  53.383  1.00  0.00    -0.028 A 
HETATM   16  C1  UNL     1      19.574  -0.161  52.849  1.00  0.00     0.051 C 
HETATM   17  C21 UNL     1      22.069   0.150  52.771  1.00  0.00     0.079 A 
BRANCH  17  18
HETATM   18  O2  UNL     1      21.757   0.908  51.622  1.00  0.00    -0.360 OA
HETATM   19  H21 UNL     1      20.902   1.446  51.560  1.00  0.00     0.217 HD
ENDBRANCH  17  18
ENDBRANCH  10  11
ENDBRANCH   1  10
BRANCH   1  20
HETATM   20  C8  UNL     1      24.527   3.029  53.362  1.00  0.00     0.166 C 
BRANCH  20  21
HETATM   21  C9  UNL     1      23.810   3.782  52.360  1.00  0.00    -0.040 A 
HETATM   22  C10 UNL     1      22.533   4.342  52.392  1.00  0.00     0.012 A 
HETATM   23  C11 UNL     1      21.926   5.043  51.399  1.00  0.00     0.043 A 
HETATM   24  C12 UNL     1      22.563   5.276  50.201  1.00  0.00     0.116 A 
HETATM   25  F1  UNL     1      21.892   5.976  49.273  1.00  0.00    -0.206 F 
HETATM   26  C13 UNL     1      23.849   4.750  50.085  1.00  0.00     0.043 A 
HETATM   27  C14 UNL     1      24.402   4.041  51.151  1.00  0.00     0.012 A 
ENDBRANCH  20  21
ENDBRANCH   1  20
TORSDOF 5
ENDMDL
MODEL 2
REMARK VINA RESULT:      -8.7      2.775      5.858
REMARK  5 active torsions:
REMARK  status: ('A' for Active; 'I' for Inactive)
REMARK    1  A    between atoms: C6_6  and  C7_7 
REMARK    2  A    between atoms: C7_7  and  N1_8 
REMARK    3  A    between atoms: N1_8  and  C8_9 
REMARK       I    between atoms: N1_8  and  C15_17 
REMARK    4  A    between atoms: C8_9  and  C9_10 
REMARK       I    between atoms: C15_17  and  N2_19 
REMARK    5  A    between atoms: C21_25  and  O2_26 
ROOT
HETATM    1  N1  UNL     1      24.544   2.820  51.645  1.00  0.00    -0.325 N 
HETATM    2  C15 UNL     1      24.923   4.037  50.973  1.00  0.00     0.325 C 
HETATM    3  O1  UNL     1      24.070   4.894  51.389  1.00  0.00    -0.247 OA
HETATM    4  N2  UNL     1      25.751   4.755  50.099  1.00  0.00    -0.306 N 
HETATM    5  C16 UNL     1      26.862   4.304  49.345  1.00  0.00     0.096 A 
HETATM    6  C17 UNL     1      27.692   4.922  48.542  1.00  0.00     0.017 A 
HETATM    7  C18 UNL     1      27.450   6.355  48.367  1.00  0.00    -0.001 A 
HETATM    8  C19 UNL     1      26.429   6.834  49.037  1.00  0.00    -0.007 A 
HETATM    9  C20 UNL     1      25.499   6.176  49.923  1.00  0.00     0.160 A 
ENDROOT
BRANCH   1  10
HETATM   10  C7  UNL     1      25.454   1.749  51.202  1.00  0.00     0.169 C 
BRANCH  10  11
HETATM   11  C6  UNL     1      26.108   1.149  52.368  1.00  0.00    -0.006 A 
HETATM   12  C5  UNL     1      25.687   0.129  53.182  1.00  0.00     0.012 A 
HETATM   13  C4  UNL     1      26.320  -0.329  54.309  1.00  0.00     0.001 A 
HETATM   14  C3  UNL     1      27.497   0.250  54.716  1.00  0.00     0.009 A 
HETATM   15  C2  UNL     1      28.023   1.287  53.976  1.00  0.00    -0.028 A 
HETATM   16  C1  UNL     1      29.317   1.956  54.355  1.00  0.00     0.051 C 
HETATM   17  C21 UNL     1      27.310   1.668  52.864  1.00  0.00     0.079 A 
BRANCH  17  18
HETATM   18  O2  UNL     1      27.915   2.726  52.152  1.00  0.00    -0.360 OA
HETATM   19  H21 UNL     1      27.717   2.884  51.172  1.00  0.00     0.217 HD
ENDBRANCH  17  18
ENDBRANCH  10  11
ENDBRANCH   1  10
BRANCH   1  20
HETATM   20  C8  UNL     1      23.473   2.759  52.593  1.00  0.00     0.166 C 
BRANCH  20  21
HETATM   21  C9  UNL     1      22.298   1.980  52.283  1.00  0.00    -0.040 A 
HETATM   22  C10 UNL     1      21.305   2.182  51.324  1.00  0.00     0.012 A 
HETATM   23  C11 UNL     1      20.223   1.394  51.093  1.00  0.00     0.043 A 
HETATM   24  C12 UNL     1      20.002   0.254  51.833  1.00  0.00     0.116 A 
HETATM   25  F1  UNL     1      18.908  -0.467  51.541  1.00  0.00    -0.206 F 
HETATM   26  C13 UNL     1      20.951  -0.024  52.816  1.00  0.00     0.043 A 
HETATM   27  C14 UNL     1      22.034   0.835  52.991  1.00  0.00     0.012 A 
ENDBRANCH  20  21
ENDBRANCH   1  20
TORSDOF 5
ENDMDL
MODEL 3
REMARK VINA RESULT:      -8.3      2.068      4.315
REMARK  5 active torsions:
REMARK  status: ('A' for Active; 'I' for Inactive)
REMARK    1  A    between atoms: C6_6  and  C7_7 
REMARK    2  A    between atoms: C7_7  and  N1_8 
REMARK    3  A    between atoms: N1_8  and  C8_9 
REMARK       I    between atoms: N1_8  and  C15_17 
REMARK    4  A    between atoms: C8_9  and  C9_10 
REMARK       I    between atoms: C15_17  and  N2_19 
REMARK    5  A    between atoms: C21_25  and  O2_26 
ROOT
HETATM    1  N1  UNL     1      24.713   0.846  52.967  1.00  0.00    -0.325 N 
HETATM    2  C15 UNL     1      25.905   0.045  53.095  1.00  0.00     0.325 C 
HETATM    3  O1  UNL     1      25.480  -1.155  52.970  1.00  0.00    -0.247 OA
HETATM    4  N2  UNL     1      27.288  -0.084  53.284  1.00  0.00    -0.306 N 
HETATM    5  C16 UNL     1      28.262   0.924  53.484  1.00  0.00     0.096 A 
HETATM    6  C17 UNL     1      29.563   0.876  53.634  1.00  0.00     0.017 A 
HETATM    7  C18 UNL     1      30.152  -0.463  53.592  1.00  0.00    -0.001 A 
HETATM    8  C19 UNL     1      29.299  -1.442  53.414  1.00  0.00    -0.007 A 
HETATM    9  C20 UNL     1      27.865  -1.418  53.251  1.00  0.00     0.160 A 
ENDROOT
BRANCH   1  10
HETATM   10  C7  UNL     1      25.091   2.260  53.134  1.00  0.00     0.169 C 
BRANCH  10  11
HETATM   11  C6  UNL     1      25.312   2.866  51.818  1.00  0.00    -0.006 A 
HETATM   12  C5  UNL     1      26.252   2.573  50.863  1.00  0.00     0.012 A 
HETATM   13  C4  UNL     1      26.450   3.240  49.681  1.00  0.00     0.001 A 
HETATM   14  C3  UNL     1      25.660   4.317  49.363  1.00  0.00     0.009 A 
HETATM   15  C2  UNL     1      24.676   4.709  50.246  1.00  0.00    -0.028 A 
HETATM   16  C1  UNL     1      23.764   5.870  49.954  1.00  0.00     0.051 C 
HETATM   17  C21 UNL     1      24.561   3.972  51.401  1.00  0.00     0.079 A 
BRANCH  17  18
HETATM   18  O2  UNL     1      23.527   4.424  52.248  1.00  0.00    -0.360 OA
HETATM   19  H21 UNL     1      22.655   3.917  52.334  1.00  0.00     0.217 HD
ENDBRANCH  17  18
ENDBRANCH  10  11
ENDBRANCH   1  10
BRANCH   1  20
HETATM   20  C8  UNL     1      23.426   0.282  52.693  1.00  0.00     0.166 C 
BRANCH  20  21
HETATM   21  C9  UNL     1      22.447   1.068  51.979  1.00  0.00    -0.040 A 
HETATM   22  C10 UNL     1      22.304   1.310  50.613  1.00  0.00     0.012 A 
HETATM   23  C11 UNL     1      21.346   2.067  50.016  1.00  0.00     0.043 A 
HETATM   24  C12 UNL     1      20.374   2.698  50.758  1.00  0.00     0.116 A 
HETATM   25  F1  UNL     1      19.466   3.427  50.090  1.00  0.00    -0.206 F 
HETATM   26  C13 UNL     1      20.443   2.507  52.137  1.00  0.00     0.043 A 
HETATM   27  C14 UNL     1      21.458   1.716  52.673  1.00  0.00     0.012 A 
ENDBRANCH  20  21
ENDBRANCH   1  20
TORSDOF 5
ENDMDL
MODEL 4
REMARK VINA RESULT:      -8.2      2.787      5.806
REMARK  5 active torsions:
REMARK  status: ('A' for Active; 'I' for Inactive)
REMARK    1  A    between atoms: C6_6  and  C7_7 
REMARK    2  A    between atoms: C7_7  and  N1_8 
REMARK    3  A    between atoms: N1_8  and  C8_9 
REMARK       I    between atoms: N1_8  and  C15_17 
REMARK    4  A    between atoms: C8_9  and  C9_10 
REMARK       I    between atoms: C15_17  and  N2_19 
REMARK    5  A    between atoms: C21_25  and  O2_26 
ROOT
HETATM    1  N1  UNL     1      24.230   2.060  52.269  1.00  0.00    -0.325 N 
HETATM    2  C15 UNL     1      23.847   3.016  51.261  1.00  0.00     0.325 C 
HETATM    3  O1  UNL     1      24.215   4.139  51.751  1.00  0.00    -0.247 OA
HETATM    4  N2  UNL     1      23.279   3.338  50.021  1.00  0.00    -0.306 N 
HETATM    5  C16 UNL     1      22.700   2.482  49.053  1.00  0.00     0.096 A 
HETATM    6  C17 UNL     1      22.185   2.709  47.870  1.00  0.00     0.017 A 
HETATM    7  C18 UNL     1      22.195   4.108  47.437  1.00  0.00    -0.001 A 
HETATM    8  C19 UNL     1      22.715   4.953  48.294  1.00  0.00    -0.007 A 
HETATM    9  C20 UNL     1      23.284   4.730  49.602  1.00  0.00     0.160 A 
ENDROOT
BRANCH   1  10
HETATM   10  C7  UNL     1      23.813   0.722  51.814  1.00  0.00     0.169 C 
BRANCH  10  11
HETATM   11  C6  UNL     1      22.949   0.108  52.826  1.00  0.00    -0.006 A 
HETATM   12  C5  UNL     1      23.283  -0.539  53.989  1.00  0.00     0.012 A 
HETATM   13  C4  UNL     1      22.419  -1.163  54.852  1.00  0.00     0.001 A 
HETATM   14  C3  UNL     1      21.073  -1.176  54.582  1.00  0.00     0.009 A 
HETATM   15  C2  UNL     1      20.613  -0.555  53.439  1.00  0.00    -0.028 A 
HETATM   16  C1  UNL     1      19.150  -0.517  53.090  1.00  0.00     0.051 C 
HETATM   17  C21 UNL     1      21.562   0.040  52.643  1.00  0.00     0.079 A 
BRANCH  17  18
HETATM   18  O2  UNL     1      21.018   0.663  51.500  1.00  0.00    -0.360 OA
HETATM   19  H21 UNL     1      20.091   0.434  51.164  1.00  0.00     0.217 HD
ENDBRANCH  17  18
ENDBRANCH  10  11
ENDBRANCH   1  10
BRANCH   1  20
HETATM   20  C8  UNL     1      24.923   2.430  53.466  1.00  0.00     0.166 C 
BRANCH  20  21
HETATM   21  C9  UNL     1      26.220   1.856  53.738  1.00  0.00    -0.040 A 
HETATM   22  C10 UNL     1      26.567   0.694  54.427  1.00  0.00     0.012 A 
HETATM   23  C11 UNL     1      27.822   0.218  54.641  1.00  0.00     0.043 A 
HETATM   24  C12 UNL     1      28.927   0.885  54.162  1.00  0.00     0.116 A 
HETATM   25  F1  UNL     1      30.129   0.347  54.418  1.00  0.00    -0.206 F 
HETATM   26  C13 UNL     1      28.668   2.060  53.457  1.00  0.00     0.043 A 
HETATM   27  C14 UNL     1      27.351   2.482  53.281  1.00  0.00     0.012 A 
ENDBRANCH  20  21
ENDBRANCH   1  20
TORSDOF 5
ENDMDL
MODEL 5
REMARK VINA RESULT:      -8.2      3.433      6.461
REMARK  5 active torsions:
REMARK  status: ('A' for Active; 'I' for Inactive)
REMARK    1  A    between atoms: C6_6  and  C7_7 
REMARK    2  A    between atoms: C7_7  and  N1_8 
REMARK    3  A    between atoms: N1_8  and  C8_9 
REMARK       I    between atoms: N1_8  and  C15_17 
REMARK    4  A    between atoms: C8_9  and  C9_10 
REMARK       I    between atoms: C15_17  and  N2_19 
REMARK    5  A    between atoms: C21_25  and  O2_26 
ROOT
HETATM    1  N1  UNL     1      25.657   3.153  50.566  1.00  0.00    -0.325 N 
HETATM    2  C15 UNL     1      26.096   4.325  49.850  1.00  0.00     0.325 C 
HETATM    3  O1  UNL     1      27.195   3.957  49.310  1.00  0.00    -0.247 OA
HETATM    4  N2  UNL     1      25.927   5.656  49.446  1.00  0.00    -0.306 N 
HETATM    5  C16 UNL     1      24.883   6.560  49.756  1.00  0.00     0.096 A 
HETATM    6  C17 UNL     1      24.648   7.796  49.391  1.00  0.00     0.017 A 
HETATM    7  C18 UNL     1      25.639   8.384  48.488  1.00  0.00    -0.001 A 
HETATM    8  C19 UNL     1      26.637   7.597  48.166  1.00  0.00    -0.007 A 
HETATM    9  C20 UNL     1      26.921   6.236  48.557  1.00  0.00     0.160 A 
ENDROOT
BRANCH   1  10
HETATM   10  C7  UNL     1      24.402   3.484  51.261  1.00  0.00     0.169 C 
BRANCH  10  11
HETATM   11  C6  UNL     1      23.417   2.425  51.025  1.00  0.00    -0.006 A 
HETATM   12  C5  UNL     1      22.658   2.165  49.912  1.00  0.00     0.012 A 
HETATM   13  C4  UNL     1      21.693   1.198  49.791  1.00  0.00     0.001 A 
HETATM   14  C3  UNL     1      21.412   0.375  50.854  1.00  0.00     0.009 A 
HETATM   15  C2  UNL     1      22.112   0.539  52.030  1.00  0.00    -0.028 A 
HETATM   16  C1  UNL     1      21.866  -0.338  53.229  1.00  0.00     0.051 C 
HETATM   17  C21 UNL     1      23.057   1.536  52.046  1.00  0.00     0.079 A 
BRANCH  17  18
HETATM   18  O2  UNL     1      23.740   1.637  53.277  1.00  0.00    -0.360 OA
HETATM   19  H21 UNL     1      23.831   0.842  53.897  1.00  0.00     0.217 HD
ENDBRANCH  17  18
ENDBRANCH  10  11
ENDBRANCH   1  10
BRANCH   1  20
HETATM   20  C8  UNL     1      26.366   1.910  50.527  1.00  0.00     0.166 C 
BRANCH  20  21
HETATM   21  C9  UNL     1      26.886   1.353  51.753  1.00  0.00    -0.040 A 
HETATM   22  C10 UNL     1      26.776   0.066  52.280  1.00  0.00     0.012 A 
HETATM   23  C11 UNL     1      27.300  -0.383  53.451  1.00  0.00     0.043 A 
HETATM   24  C12 UNL     1      28.032   0.449  54.267  1.00  0.00     0.116 A 
HETATM   25  F1  UNL     1      28.513  -0.073  55.406  1.00  0.00    -0.206 F 
HETATM   26  C13 UNL     1      28.193   1.758  53.813  1.00  0.00     0.043 A 
HETATM   27  C14 UNL     1      27.623   2.141  52.600  1.00  0.00     0.012 A 
ENDBRANCH  20  21
ENDBRANCH   1  20
TORSDOF 5
ENDMDL
MODEL 6
REMARK VINA RESULT:      -7.7      8.037     10.801
REMARK  5 active torsions:
REMARK  status: ('A' for Active; 'I' for Inactive)
REMARK    1  A    between atoms: C6_6  and  C7_7 
REMARK    2  A    between atoms: C7_7  and  N1_8 
REMARK    3  A    between atoms: N1_8  and  C8_9 
REMARK       I    between atoms: N1_8  and  C15_17 
REMARK    4  A    between atoms: C8_9  and  C9_10 
REMARK       I    between atoms: C15_17  and  N2_19 
REMARK    5  A    between atoms: C21_25  and  O2_26 
ROOT
HETATM    1  N1  UNL     1      30.423   7.199  48.491  1.00  0.00    -0.325 N 
HETATM    2  C15 UNL     1      30.547   8.608  48.767  1.00  0.00     0.325 C 
HETATM    3  O1  UNL     1      31.465   8.665  49.655  1.00  0.00    -0.247 OA
HETATM    4  N2  UNL     1      30.173   9.942  48.554  1.00  0.00    -0.306 N 
HETATM    5  C16 UNL     1      29.192  10.468  47.679  1.00  0.00     0.096 A 
HETATM    6  C17 UNL     1      28.817  11.694  47.409  1.00  0.00     0.017 A 
HETATM    7  C18 UNL     1      29.530  12.745  48.136  1.00  0.00    -0.001 A 
HETATM    8  C19 UNL     1      30.451  12.321  48.968  1.00  0.00    -0.007 A 
HETATM    9  C20 UNL     1      30.880  10.980  49.287  1.00  0.00     0.160 A 
ENDROOT
BRANCH   1  10
HETATM   10  C7  UNL     1      29.354   7.018  47.494  1.00  0.00     0.169 C 
BRANCH  10  11
HETATM   11  C6  UNL     1      28.236   6.291  48.101  1.00  0.00    -0.006 A 
HETATM   12  C5  UNL     1      28.172   4.996  48.549  1.00  0.00     0.012 A 
HETATM   13  C4  UNL     1      27.061   4.355  49.036  1.00  0.00     0.001 A 
HETATM   14  C3  UNL     1      25.863   5.023  49.108  1.00  0.00     0.009 A 
HETATM   15  C2  UNL     1      25.801   6.334  48.687  1.00  0.00    -0.028 A 
HETATM   16  C1  UNL     1      24.526   7.130  48.753  1.00  0.00     0.051 C 
HETATM   17  C21 UNL     1      26.971   6.882  48.217  1.00  0.00     0.079 A 
BRANCH  17  18
HETATM   18  O2  UNL     1      26.834   8.228  47.816  1.00  0.00    -0.360 OA
HETATM   19  H21 UNL     1      26.411   8.919  48.421  1.00  0.00     0.217 HD
ENDBRANCH  17  18
ENDBRANCH  10  11
ENDBRANCH   1  10
BRANCH   1  20
HETATM   20  C8  UNL     1      31.261   6.212  49.103  1.00  0.00     0.166 C 
BRANCH  20  21
HETATM   21  C9  UNL     1      32.070   5.355  48.269  1.00  0.00    -0.040 A 
HETATM   22  C10 UNL     1      31.699   4.349  47.378  1.00  0.00     0.012 A 
HETATM   23  C11 UNL     1      32.528   3.582  46.623  1.00  0.00     0.043 A 
HETATM   24  C12 UNL     1      33.894   3.746  46.678  1.00  0.00     0.116 A 
HETATM   25  F1  UNL     1      34.641   2.946  45.901  1.00  0.00    -0.206 F 
HETATM   26  C13 UNL     1      34.352   4.735  47.546  1.00  0.00     0.043 A 
HETATM   27  C14 UNL     1      33.436   5.480  48.288  1.00  0.00     0.012 A 
ENDBRANCH  20  21
ENDBRANCH   1  20
TORSDOF 5
ENDMDL
MODEL 7
REMARK VINA RESULT:      -7.7      9.160     11.172
REMARK  5 active torsions:
REMARK  status: ('A' for Active; 'I' for Inactive)
REMARK    1  A    between atoms: C6_6  and  C7_7 
REMARK    2  A    between atoms: C7_7  and  N1_8 
REMARK    3  A    between atoms: N1_8  and  C8_9 
REMARK       I    between atoms: N1_8  and  C15_17 
REMARK    4  A    between atoms: C8_9  and  C9_10 
REMARK       I    between atoms: C15_17  and  N2_19 
REMARK    5  A    between atoms: C21_25  and  O2_26 
ROOT
HETATM    1  N1  UNL     1      30.496   6.735  48.688  1.00  0.00    -0.325 N 
HETATM    2  C15 UNL     1      31.239   5.592  48.219  1.00  0.00     0.325 C 
HETATM    3  O1  UNL     1      30.345   4.845  47.690  1.00  0.00    -0.247 OA
HETATM    4  N2  UNL     1      32.439   4.888  48.047  1.00  0.00    -0.306 N 
HETATM    5  C16 UNL     1      33.749   5.243  48.448  1.00  0.00     0.096 A 
HETATM    6  C17 UNL     1      34.909   4.654  48.292  1.00  0.00     0.017 A 
HETATM    7  C18 UNL     1      34.877   3.382  47.571  1.00  0.00    -0.001 A 
HETATM    8  C19 UNL     1      33.688   2.994  47.176  1.00  0.00    -0.007 A 
HETATM    9  C20 UNL     1      32.397   3.620  47.337  1.00  0.00     0.160 A 
ENDROOT
BRANCH   1  10
HETATM   10  C7  UNL     1      31.438   7.652  49.353  1.00  0.00     0.169 C 
BRANCH  10  11
HETATM   11  C6  UNL     1      31.553   8.886  48.573  1.00  0.00    -0.006 A 
HETATM   12  C5  UNL     1      32.256   9.135  47.422  1.00  0.00     0.012 A 
HETATM   13  C4  UNL     1      32.382  10.345  46.788  1.00  0.00     0.001 A 
HETATM   14  C3  UNL     1      31.765  11.457  47.307  1.00  0.00     0.009 A 
HETATM   15  C2  UNL     1      31.025  11.332  48.464  1.00  0.00    -0.028 A 
HETATM   16  C1  UNL     1      30.310  12.505  49.078  1.00  0.00     0.051 C 
HETATM   17  C21 UNL     1      30.963  10.076  49.018  1.00  0.00     0.079 A 
BRANCH  17  18
HETATM   18  O2  UNL     1      30.181  10.024  50.192  1.00  0.00    -0.360 OA
HETATM   19  H21 UNL     1      30.301   9.286  50.874  1.00  0.00     0.217 HD
ENDBRANCH  17  18
ENDBRANCH  10  11
ENDBRANCH   1  10
BRANCH   1  20
HETATM   20  C8  UNL     1      29.089   6.887  48.473  1.00  0.00     0.166 C 
BRANCH  20  21
HETATM   21  C9  UNL     1      28.621   7.865  47.520  1.00  0.00    -0.040 A 
HETATM   22  C10 UNL     1      27.779   8.963  47.691  1.00  0.00     0.012 A 
HETATM   23  C11 UNL     1      27.384   9.845  46.735  1.00  0.00     0.043 A 
HETATM   24  C12 UNL     1      27.811   9.718  45.432  1.00  0.00     0.116 A 
HETATM   25  F1  UNL     1      27.373  10.630  44.550  1.00  0.00    -0.206 F 
HETATM   26  C13 UNL     1      28.660   8.643  45.173  1.00  0.00     0.043 A 
HETATM   27  C14 UNL     1      29.019   7.783  46.210  1.00  0.00     0.012 A 
ENDBRANCH  20  21
ENDBRANCH   1  20
TORSDOF 5
ENDMDL
MODEL 8
REMARK VINA RESULT:      -7.7      8.045      9.908
REMARK  5 active torsions:
REMARK  status: ('A' for Active; 'I' for Inactive)
REMARK    1  A    between atoms: C6_6  and  C7_7 
REMARK    2  A    between atoms: C7_7  and  N1_8 
REMARK    3  A    between atoms: N1_8  and  C8_9 
REMARK       I    between atoms: N1_8  and  C15_17 
REMARK    4  A    between atoms: C8_9  and  C9_10 
REMARK       I    between atoms: C15_17  and  N2_19 
REMARK    5  A    between atoms: C21_25  and  O2_26 
ROOT
HETATM    1  N1  UNL     1      30.422   7.926  48.367  1.00  0.00    -0.325 N 
HETATM    2  C15 UNL     1      31.706   7.271  48.389  1.00  0.00     0.325 C 
HETATM    3  O1  UNL     1      32.288   7.776  49.410  1.00  0.00    -0.247 OA
HETATM    4  N2  UNL     1      32.635   6.363  47.862  1.00  0.00    -0.306 N 
HETATM    5  C16 UNL     1      32.524   5.528  46.725  1.00  0.00     0.096 A 
HETATM    6  C17 UNL     1      33.332   4.640  46.199  1.00  0.00     0.017 A 
HETATM    7  C18 UNL     1      34.604   4.456  46.899  1.00  0.00    -0.001 A 
HETATM    8  C19 UNL     1      34.770   5.206  47.961  1.00  0.00    -0.007 A 
HETATM    9  C20 UNL     1      33.900   6.192  48.558  1.00  0.00     0.160 A 
ENDROOT
BRANCH   1  10
HETATM   10  C7  UNL     1      29.678   7.436  47.195  1.00  0.00     0.169 C 
BRANCH  10  11
HETATM   11  C6  UNL     1      28.323   7.052  47.600  1.00  0.00    -0.006 A 
HETATM   12  C5  UNL     1      27.152   7.763  47.529  1.00  0.00     0.012 A 
HETATM   13  C4  UNL     1      25.928   7.366  48.005  1.00  0.00     0.001 A 
HETATM   14  C3  UNL     1      25.796   6.147  48.624  1.00  0.00     0.009 A 
HETATM   15  C2  UNL     1      26.906   5.340  48.754  1.00  0.00    -0.028 A 
HETATM   16  C1  UNL     1      26.830   3.986  49.407  1.00  0.00     0.051 C 
HETATM   17  C21 UNL     1      28.083   5.831  48.243  1.00  0.00     0.079 A 
BRANCH  17  18
HETATM   18  O2  UNL     1      29.172   4.947  48.403  1.00  0.00    -0.360 OA
HETATM   19  H21 UNL     1      29.274   4.380  49.235  1.00  0.00     0.217 HD
ENDBRANCH  17  18
ENDBRANCH  10  11
ENDBRANCH   1  10
BRANCH   1  20
HETATM   20  C8  UNL     1      30.010   8.859  49.373  1.00  0.00     0.166 C 
BRANCH  20  21
HETATM   21  C9  UNL     1      29.707  10.219  48.994  1.00  0.00    -0.040 A 
HETATM   22  C10 UNL     1      28.482  10.877  48.891  1.00  0.00     0.012 A 
HETATM   23  C11 UNL     1      28.280  12.170  48.526  1.00  0.00     0.043 A 
HETATM   24  C12 UNL     1      29.337  12.993  48.209  1.00  0.00     0.116 A 
HETATM   25  F1  UNL     1      29.050  14.256  47.858  1.00  0.00    -0.206 F 
HETATM   26  C13 UNL     1      30.602  12.413  48.288  1.00  0.00     0.043 A 
HETATM   27  C14 UNL     1      30.726  11.078  48.670  1.00  0.00     0.012 A 
ENDBRANCH  20  21
ENDBRANCH   1  20
TORSDOF 5
ENDMDL
MODEL 9
REMARK VINA RESULT:      -7.6      8.853     10.461
REMARK  5 active torsions:
REMARK  status: ('A' for Active; 'I' for Inactive)
REMARK    1  A    between atoms: C6_6  and  C7_7 
REMARK    2  A    between atoms: C7_7  and  N1_8 
REMARK    3  A    between atoms: N1_8  and  C8_9 
REMARK       I    between atoms: N1_8  and  C15_17 
REMARK    4  A    between atoms: C8_9  and  C9_10 
REMARK       I    between atoms: C15_17  and  N2_19 
REMARK    5  A    between atoms: C21_25  and  O2_26 
ROOT
HETATM    1  N1  UNL     1      31.357   6.881  48.921  1.00  0.00    -0.325 N 
HETATM    2  C15 UNL     1      32.489   6.128  48.440  1.00  0.00     0.325 C 
HETATM    3  O1  UNL     1      33.490   6.873  48.718  1.00  0.00    -0.247 OA
HETATM    4  N2  UNL     1      33.045   4.996  47.828  1.00  0.00    -0.306 N 
HETATM    5  C16 UNL     1      32.397   3.849  47.311  1.00  0.00     0.096 A 
HETATM    6  C17 UNL     1      32.853   2.751  46.759  1.00  0.00     0.017 A 
HETATM    7  C18 UNL     1      34.309   2.665  46.641  1.00  0.00    -0.001 A 
HETATM    8  C19 UNL     1      34.969   3.702  47.099  1.00  0.00    -0.007 A 
HETATM    9  C20 UNL     1      34.492   4.922  47.705  1.00  0.00     0.160 A 
ENDROOT
BRANCH   1  10
HETATM   10  C7  UNL     1      30.135   6.117  48.614  1.00  0.00     0.169 C 
BRANCH  10  11
HETATM   11  C6  UNL     1      29.295   6.887  47.694  1.00  0.00    -0.006 A 
HETATM   12  C5  UNL     1      29.598   7.422  46.467  1.00  0.00     0.012 A 
HETATM   13  C4  UNL     1      28.779   8.203  45.694  1.00  0.00     0.001 A 
HETATM   14  C3  UNL     1      27.517   8.518  46.134  1.00  0.00     0.009 A 
HETATM   15  C2  UNL     1      27.096   8.036  47.356  1.00  0.00    -0.028 A 
HETATM   16  C1  UNL     1      25.720   8.328  47.892  1.00  0.00     0.051 C 
HETATM   17  C21 UNL     1      27.994   7.262  48.051  1.00  0.00     0.079 A 
BRANCH  17  18
HETATM   18  O2  UNL     1      27.489   6.796  49.284  1.00  0.00    -0.360 OA
HETATM   19  H21 UNL     1      27.934   7.036  50.161  1.00  0.00     0.217 HD
ENDBRANCH  17  18
ENDBRANCH  10  11
ENDBRANCH   1  10
BRANCH   1  20
HETATM   20  C8  UNL     1      31.492   8.135  49.598  1.00  0.00     0.166 C 
BRANCH  20  21
HETATM   21  C9  UNL     1      31.182   9.356  48.894  1.00  0.00    -0.040 A 
HETATM   22  C10 UNL     1      31.854   9.993  47.850  1.00  0.00     0.012 A 
HETATM   23  C11 UNL     1      31.493  11.150  47.235  1.00  0.00     0.043 A 
HETATM   24  C12 UNL     1      30.360  11.834  47.615  1.00  0.00     0.116 A 
HETATM   25  F1  UNL     1      30.076  12.968  46.956  1.00  0.00    -0.206 F 
HETATM   26  C13 UNL     1      29.626  11.263  48.654  1.00  0.00     0.043 A 
HETATM   27  C14 UNL     1      30.064  10.073  49.234  1.00  0.00     0.012 A 
ENDBRANCH  20  21
ENDBRANCH   1  20
TORSDOF 5
ENDMDL
