MODEL 1
REMARK VINA RESULT:      -8.6      0.000      0.000
REMARK  0 active torsions:
REMARK  status: ('A' for Active; 'I' for Inactive)
ROOT
HETATM    1 BR1  UNL     1      25.402   8.673  47.834  1.00  0.00    -0.050 Br
HETATM    2  C1  UNL     1      26.482   7.136  48.230  1.00  0.00     0.019 A 
HETATM    3  C2  UNL     1      27.758   7.219  47.738  1.00  0.00     0.020 A 
HETATM    4  C3  UNL     1      28.716   6.256  47.888  1.00  0.00     0.003 A 
HETATM    5  C4  UNL     1      28.211   5.167  48.619  1.00  0.00     0.024 A 
HETATM    6  C5  UNL     1      26.917   5.031  49.144  1.00  0.00     0.022 A 
HETATM    7  C6  UNL     1      26.002   6.065  48.944  1.00  0.00    -0.014 A 
HETATM    8  C7  UNL     1      24.602   6.248  49.351  1.00  0.00     0.088 C 
HETATM    9  C8  UNL     1      24.200   5.549  50.596  1.00  0.00     0.088 C 
HETATM   10  N1  UNL     1      22.973   5.284  50.703  1.00  0.00    -0.301 NA
HETATM   11  C9  UNL     1      22.318   4.611  51.798  1.00  0.00     0.183 C 
HETATM   12  C10 UNL     1      22.661   3.141  51.601  1.00  0.00    -0.046 C 
HETATM   13  C11 UNL     1      22.784   2.282  52.620  1.00  0.00    -0.014 C 
HETATM   14  C12 UNL     1      23.665   1.063  52.510  1.00  0.00     0.089 C 
HETATM   15  C13 UNL     1      25.049   1.571  52.152  1.00  0.00     0.069 A 
HETATM   16  N2  UNL     1      25.986   1.190  53.036  1.00  0.00    -0.244 NA
HETATM   17  C14 UNL     1      27.229   1.667  52.844  1.00  0.00     0.235 A 
HETATM   18  N3  UNL     1      27.542   2.489  51.823  1.00  0.00    -0.227 NA
HETATM   19  C15 UNL     1      26.634   2.913  50.889  1.00  0.00     0.137 A 
HETATM   20  C16 UNL     1      25.318   2.425  51.062  1.00  0.00     0.094 A 
HETATM   21  N4  UNL     1      24.351   2.806  50.038  1.00  0.00    -0.382 N 
HETATM   22  C17 UNL     1      22.878   2.778  50.138  1.00  0.00     0.155 C 
HETATM   23  N5  UNL     1      26.749   3.795  49.801  1.00  0.00    -0.241 NA
HETATM   24  H13 UNL     1      24.766   3.130  49.136  1.00  0.00     0.160 HD
HETATM   25  H16 UNL     1      26.862   4.499  50.599  1.00  0.00     0.135 HD
ENDROOT
TORSDOF 0
ENDMDL
MODEL 2
REMARK VINA RESULT:      -8.5      3.604      6.810
REMARK  0 active torsions:
REMARK  status: ('A' for Active; 'I' for Inactive)
ROOT
HETATM    1 BR1  UNL     1      18.099   0.446  51.179  1.00  0.00    -0.050 Br
HETATM    2  C1  UNL     1      19.539  -0.111  52.319  1.00  0.00     0.019 A 
HETATM    3  C2  UNL     1      19.172  -1.042  53.254  1.00  0.00     0.020 A 
HETATM    4  C3  UNL     1      20.014  -1.594  54.179  1.00  0.00     0.003 A 
HETATM    5  C4  UNL     1      21.312  -1.073  54.036  1.00  0.00     0.024 A 
HETATM    6  C5  UNL     1      21.741  -0.121  53.099  1.00  0.00     0.022 A 
HETATM    7  C6  UNL     1      20.812   0.388  52.191  1.00  0.00    -0.014 A 
HETATM    8  C7  UNL     1      20.921   1.368  51.101  1.00  0.00     0.088 C 
HETATM    9  C8  UNL     1      22.254   1.469  50.460  1.00  0.00     0.088 C 
HETATM   10  N1  UNL     1      22.512   2.570  49.903  1.00  0.00    -0.301 NA
HETATM   11  C9  UNL     1      23.726   2.935  49.216  1.00  0.00     0.183 C 
HETATM   12  C10 UNL     1      24.724   3.218  50.330  1.00  0.00    -0.046 C 
HETATM   13  C11 UNL     1      26.040   3.010  50.195  1.00  0.00    -0.014 C 
HETATM   14  C12 UNL     1      26.908   2.712  51.391  1.00  0.00     0.089 C 
HETATM   15  C13 UNL     1      26.304   1.491  52.060  1.00  0.00     0.069 A 
HETATM   16  N2  UNL     1      27.177   0.476  52.171  1.00  0.00    -0.244 NA
HETATM   17  C14 UNL     1      26.702  -0.677  52.676  1.00  0.00     0.235 A 
HETATM   18  N3  UNL     1      25.419  -0.829  53.056  1.00  0.00    -0.227 NA
HETATM   19  C15 UNL     1      24.481   0.165  52.970  1.00  0.00     0.137 A 
HETATM   20  C16 UNL     1      24.952   1.393  52.447  1.00  0.00     0.094 A 
HETATM   21  N4  UNL     1      23.988   2.488  52.412  1.00  0.00    -0.382 N 
HETATM   22  C17 UNL     1      24.058   3.722  51.603  1.00  0.00     0.155 C 
HETATM   23  N5  UNL     1      23.107   0.189  53.260  1.00  0.00    -0.241 NA
HETATM   24  H13 UNL     1      23.163   2.372  53.041  1.00  0.00     0.160 HD
HETATM   25  H16 UNL     1      23.086  -0.456  52.407  1.00  0.00     0.135 HD
ENDROOT
TORSDOF 0
ENDMDL
MODEL 3
REMARK VINA RESULT:      -8.4      3.377      7.169
REMARK  0 active torsions:
REMARK  status: ('A' for Active; 'I' for Inactive)
ROOT
HETATM    1 BR1  UNL     1      23.504   6.997  48.361  1.00  0.00    -0.050 Br
HETATM    2  C1  UNL     1      25.020   5.875  48.715  1.00  0.00     0.019 A 
HETATM    3  C2  UNL     1      24.686   4.588  49.048  1.00  0.00     0.020 A 
HETATM    4  C3  UNL     1      25.583   3.601  49.343  1.00  0.00     0.003 A 
HETATM    5  C4  UNL     1      26.899   4.088  49.258  1.00  0.00     0.024 A 
HETATM    6  C5  UNL     1      27.295   5.392  48.924  1.00  0.00     0.022 A 
HETATM    7  C6  UNL     1      26.311   6.337  48.636  1.00  0.00    -0.014 A 
HETATM    8  C7  UNL     1      26.373   7.754  48.253  1.00  0.00     0.088 C 
HETATM    9  C8  UNL     1      27.598   8.168  47.525  1.00  0.00     0.088 C 
HETATM   10  N1  UNL     1      27.902   9.388  47.616  1.00  0.00    -0.301 NA
HETATM   11  C9  UNL     1      29.034  10.050  47.017  1.00  0.00     0.183 C 
HETATM   12  C10 UNL     1      30.215   9.649  47.889  1.00  0.00    -0.046 C 
HETATM   13  C11 UNL     1      31.461   9.526  47.412  1.00  0.00    -0.014 C 
HETATM   14  C12 UNL     1      32.456   8.598  48.063  1.00  0.00     0.089 C 
HETATM   15  C13 UNL     1      31.814   7.223  48.066  1.00  0.00     0.069 A 
HETATM   16  N2  UNL     1      32.563   6.300  47.439  1.00  0.00    -0.244 NA
HETATM   17  C14 UNL     1      32.031   5.070  47.320  1.00  0.00     0.235 A 
HETATM   18  N3  UNL     1      30.811   4.757  47.796  1.00  0.00    -0.227 NA
HETATM   19  C15 UNL     1      30.000   5.650  48.445  1.00  0.00     0.137 A 
HETATM   20  C16 UNL     1      30.533   6.952  48.590  1.00  0.00     0.094 A 
HETATM   21  N4  UNL     1      29.717   7.901  49.340  1.00  0.00    -0.382 N 
HETATM   22  C17 UNL     1      29.815   9.375  49.333  1.00  0.00     0.155 C 
HETATM   23  N5  UNL     1      28.698   5.535  48.959  1.00  0.00    -0.241 NA
HETATM   24  H13 UNL     1      28.987   7.471  49.951  1.00  0.00     0.160 HD
HETATM   25  H16 UNL     1      28.471   5.472  47.916  1.00  0.00     0.135 HD
ENDROOT
TORSDOF 0
ENDMDL
MODEL 4
REMARK VINA RESULT:      -8.4      1.990      4.180
REMARK  0 active torsions:
REMARK  status: ('A' for Active; 'I' for Inactive)
ROOT
HETATM    1 BR1  UNL     1      27.638   5.673  48.558  1.00  0.00    -0.050 Br
HETATM    2  C1  UNL     1      25.803   5.343  49.017  1.00  0.00     0.019 A 
HETATM    3  C2  UNL     1      24.921   6.182  48.389  1.00  0.00     0.020 A 
HETATM    4  C3  UNL     1      23.563   6.148  48.549  1.00  0.00     0.003 A 
HETATM    5  C4  UNL     1      23.199   5.132  49.449  1.00  0.00     0.024 A 
HETATM    6  C5  UNL     1      24.059   4.248  50.118  1.00  0.00     0.022 A 
HETATM    7  C6  UNL     1      25.432   4.354  49.894  1.00  0.00    -0.014 A 
HETATM    8  C7  UNL     1      26.585   3.605  50.412  1.00  0.00     0.088 C 
HETATM    9  C8  UNL     1      26.316   2.198  50.797  1.00  0.00     0.088 C 
HETATM   10  N1  UNL     1      27.096   1.707  51.656  1.00  0.00    -0.301 NA
HETATM   11  C9  UNL     1      27.058   0.375  52.207  1.00  0.00     0.183 C 
HETATM   12  C10 UNL     1      25.912   0.409  53.208  1.00  0.00    -0.046 C 
HETATM   13  C11 UNL     1      25.164  -0.664  53.491  1.00  0.00    -0.014 C 
HETATM   14  C12 UNL     1      23.741  -0.516  53.971  1.00  0.00     0.089 C 
HETATM   15  C13 UNL     1      23.019   0.297  52.913  1.00  0.00     0.069 A 
HETATM   16  N2  UNL     1      21.945  -0.338  52.414  1.00  0.00    -0.244 NA
HETATM   17  C14 UNL     1      21.294   0.274  51.409  1.00  0.00     0.235 A 
HETATM   18  N3  UNL     1      21.680   1.465  50.912  1.00  0.00    -0.227 NA
HETATM   19  C15 UNL     1      22.763   2.163  51.377  1.00  0.00     0.137 A 
HETATM   20  C16 UNL     1      23.467   1.547  52.437  1.00  0.00     0.094 A 
HETATM   21  N4  UNL     1      24.581   2.305  52.996  1.00  0.00    -0.382 N 
HETATM   22  C17 UNL     1      25.700   1.791  53.813  1.00  0.00     0.155 C 
HETATM   23  N5  UNL     1      23.349   3.371  50.964  1.00  0.00    -0.241 NA
HETATM   24  H13 UNL     1      24.568   3.328  52.789  1.00  0.00     0.160 HD
HETATM   25  H16 UNL     1      23.596   2.769  50.116  1.00  0.00     0.135 HD
ENDROOT
TORSDOF 0
ENDMDL
MODEL 5
REMARK VINA RESULT:      -8.3      4.008      6.327
REMARK  0 active torsions:
REMARK  status: ('A' for Active; 'I' for Inactive)
ROOT
HETATM    1 BR1  UNL     1      27.580  -0.010  54.288  1.00  0.00    -0.050 Br
HETATM    2  C1  UNL     1      26.572   1.032  53.030  1.00  0.00     0.019 A 
HETATM    3  C2  UNL     1      27.341   1.876  52.274  1.00  0.00     0.020 A 
HETATM    4  C3  UNL     1      26.860   2.719  51.311  1.00  0.00     0.003 A 
HETATM    5  C4  UNL     1      25.464   2.598  51.204  1.00  0.00     0.024 A 
HETATM    6  C5  UNL     1      24.630   1.753  51.951  1.00  0.00     0.022 A 
HETATM    7  C6  UNL     1      25.208   0.925  52.914  1.00  0.00    -0.014 A 
HETATM    8  C7  UNL     1      24.644  -0.062  53.845  1.00  0.00     0.088 C 
HETATM    9  C8  UNL     1      23.393  -0.722  53.400  1.00  0.00     0.088 C 
HETATM   10  N1  UNL     1      22.654  -1.170  54.318  1.00  0.00    -0.301 NA
HETATM   11  C9  UNL     1      21.389  -1.846  54.167  1.00  0.00     0.183 C 
HETATM   12  C10 UNL     1      20.398  -0.734  53.855  1.00  0.00    -0.046 C 
HETATM   13  C11 UNL     1      19.313  -0.922  53.093  1.00  0.00    -0.014 C 
HETATM   14  C12 UNL     1      18.701   0.217  52.315  1.00  0.00     0.089 C 
HETATM   15  C13 UNL     1      19.805   0.772  51.436  1.00  0.00     0.069 A 
HETATM   16  N2  UNL     1      19.485   0.758  50.131  1.00  0.00    -0.244 NA
HETATM   17  C14 UNL     1      20.440   1.154  49.270  1.00  0.00     0.235 A 
HETATM   18  N3  UNL     1      21.663   1.548  49.673  1.00  0.00    -0.227 NA
HETATM   19  C15 UNL     1      22.051   1.586  50.986  1.00  0.00     0.137 A 
HETATM   20  C16 UNL     1      21.066   1.180  51.917  1.00  0.00     0.094 A 
HETATM   21  N4  UNL     1      21.433   1.280  53.326  1.00  0.00    -0.382 N 
HETATM   22  C17 UNL     1      20.796   0.600  54.472  1.00  0.00     0.155 C 
HETATM   23  N5  UNL     1      23.274   1.911  51.596  1.00  0.00    -0.241 NA
HETATM   24  H13 UNL     1      22.237   1.914  53.530  1.00  0.00     0.160 HD
HETATM   25  H16 UNL     1      23.562   0.997  51.119  1.00  0.00     0.135 HD
ENDROOT
TORSDOF 0
ENDMDL
MODEL 6
REMARK VINA RESULT:      -8.2      2.921      5.870
REMARK  0 active torsions:
REMARK  status: ('A' for Active; 'I' for Inactive)
ROOT
HETATM    1 BR1  UNL     1      22.290  -1.189  53.702  1.00  0.00    -0.050 Br
HETATM    2  C1  UNL     1      23.882  -0.139  53.486  1.00  0.00     0.019 A 
HETATM    3  C2  UNL     1      24.954  -0.615  54.194  1.00  0.00     0.020 A 
HETATM    4  C3  UNL     1      26.197  -0.046  54.204  1.00  0.00     0.003 A 
HETATM    5  C4  UNL     1      26.222   1.098  53.388  1.00  0.00     0.024 A 
HETATM    6  C5  UNL     1      25.157   1.627  52.644  1.00  0.00     0.022 A 
HETATM    7  C6  UNL     1      23.922   0.980  52.691  1.00  0.00    -0.014 A 
HETATM    8  C7  UNL     1      22.630   1.253  52.047  1.00  0.00     0.088 C 
HETATM    9  C8  UNL     1      22.699   1.961  50.745  1.00  0.00     0.088 C 
HETATM   10  N1  UNL     1      21.673   2.618  50.424  1.00  0.00    -0.301 NA
HETATM   11  C9  UNL     1      21.476   3.396  49.226  1.00  0.00     0.183 C 
HETATM   12  C10 UNL     1      22.268   4.673  49.466  1.00  0.00    -0.046 C 
HETATM   13  C11 UNL     1      22.841   5.368  48.476  1.00  0.00    -0.014 C 
HETATM   14  C12 UNL     1      24.059   6.222  48.728  1.00  0.00     0.089 C 
HETATM   15  C13 UNL     1      25.107   5.301  49.326  1.00  0.00     0.069 A 
HETATM   16  N2  UNL     1      26.247   5.282  48.616  1.00  0.00    -0.244 NA
HETATM   17  C14 UNL     1      27.200   4.427  49.026  1.00  0.00     0.235 A 
HETATM   18  N3  UNL     1      27.042   3.620  50.092  1.00  0.00    -0.227 NA
HETATM   19  C15 UNL     1      25.907   3.592  50.858  1.00  0.00     0.137 A 
HETATM   20  C16 UNL     1      24.886   4.484  50.454  1.00  0.00     0.094 A 
HETATM   21  N4  UNL     1      23.695   4.522  51.296  1.00  0.00    -0.382 N 
HETATM   22  C17 UNL     1      22.359   5.041  50.942  1.00  0.00     0.155 C 
HETATM   23  N5  UNL     1      25.534   2.800  51.956  1.00  0.00    -0.241 NA
HETATM   24  H13 UNL     1      23.822   4.139  52.260  1.00  0.00     0.160 HD
HETATM   25  H16 UNL     1      25.524   2.046  51.197  1.00  0.00     0.135 HD
ENDROOT
TORSDOF 0
ENDMDL
MODEL 7
REMARK VINA RESULT:      -7.8      3.774      7.404
REMARK  0 active torsions:
REMARK  status: ('A' for Active; 'I' for Inactive)
ROOT
HETATM    1 BR1  UNL     1      25.534  -0.499  53.872  1.00  0.00    -0.050 Br
HETATM    2  C1  UNL     1      23.629  -0.320  53.716  1.00  0.00     0.019 A 
HETATM    3  C2  UNL     1      22.931  -1.044  54.647  1.00  0.00     0.020 A 
HETATM    4  C3  UNL     1      21.568  -1.081  54.744  1.00  0.00     0.003 A 
HETATM    5  C4  UNL     1      20.981  -0.274  53.754  1.00  0.00     0.024 A 
HETATM    6  C5  UNL     1      21.646   0.484  52.780  1.00  0.00     0.022 A 
HETATM    7  C6  UNL     1      23.041   0.465  52.755  1.00  0.00    -0.014 A 
HETATM    8  C7  UNL     1      24.030   1.130  51.895  1.00  0.00     0.088 C 
HETATM    9  C8  UNL     1      23.604   2.424  51.310  1.00  0.00     0.088 C 
HETATM   10  N1  UNL     1      24.183   2.759  50.241  1.00  0.00    -0.301 NA
HETATM   11  C9  UNL     1      23.959   3.954  49.466  1.00  0.00     0.183 C 
HETATM   12  C10 UNL     1      22.656   3.689  48.726  1.00  0.00    -0.046 C 
HETATM   13  C11 UNL     1      21.799   4.663  48.393  1.00  0.00    -0.014 C 
HETATM   14  C12 UNL     1      20.326   4.382  48.228  1.00  0.00     0.089 C 
HETATM   15  C13 UNL     1      19.862   3.773  49.538  1.00  0.00     0.069 A 
HETATM   16  N2  UNL     1      18.857   4.463  50.103  1.00  0.00    -0.244 NA
HETATM   17  C14 UNL     1      18.439   4.042  51.310  1.00  0.00     0.235 A 
HETATM   18  N3  UNL     1      18.986   2.985  51.941  1.00  0.00    -0.227 NA
HETATM   19  C15 UNL     1      20.011   2.241  51.419  1.00  0.00     0.137 A 
HETATM   20  C16 UNL     1      20.470   2.656  50.147  1.00  0.00     0.094 A 
HETATM   21  N4  UNL     1      21.512   1.834  49.540  1.00  0.00    -0.382 N 
HETATM   22  C17 UNL     1      22.429   2.209  48.444  1.00  0.00     0.155 C 
HETATM   23  N5  UNL     1      20.740   1.155  51.933  1.00  0.00    -0.241 NA
HETATM   24  H13 UNL     1      21.604   0.872  49.936  1.00  0.00     0.160 HD
HETATM   25  H16 UNL     1      21.095   1.921  52.590  1.00  0.00     0.135 HD
ENDROOT
TORSDOF 0
ENDMDL
MODEL 8
REMARK VINA RESULT:      -7.4      4.130      6.137
REMARK  0 active torsions:
REMARK  status: ('A' for Active; 'I' for Inactive)
ROOT
HETATM    1 BR1  UNL     1      25.647  -0.496  54.832  1.00  0.00    -0.050 Br
HETATM    2  C1  UNL     1      25.615   0.696  53.327  1.00  0.00     0.019 A 
HETATM    3  C2  UNL     1      26.852   1.161  52.968  1.00  0.00     0.020 A 
HETATM    4  C3  UNL     1      27.093   2.019  51.931  1.00  0.00     0.003 A 
HETATM    5  C4  UNL     1      25.892   2.359  51.284  1.00  0.00     0.024 A 
HETATM    6  C5  UNL     1      24.602   1.913  51.610  1.00  0.00     0.022 A 
HETATM    7  C6  UNL     1      24.450   1.036  52.685  1.00  0.00    -0.014 A 
HETATM    8  C7  UNL     1      23.274   0.386  53.279  1.00  0.00     0.088 C 
HETATM    9  C8  UNL     1      22.141   0.139  52.354  1.00  0.00     0.088 C 
HETATM   10  N1  UNL     1      21.005   0.052  52.891  1.00  0.00    -0.301 NA
HETATM   11  C9  UNL     1      19.744  -0.178  52.231  1.00  0.00     0.183 C 
HETATM   12  C10 UNL     1      19.391   1.164  51.606  1.00  0.00    -0.046 C 
HETATM   13  C11 UNL     1      18.684   1.275  50.475  1.00  0.00    -0.014 C 
HETATM   14  C12 UNL     1      18.843   2.472  49.571  1.00  0.00     0.089 C 
HETATM   15  C13 UNL     1      20.316   2.543  49.215  1.00  0.00     0.069 A 
HETATM   16  N2  UNL     1      20.532   2.511  47.890  1.00  0.00    -0.244 NA
HETATM   17  C14 UNL     1      21.814   2.484  47.487  1.00  0.00     0.235 A 
HETATM   18  N3  UNL     1      22.848   2.487  48.350  1.00  0.00    -0.227 NA
HETATM   19  C15 UNL     1      22.695   2.520  49.711  1.00  0.00     0.137 A 
HETATM   20  C16 UNL     1      21.357   2.554  50.167  1.00  0.00     0.094 A 
HETATM   21  N4  UNL     1      21.171   2.661  51.610  1.00  0.00    -0.382 N 
HETATM   22  C17 UNL     1      19.956   2.344  52.387  1.00  0.00     0.155 C 
HETATM   23  N5  UNL     1      23.626   2.476  50.762  1.00  0.00    -0.241 NA
HETATM   24  H13 UNL     1      22.002   3.009  52.139  1.00  0.00     0.160 HD
HETATM   25  H16 UNL     1      23.742   1.478  50.396  1.00  0.00     0.135 HD
ENDROOT
TORSDOF 0
ENDMDL
MODEL 9
REMARK VINA RESULT:      -7.3      2.530      5.760
REMARK  0 active torsions:
REMARK  status: ('A' for Active; 'I' for Inactive)
ROOT
HETATM    1 BR1  UNL     1      21.007   1.052  51.017  1.00  0.00    -0.050 Br
HETATM    2  C1  UNL     1      22.830   1.581  51.301  1.00  0.00     0.019 A 
HETATM    3  C2  UNL     1      23.520   0.745  52.139  1.00  0.00     0.020 A 
HETATM    4  C3  UNL     1      24.830   0.906  52.497  1.00  0.00     0.003 A 
HETATM    5  C4  UNL     1      25.371   2.049  51.885  1.00  0.00     0.024 A 
HETATM    6  C5  UNL     1      24.711   2.937  51.021  1.00  0.00     0.022 A 
HETATM    7  C6  UNL     1      23.373   2.695  50.709  1.00  0.00    -0.014 A 
HETATM    8  C7  UNL     1      22.407   3.401  49.857  1.00  0.00     0.088 C 
HETATM    9  C8  UNL     1      22.987   4.157  48.720  1.00  0.00     0.088 C 
HETATM   10  N1  UNL     1      22.295   5.119  48.292  1.00  0.00    -0.301 NA
HETATM   11  C9  UNL     1      22.621   6.015  47.210  1.00  0.00     0.183 C 
HETATM   12  C10 UNL     1      23.652   6.965  47.801  1.00  0.00    -0.046 C 
HETATM   13  C11 UNL     1      24.621   7.531  47.070  1.00  0.00    -0.014 C 
HETATM   14  C12 UNL     1      25.927   7.949  47.698  1.00  0.00     0.089 C 
HETATM   15  C13 UNL     1      26.498   6.708  48.358  1.00  0.00     0.069 A 
HETATM   16  N2  UNL     1      27.726   6.400  47.909  1.00  0.00    -0.244 NA
HETATM   17  C14 UNL     1      28.274   5.264  48.378  1.00  0.00     0.235 A 
HETATM   18  N3  UNL     1      27.641   4.460  49.253  1.00  0.00    -0.227 NA
HETATM   19  C15 UNL     1      26.391   4.717  49.749  1.00  0.00     0.137 A 
HETATM   20  C16 UNL     1      25.789   5.908  49.278  1.00  0.00     0.094 A 
HETATM   21  N4  UNL     1      24.487   6.239  49.847  1.00  0.00    -0.382 N 
HETATM   22  C17 UNL     1      23.476   7.167  49.301  1.00  0.00     0.155 C 
HETATM   23  N5  UNL     1      25.555   3.990  50.613  1.00  0.00    -0.241 NA
HETATM   24  H13 UNL     1      24.262   5.759  50.747  1.00  0.00     0.160 HD
HETATM   25  H16 UNL     1      25.523   3.340  49.764  1.00  0.00     0.135 HD
ENDROOT
TORSDOF 0
ENDMDL
