MODEL 1
REMARK VINA RESULT:      -8.2      0.000      0.000
REMARK  7 active torsions:
REMARK  status: ('A' for Active; 'I' for Inactive)
REMARK    1  A    between atoms: C4_5  and  N1_6 
REMARK    2  A    between atoms: N1_6  and  C5_7 
REMARK    3  A    between atoms: C5_7  and  C6_8 
REMARK    4  A    between atoms: C7_9  and  C8_10 
REMARK    5  A    between atoms: C12_14  and  C13_15 
REMARK    6  A    between atoms: C13_15  and  C14_16 
REMARK    7  A    between atoms: C14_16  and  N2_17 
ROOT
HETATM    1  C8  UNL     1      26.925   5.132  48.901  1.00  0.00     0.044 C 
HETATM    2  C9  UNL     1      26.196   6.098  48.437  1.00  0.00    -0.000 A 
HETATM    3  C10 UNL     1      25.148   7.030  47.983  1.00  0.00     0.024 A 
HETATM    4  C11 UNL     1      26.432   7.398  47.877  1.00  0.00    -0.022 A 
HETATM    5  C12 UNL     1      27.678   8.106  47.621  1.00  0.00     0.119 C 
HETATM    6  N3  UNL     1      28.757   7.201  47.421  1.00  0.00    -0.358 N 
HETATM    7  C19 UNL     1      29.228   6.035  48.078  1.00  0.00     0.172 C 
HETATM    8  S1  UNL     1      30.791   5.607  47.925  1.00  0.00    -0.041 SA
HETATM    9  N4  UNL     1      28.367   5.204  48.885  1.00  0.00    -0.333 N 
HETATM   10  H22 UNL     1      29.364   7.456  46.580  1.00  0.00     0.162 HD
HETATM   11  H23 UNL     1      28.891   4.576  49.536  1.00  0.00     0.168 HD
ENDROOT
BRANCH   1  12
HETATM   12  C7  UNL     1      26.391   3.908  49.474  1.00  0.00     0.028 C 
HETATM   13  C6  UNL     1      25.659   3.919  50.575  1.00  0.00    -0.005 C 
BRANCH  13  14
HETATM   14  C5  UNL     1      25.113   2.640  51.158  1.00  0.00     0.147 C 
BRANCH  14  15
HETATM   15  N1  UNL     1      25.649   2.509  52.524  1.00  0.00    -0.386 N 
HETATM   16  H3  UNL     1      25.256   3.120  53.293  1.00  0.00     0.160 HD
BRANCH  15  17
HETATM   17  C4  UNL     1      26.684   1.570  52.796  1.00  0.00     0.029 A 
HETATM   18  C3  UNL     1      27.887   2.077  53.288  1.00  0.00     0.032 A 
HETATM   19  C2  UNL     1      28.841   1.098  53.526  1.00  0.00     0.046 A 
HETATM   20  C1  UNL     1      28.687  -0.239  53.323  1.00  0.00     0.138 A 
HETATM   21  F1  UNL     1      29.720  -1.092  53.603  1.00  0.00    -0.204 F 
HETATM   22  C21 UNL     1      27.455  -0.670  52.828  1.00  0.00     0.074 A 
HETATM   23  C20 UNL     1      26.448   0.243  52.564  1.00  0.00     0.056 A 
HETATM   24 CL1  UNL     1      27.295  -2.406  52.577  1.00  0.00    -0.081 Cl
ENDBRANCH  15  17
ENDBRANCH  14  15
ENDBRANCH  13  14
ENDBRANCH   1  12
BRANCH   5  25
HETATM   25  C13 UNL     1      28.055   9.010  48.805  1.00  0.00     0.060 C 
BRANCH  25  26
HETATM   26  C14 UNL     1      29.037  10.031  48.289  1.00  0.00     0.275 C 
BRANCH  26  27
HETATM   27  N2  UNL     1      30.073  10.390  49.200  1.00  0.00     0.092 N 
HETATM   28  C15 UNL     1      30.704  11.642  48.827  1.00  0.00     0.298 C 
HETATM   29  C16 UNL     1      31.702  11.526  47.722  1.00  0.00     0.198 C 
HETATM   30  O1  UNL     1      31.733  10.317  47.076  1.00  0.00    -0.388 OA
HETATM   31  C17 UNL     1      31.805   9.216  47.891  1.00  0.00     0.198 C 
HETATM   32  C18 UNL     1      31.093   9.380  49.213  1.00  0.00     0.298 C 
ENDBRANCH  26  27
ENDBRANCH  25  26
ENDBRANCH   5  25
TORSDOF 7
ENDMDL
MODEL 2
REMARK VINA RESULT:      -8.2      1.546      2.013
REMARK  7 active torsions:
REMARK  status: ('A' for Active; 'I' for Inactive)
REMARK    1  A    between atoms: C4_5  and  N1_6 
REMARK    2  A    between atoms: N1_6  and  C5_7 
REMARK    3  A    between atoms: C5_7  and  C6_8 
REMARK    4  A    between atoms: C7_9  and  C8_10 
REMARK    5  A    between atoms: C12_14  and  C13_15 
REMARK    6  A    between atoms: C13_15  and  C14_16 
REMARK    7  A    between atoms: C14_16  and  N2_17 
ROOT
HETATM    1  C8  UNL     1      26.844   5.211  48.982  1.00  0.00     0.044 C 
HETATM    2  C9  UNL     1      25.975   6.068  48.545  1.00  0.00    -0.000 A 
HETATM    3  C10 UNL     1      24.796   6.854  48.142  1.00  0.00     0.024 A 
HETATM    4  C11 UNL     1      26.016   7.372  47.947  1.00  0.00    -0.022 A 
HETATM    5  C12 UNL     1      27.148   8.218  47.599  1.00  0.00     0.119 C 
HETATM    6  N3  UNL     1      28.315   7.445  47.348  1.00  0.00    -0.358 N 
HETATM    7  C19 UNL     1      28.964   6.363  47.996  1.00  0.00     0.172 C 
HETATM    8  S1  UNL     1      30.556   6.123  47.753  1.00  0.00    -0.041 SA
HETATM    9  N4  UNL     1      28.263   5.455  48.872  1.00  0.00    -0.333 N 
HETATM   10  H22 UNL     1      28.835   7.748  46.465  1.00  0.00     0.162 HD
HETATM   11  H23 UNL     1      28.898   4.914  49.501  1.00  0.00     0.168 HD
ENDROOT
BRANCH   1  12
HETATM   12  C7  UNL     1      26.499   3.947  49.611  1.00  0.00     0.028 C 
HETATM   13  C6  UNL     1      25.553   3.865  50.531  1.00  0.00    -0.005 C 
BRANCH  13  14
HETATM   14  C5  UNL     1      25.209   2.546  51.175  1.00  0.00     0.147 C 
BRANCH  14  15
HETATM   15  N1  UNL     1      25.843   2.521  52.505  1.00  0.00    -0.386 N 
HETATM   16  H3  UNL     1      25.556   3.240  53.227  1.00  0.00     0.160 HD
BRANCH  15  17
HETATM   17  C4  UNL     1      26.829   1.540  52.806  1.00  0.00     0.029 A 
HETATM   18  C3  UNL     1      28.039   1.996  53.330  1.00  0.00     0.032 A 
HETATM   19  C2  UNL     1      28.943   0.977  53.594  1.00  0.00     0.046 A 
HETATM   20  C1  UNL     1      28.739  -0.352  53.387  1.00  0.00     0.138 A 
HETATM   21  F1  UNL     1      29.726  -1.248  53.695  1.00  0.00    -0.204 F 
HETATM   22  C21 UNL     1      27.503  -0.731  52.859  1.00  0.00     0.074 A 
HETATM   23  C20 UNL     1      26.543   0.224  52.568  1.00  0.00     0.056 A 
HETATM   24 CL1  UNL     1      27.275  -2.458  52.603  1.00  0.00    -0.081 Cl
ENDBRANCH  15  17
ENDBRANCH  14  15
ENDBRANCH  13  14
ENDBRANCH   1  12
BRANCH   5  25
HETATM   25  C13 UNL     1      27.482   9.193  48.738  1.00  0.00     0.060 C 
BRANCH  25  26
HETATM   26  C14 UNL     1      27.012  10.558  48.307  1.00  0.00     0.275 C 
BRANCH  26  27
HETATM   27  N2  UNL     1      27.879  11.242  47.405  1.00  0.00     0.092 N 
HETATM   28  C15 UNL     1      29.219  11.373  47.946  1.00  0.00     0.298 C 
HETATM   29  C16 UNL     1      29.377  12.471  48.946  1.00  0.00     0.198 C 
HETATM   30  O1  UNL     1      28.213  13.059  49.370  1.00  0.00    -0.388 OA
HETATM   31  C17 UNL     1      27.354  13.450  48.375  1.00  0.00     0.198 C 
HETATM   32  C18 UNL     1      27.385  12.566  47.151  1.00  0.00     0.298 C 
ENDBRANCH  26  27
ENDBRANCH  25  26
ENDBRANCH   5  25
TORSDOF 7
ENDMDL
MODEL 3
REMARK VINA RESULT:      -8.0      7.782     10.645
REMARK  7 active torsions:
REMARK  status: ('A' for Active; 'I' for Inactive)
REMARK    1  A    between atoms: C4_5  and  N1_6 
REMARK    2  A    between atoms: N1_6  and  C5_7 
REMARK    3  A    between atoms: C5_7  and  C6_8 
REMARK    4  A    between atoms: C7_9  and  C8_10 
REMARK    5  A    between atoms: C12_14  and  C13_15 
REMARK    6  A    between atoms: C13_15  and  C14_16 
REMARK    7  A    between atoms: C14_16  and  N2_17 
ROOT
HETATM    1  C8  UNL     1      21.221   0.351  51.946  1.00  0.00     0.044 C 
HETATM    2  C9  UNL     1      21.530  -0.152  53.099  1.00  0.00    -0.000 A 
HETATM    3  C10 UNL     1      21.617  -0.829  54.405  1.00  0.00     0.024 A 
HETATM    4  C11 UNL     1      22.698  -0.193  53.933  1.00  0.00    -0.022 A 
HETATM    5  C12 UNL     1      24.022   0.377  53.736  1.00  0.00     0.119 C 
HETATM    6  N3  UNL     1      23.974   1.519  52.888  1.00  0.00    -0.358 N 
HETATM    7  C19 UNL     1      23.348   1.830  51.654  1.00  0.00     0.172 C 
HETATM    8  S1  UNL     1      23.974   3.003  50.713  1.00  0.00    -0.041 SA
HETATM    9  N4  UNL     1      22.166   1.142  51.193  1.00  0.00    -0.333 N 
HETATM   10  H22 UNL     1      24.545   2.341  53.262  1.00  0.00     0.162 HD
HETATM   11  H23 UNL     1      21.998   1.252  50.167  1.00  0.00     0.168 HD
ENDROOT
BRANCH   1  12
HETATM   12  C7  UNL     1      19.931   0.182  51.300  1.00  0.00     0.028 C 
HETATM   13  C6  UNL     1      18.803   0.509  51.907  1.00  0.00    -0.005 C 
BRANCH  13  14
HETATM   14  C5  UNL     1      17.471   0.326  51.224  1.00  0.00     0.147 C 
BRANCH  14  15
HETATM   15  N1  UNL     1      16.520  -0.178  52.230  1.00  0.00    -0.386 N 
HETATM   16  H3  UNL     1      15.819   0.490  52.657  1.00  0.00     0.160 HD
BRANCH  15  17
HETATM   17  C4  UNL     1      16.553  -1.547  52.618  1.00  0.00     0.029 A 
HETATM   18  C3  UNL     1      17.631  -1.959  53.402  1.00  0.00     0.032 A 
HETATM   19  C2  UNL     1      17.587  -3.305  53.736  1.00  0.00     0.046 A 
HETATM   20  C1  UNL     1      16.622  -4.191  53.371  1.00  0.00     0.138 A 
HETATM   21  F1  UNL     1      16.709  -5.496  53.775  1.00  0.00    -0.204 F 
HETATM   22  C21 UNL     1      15.574  -3.705  52.586  1.00  0.00     0.074 A 
HETATM   23  C20 UNL     1      15.542  -2.373  52.209  1.00  0.00     0.056 A 
HETATM   24 CL1  UNL     1      14.345  -4.881  52.132  1.00  0.00    -0.081 Cl
ENDBRANCH  15  17
ENDBRANCH  14  15
ENDBRANCH  13  14
ENDBRANCH   1  12
BRANCH   5  25
HETATM   25  C13 UNL     1      24.971  -0.637  53.080  1.00  0.00     0.060 C 
BRANCH  25  26
HETATM   26  C14 UNL     1      26.326  -0.452  53.713  1.00  0.00     0.275 C 
BRANCH  26  27
HETATM   27  N2  UNL     1      27.396  -0.219  52.800  1.00  0.00     0.092 N 
HETATM   28  C15 UNL     1      28.684  -0.522  53.396  1.00  0.00     0.298 C 
HETATM   29  C16 UNL     1      29.212   0.542  54.302  1.00  0.00     0.198 C 
HETATM   30  O1  UNL     1      28.331   1.547  54.611  1.00  0.00    -0.388 OA
HETATM   31  C17 UNL     1      27.689   2.117  53.543  1.00  0.00     0.198 C 
HETATM   32  C18 UNL     1      27.418   1.161  52.405  1.00  0.00     0.298 C 
ENDBRANCH  26  27
ENDBRANCH  25  26
ENDBRANCH   5  25
TORSDOF 7
ENDMDL
MODEL 4
REMARK VINA RESULT:      -7.9      5.361      9.710
REMARK  7 active torsions:
REMARK  status: ('A' for Active; 'I' for Inactive)
REMARK    1  A    between atoms: C4_5  and  N1_6 
REMARK    2  A    between atoms: N1_6  and  C5_7 
REMARK    3  A    between atoms: C5_7  and  C6_8 
REMARK    4  A    between atoms: C7_9  and  C8_10 
REMARK    5  A    between atoms: C12_14  and  C13_15 
REMARK    6  A    between atoms: C13_15  and  C14_16 
REMARK    7  A    between atoms: C14_16  and  N2_17 
ROOT
HETATM    1  C8  UNL     1      25.588   4.373  49.487  1.00  0.00     0.044 C 
HETATM    2  C9  UNL     1      25.911   3.373  50.244  1.00  0.00    -0.000 A 
HETATM    3  C10 UNL     1      26.542   2.341  51.085  1.00  0.00     0.024 A 
HETATM    4  C11 UNL     1      25.216   2.302  50.900  1.00  0.00    -0.022 A 
HETATM    5  C12 UNL     1      23.800   1.963  50.918  1.00  0.00     0.119 C 
HETATM    6  N3  UNL     1      23.141   2.431  49.747  1.00  0.00    -0.358 N 
HETATM    7  C19 UNL     1      23.129   3.646  49.016  1.00  0.00     0.172 C 
HETATM    8  S1  UNL     1      21.842   4.008  48.087  1.00  0.00    -0.041 SA
HETATM    9  N4  UNL     1      24.224   4.586  49.062  1.00  0.00    -0.333 N 
HETATM   10  H22 UNL     1      22.498   1.698  49.310  1.00  0.00     0.162 HD
HETATM   11  H23 UNL     1      23.961   5.543  48.736  1.00  0.00     0.168 HD
ENDROOT
BRANCH   1  12
HETATM   12  C7  UNL     1      26.531   5.364  48.995  1.00  0.00     0.028 C 
HETATM   13  C6  UNL     1      27.747   5.029  48.599  1.00  0.00    -0.005 C 
BRANCH  13  14
HETATM   14  C5  UNL     1      28.714   6.068  48.094  1.00  0.00     0.147 C 
BRANCH  14  15
HETATM   15  N1  UNL     1      29.832   6.140  49.051  1.00  0.00    -0.386 N 
HETATM   16  H3  UNL     1      29.630   6.375  50.062  1.00  0.00     0.160 HD
BRANCH  15  17
HETATM   17  C4  UNL     1      31.164   5.898  48.610  1.00  0.00     0.029 A 
HETATM   18  C3  UNL     1      32.178   6.637  49.219  1.00  0.00     0.032 A 
HETATM   19  C2  UNL     1      33.443   6.341  48.732  1.00  0.00     0.046 A 
HETATM   20  C1  UNL     1      33.738   5.434  47.762  1.00  0.00     0.138 A 
HETATM   21  F1  UNL     1      35.039   5.245  47.380  1.00  0.00    -0.204 F 
HETATM   22  C21 UNL     1      32.669   4.733  47.200  1.00  0.00     0.074 A 
HETATM   23  C20 UNL     1      31.374   4.968  47.629  1.00  0.00     0.056 A 
HETATM   24 CL1  UNL     1      33.090   3.570  45.946  1.00  0.00    -0.081 Cl
ENDBRANCH  15  17
ENDBRANCH  14  15
ENDBRANCH  13  14
ENDBRANCH   1  12
BRANCH   5  25
HETATM   25  C13 UNL     1      23.093   2.600  52.124  1.00  0.00     0.060 C 
BRANCH  25  26
HETATM   26  C14 UNL     1      22.793   1.491  53.099  1.00  0.00     0.275 C 
BRANCH  26  27
HETATM   27  N2  UNL     1      22.357   0.267  52.512  1.00  0.00     0.092 N 
HETATM   28  C15 UNL     1      20.908   0.178  52.474  1.00  0.00     0.298 C 
HETATM   29  C16 UNL     1      20.280  -0.210  53.773  1.00  0.00     0.198 C 
HETATM   30  O1  UNL     1      21.119  -0.221  54.858  1.00  0.00    -0.388 OA
HETATM   31  C17 UNL     1      22.297  -0.902  54.685  1.00  0.00     0.198 C 
HETATM   32  C18 UNL     1      22.838  -0.849  53.276  1.00  0.00     0.298 C 
ENDBRANCH  26  27
ENDBRANCH  25  26
ENDBRANCH   5  25
TORSDOF 7
ENDMDL
MODEL 5
REMARK VINA RESULT:      -7.9      4.340      8.520
REMARK  7 active torsions:
REMARK  status: ('A' for Active; 'I' for Inactive)
REMARK    1  A    between atoms: C4_5  and  N1_6 
REMARK    2  A    between atoms: N1_6  and  C5_7 
REMARK    3  A    between atoms: C5_7  and  C6_8 
REMARK    4  A    between atoms: C7_9  and  C8_10 
REMARK    5  A    between atoms: C12_14  and  C13_15 
REMARK    6  A    between atoms: C13_15  and  C14_16 
REMARK    7  A    between atoms: C14_16  and  N2_17 
ROOT
HETATM    1  C8  UNL     1      25.692   5.161  49.842  1.00  0.00     0.044 C 
HETATM    2  C9  UNL     1      25.969   3.903  49.980  1.00  0.00    -0.000 A 
HETATM    3  C10 UNL     1      26.513   2.533  49.981  1.00  0.00     0.024 A 
HETATM    4  C11 UNL     1      25.390   2.784  50.667  1.00  0.00    -0.022 A 
HETATM    5  C12 UNL     1      24.195   2.695  51.494  1.00  0.00     0.119 C 
HETATM    6  N3  UNL     1      23.245   3.693  51.140  1.00  0.00    -0.358 N 
HETATM    7  C19 UNL     1      23.299   5.085  50.874  1.00  0.00     0.172 C 
HETATM    8  S1  UNL     1      21.960   5.991  51.071  1.00  0.00    -0.041 SA
HETATM    9  N4  UNL     1      24.507   5.740  50.430  1.00  0.00    -0.333 N 
HETATM   10  H22 UNL     1      22.251   3.311  51.055  1.00  0.00     0.162 HD
HETATM   11  H23 UNL     1      24.489   6.776  50.566  1.00  0.00     0.168 HD
ENDROOT
BRANCH   1  12
HETATM   12  C7  UNL     1      26.517   6.102  49.105  1.00  0.00     0.028 C 
HETATM   13  C6  UNL     1      27.686   5.751  48.596  1.00  0.00    -0.005 C 
BRANCH  13  14
HETATM   14  C5  UNL     1      28.531   6.740  47.834  1.00  0.00     0.147 C 
BRANCH  14  15
HETATM   15  N1  UNL     1      29.720   7.034  48.653  1.00  0.00    -0.386 N 
HETATM   16  H3  UNL     1      29.672   7.807  49.375  1.00  0.00     0.160 HD
BRANCH  15  17
HETATM   17  C4  UNL     1      30.916   6.284  48.467  1.00  0.00     0.029 A 
HETATM   18  C3  UNL     1      32.069   6.765  49.089  1.00  0.00     0.032 A 
HETATM   19  C2  UNL     1      33.188   5.977  48.858  1.00  0.00     0.046 A 
HETATM   20  C1  UNL     1      33.229   4.840  48.111  1.00  0.00     0.138 A 
HETATM   21  F1  UNL     1      34.410   4.163  47.969  1.00  0.00    -0.204 F 
HETATM   22  C21 UNL     1      32.035   4.423  47.520  1.00  0.00     0.074 A 
HETATM   23  C20 UNL     1      30.872   5.152  47.702  1.00  0.00     0.056 A 
HETATM   24 CL1  UNL     1      32.128   2.950  46.561  1.00  0.00    -0.081 Cl
ENDBRANCH  15  17
ENDBRANCH  14  15
ENDBRANCH  13  14
ENDBRANCH   1  12
BRANCH   5  25
HETATM   25  C13 UNL     1      24.533   2.894  52.979  1.00  0.00     0.060 C 
BRANCH  25  26
HETATM   26  C14 UNL     1      25.758   2.067  53.272  1.00  0.00     0.275 C 
BRANCH  26  27
HETATM   27  N2  UNL     1      25.509   0.824  53.925  1.00  0.00     0.092 N 
HETATM   28  C15 UNL     1      26.564   0.493  54.865  1.00  0.00     0.298 C 
HETATM   29  C16 UNL     1      27.796  -0.072  54.238  1.00  0.00     0.198 C 
HETATM   30  O1  UNL     1      27.847  -0.006  52.869  1.00  0.00    -0.388 OA
HETATM   31  C17 UNL     1      26.734  -0.466  52.214  1.00  0.00     0.198 C 
HETATM   32  C18 UNL     1      25.441  -0.238  52.962  1.00  0.00     0.298 C 
ENDBRANCH  26  27
ENDBRANCH  25  26
ENDBRANCH   5  25
TORSDOF 7
ENDMDL
MODEL 6
REMARK VINA RESULT:      -7.9      3.471      5.007
REMARK  7 active torsions:
REMARK  status: ('A' for Active; 'I' for Inactive)
REMARK    1  A    between atoms: C4_5  and  N1_6 
REMARK    2  A    between atoms: N1_6  and  C5_7 
REMARK    3  A    between atoms: C5_7  and  C6_8 
REMARK    4  A    between atoms: C7_9  and  C8_10 
REMARK    5  A    between atoms: C12_14  and  C13_15 
REMARK    6  A    between atoms: C13_15  and  C14_16 
REMARK    7  A    between atoms: C14_16  and  N2_17 
ROOT
HETATM    1  C8  UNL     1      28.890   6.511  47.844  1.00  0.00     0.044 C 
HETATM    2  C9  UNL     1      30.071   6.272  48.321  1.00  0.00    -0.000 A 
HETATM    3  C10 UNL     1      31.275   5.835  49.049  1.00  0.00     0.024 A 
HETATM    4  C11 UNL     1      31.417   6.644  47.990  1.00  0.00    -0.022 A 
HETATM    5  C12 UNL     1      31.930   7.490  46.923  1.00  0.00     0.119 C 
HETATM    6  N3  UNL     1      30.963   8.449  46.512  1.00  0.00    -0.358 N 
HETATM    7  C19 UNL     1      29.579   8.413  46.200  1.00  0.00     0.172 C 
HETATM    8  S1  UNL     1      28.948   9.554  45.225  1.00  0.00    -0.041 SA
HETATM    9  N4  UNL     1      28.698   7.393  46.717  1.00  0.00    -0.333 N 
HETATM   10  H22 UNL     1      31.367   9.432  46.407  1.00  0.00     0.162 HD
HETATM   11  H23 UNL     1      27.805   7.308  46.181  1.00  0.00     0.168 HD
ENDROOT
BRANCH   1  12
HETATM   12  C7  UNL     1      27.665   5.935  48.371  1.00  0.00     0.028 C 
HETATM   13  C6  UNL     1      27.602   4.674  48.764  1.00  0.00    -0.005 C 
BRANCH  13  14
HETATM   14  C5  UNL     1      26.323   4.091  49.307  1.00  0.00     0.147 C 
BRANCH  14  15
HETATM   15  N1  UNL     1      26.526   3.830  50.743  1.00  0.00    -0.386 N 
HETATM   16  H3  UNL     1      27.143   4.481  51.303  1.00  0.00     0.160 HD
BRANCH  15  17
HETATM   17  C4  UNL     1      25.897   2.712  51.360  1.00  0.00     0.029 A 
HETATM   18  C3  UNL     1      24.566   2.868  51.749  1.00  0.00     0.032 A 
HETATM   19  C2  UNL     1      24.030   1.733  52.341  1.00  0.00     0.046 A 
HETATM   20  C1  UNL     1      24.677   0.555  52.552  1.00  0.00     0.138 A 
HETATM   21  F1  UNL     1      24.019  -0.485  53.150  1.00  0.00    -0.204 F 
HETATM   22  C21 UNL     1      26.007   0.475  52.135  1.00  0.00     0.074 A 
HETATM   23  C20 UNL     1      26.619   1.563  51.534  1.00  0.00     0.056 A 
HETATM   24 CL1  UNL     1      26.812  -1.063  52.426  1.00  0.00    -0.081 Cl
ENDBRANCH  15  17
ENDBRANCH  14  15
ENDBRANCH  13  14
ENDBRANCH   1  12
BRANCH   5  25
HETATM   25  C13 UNL     1      32.303   6.659  45.686  1.00  0.00     0.060 C 
BRANCH  25  26
HETATM   26  C14 UNL     1      33.440   5.754  46.085  1.00  0.00     0.275 C 
BRANCH  26  27
HETATM   27  N2  UNL     1      33.438   4.469  45.468  1.00  0.00     0.092 N 
HETATM   28  C15 UNL     1      32.441   3.593  46.056  1.00  0.00     0.298 C 
HETATM   29  C16 UNL     1      32.848   2.980  47.356  1.00  0.00     0.198 C 
HETATM   30  O1  UNL     1      33.996   3.480  47.914  1.00  0.00    -0.388 OA
HETATM   31  C17 UNL     1      35.076   3.555  47.072  1.00  0.00     0.198 C 
HETATM   32  C18 UNL     1      34.717   3.838  45.633  1.00  0.00     0.298 C 
ENDBRANCH  26  27
ENDBRANCH  25  26
ENDBRANCH   5  25
TORSDOF 7
ENDMDL
MODEL 7
REMARK VINA RESULT:      -7.8      8.237     11.248
REMARK  7 active torsions:
REMARK  status: ('A' for Active; 'I' for Inactive)
REMARK    1  A    between atoms: C4_5  and  N1_6 
REMARK    2  A    between atoms: N1_6  and  C5_7 
REMARK    3  A    between atoms: C5_7  and  C6_8 
REMARK    4  A    between atoms: C7_9  and  C8_10 
REMARK    5  A    between atoms: C12_14  and  C13_15 
REMARK    6  A    between atoms: C13_15  and  C14_16 
REMARK    7  A    between atoms: C14_16  and  N2_17 
ROOT
HETATM    1  C8  UNL     1      20.797   0.437  51.967  1.00  0.00     0.044 C 
HETATM    2  C9  UNL     1      21.145   0.015  53.141  1.00  0.00    -0.000 A 
HETATM    3  C10 UNL     1      21.271  -0.557  54.494  1.00  0.00     0.024 A 
HETATM    4  C11 UNL     1      22.352  -0.014  53.917  1.00  0.00    -0.022 A 
HETATM    5  C12 UNL     1      23.688   0.475  53.608  1.00  0.00     0.119 C 
HETATM    6  N3  UNL     1      23.644   1.544  52.671  1.00  0.00    -0.358 N 
HETATM    7  C19 UNL     1      22.968   1.784  51.447  1.00  0.00     0.172 C 
HETATM    8  S1  UNL     1      23.593   2.845  50.382  1.00  0.00    -0.041 SA
HETATM    9  N4  UNL     1      21.734   1.118  51.104  1.00  0.00    -0.333 N 
HETATM   10  H22 UNL     1      24.269   2.366  52.946  1.00  0.00     0.162 HD
HETATM   11  H23 UNL     1      21.516   1.152  50.082  1.00  0.00     0.168 HD
ENDROOT
BRANCH   1  12
HETATM   12  C7  UNL     1      19.468   0.278  51.402  1.00  0.00     0.028 C 
HETATM   13  C6  UNL     1      18.469  -0.225  52.108  1.00  0.00    -0.005 C 
BRANCH  13  14
HETATM   14  C5  UNL     1      17.096  -0.385  51.507  1.00  0.00     0.147 C 
BRANCH  14  15
HETATM   15  N1  UNL     1      16.731   0.897  50.880  1.00  0.00    -0.386 N 
HETATM   16  H3  UNL     1      17.000   1.073  49.872  1.00  0.00     0.160 HD
BRANCH  15  17
HETATM   17  C4  UNL     1      16.027   1.882  51.629  1.00  0.00     0.029 A 
HETATM   18  C3  UNL     1      16.578   3.164  51.668  1.00  0.00     0.032 A 
HETATM   19  C2  UNL     1      15.831   4.061  52.418  1.00  0.00     0.046 A 
HETATM   20  C1  UNL     1      14.672   3.788  53.075  1.00  0.00     0.138 A 
HETATM   21  F1  UNL     1      14.041   4.777  53.780  1.00  0.00    -0.204 F 
HETATM   22  C21 UNL     1      14.183   2.483  52.989  1.00  0.00     0.074 A 
HETATM   23  C20 UNL     1      14.867   1.525  52.260  1.00  0.00     0.056 A 
HETATM   24 CL1  UNL     1      12.681   2.168  53.854  1.00  0.00    -0.081 Cl
ENDBRANCH  15  17
ENDBRANCH  14  15
ENDBRANCH  13  14
ENDBRANCH   1  12
BRANCH   5  25
HETATM   25  C13 UNL     1      24.555  -0.634  52.993  1.00  0.00     0.060 C 
BRANCH  25  26
HETATM   26  C14 UNL     1      25.889  -0.594  53.693  1.00  0.00     0.275 C 
BRANCH  26  27
HETATM   27  N2  UNL     1      27.018  -0.419  52.839  1.00  0.00     0.092 N 
HETATM   28  C15 UNL     1      28.261  -0.714  53.527  1.00  0.00     0.298 C 
HETATM   29  C16 UNL     1      28.751   0.382  54.416  1.00  0.00     0.198 C 
HETATM   30  O1  UNL     1      27.871   1.414  54.624  1.00  0.00    -0.388 OA
HETATM   31  C17 UNL     1      27.306   1.944  53.493  1.00  0.00     0.198 C 
HETATM   32  C18 UNL     1      27.089   0.941  52.385  1.00  0.00     0.298 C 
ENDBRANCH  26  27
ENDBRANCH  25  26
ENDBRANCH   5  25
TORSDOF 7
ENDMDL
MODEL 8
REMARK VINA RESULT:      -7.7      1.864      2.657
REMARK  7 active torsions:
REMARK  status: ('A' for Active; 'I' for Inactive)
REMARK    1  A    between atoms: C4_5  and  N1_6 
REMARK    2  A    between atoms: N1_6  and  C5_7 
REMARK    3  A    between atoms: C5_7  and  C6_8 
REMARK    4  A    between atoms: C7_9  and  C8_10 
REMARK    5  A    between atoms: C12_14  and  C13_15 
REMARK    6  A    between atoms: C13_15  and  C14_16 
REMARK    7  A    between atoms: C14_16  and  N2_17 
ROOT
HETATM    1  C8  UNL     1      28.019   5.559  48.645  1.00  0.00     0.044 C 
HETATM    2  C9  UNL     1      29.233   5.474  48.200  1.00  0.00    -0.000 A 
HETATM    3  C10 UNL     1      30.563   5.098  47.690  1.00  0.00     0.024 A 
HETATM    4  C11 UNL     1      30.274   6.397  47.845  1.00  0.00    -0.022 A 
HETATM    5  C12 UNL     1      30.304   7.851  47.886  1.00  0.00     0.119 C 
HETATM    6  N3  UNL     1      29.408   8.361  48.867  1.00  0.00    -0.358 N 
HETATM    7  C19 UNL     1      28.064   8.098  49.236  1.00  0.00     0.172 C 
HETATM    8  S1  UNL     1      27.203   9.251  49.997  1.00  0.00    -0.041 SA
HETATM    9  N4  UNL     1      27.421   6.835  48.961  1.00  0.00    -0.333 N 
HETATM   10  H22 UNL     1      29.843   9.127  49.471  1.00  0.00     0.162 HD
HETATM   11  H23 UNL     1      26.378   6.884  49.005  1.00  0.00     0.168 HD
ENDROOT
BRANCH   1  12
HETATM   12  C7  UNL     1      27.150   4.417  48.869  1.00  0.00     0.028 C 
HETATM   13  C6  UNL     1      26.749   4.077  50.082  1.00  0.00    -0.005 C 
BRANCH  13  14
HETATM   14  C5  UNL     1      25.848   2.887  50.299  1.00  0.00     0.147 C 
BRANCH  14  15
HETATM   15  N1  UNL     1      25.814   2.611  51.746  1.00  0.00    -0.386 N 
HETATM   16  H3  UNL     1      25.138   3.148  52.358  1.00  0.00     0.160 HD
BRANCH  15  17
HETATM   17  C4  UNL     1      26.686   1.634  52.305  1.00  0.00     0.029 A 
HETATM   18  C3  UNL     1      27.770   2.102  53.049  1.00  0.00     0.032 A 
HETATM   19  C2  UNL     1      28.568   1.087  53.558  1.00  0.00     0.046 A 
HETATM   20  C1  UNL     1      28.373  -0.249  53.387  1.00  0.00     0.138 A 
HETATM   21  F1  UNL     1      29.247  -1.140  53.949  1.00  0.00    -0.204 F 
HETATM   22  C21 UNL     1      27.267  -0.640  52.630  1.00  0.00     0.074 A 
HETATM   23  C20 UNL     1      26.419   0.311  52.086  1.00  0.00     0.056 A 
HETATM   24 CL1  UNL     1      27.050  -2.376  52.430  1.00  0.00    -0.081 Cl
ENDBRANCH  15  17
ENDBRANCH  14  15
ENDBRANCH  13  14
ENDBRANCH   1  12
BRANCH   5  25
HETATM   25  C13 UNL     1      29.890   8.452  46.534  1.00  0.00     0.060 C 
BRANCH  25  26
HETATM   26  C14 UNL     1      30.322   9.896  46.539  1.00  0.00     0.275 C 
BRANCH  26  27
HETATM   27  N2  UNL     1      31.132  10.290  45.434  1.00  0.00     0.092 N 
HETATM   28  C15 UNL     1      32.125   9.282  45.111  1.00  0.00     0.298 C 
HETATM   29  C16 UNL     1      33.323   9.287  46.004  1.00  0.00     0.198 C 
HETATM   30  O1  UNL     1      33.230  10.085  47.115  1.00  0.00    -0.388 OA
HETATM   31  C17 UNL     1      32.811  11.369  46.886  1.00  0.00     0.198 C 
HETATM   32  C18 UNL     1      31.834  11.504  45.742  1.00  0.00     0.298 C 
ENDBRANCH  26  27
ENDBRANCH  25  26
ENDBRANCH   5  25
TORSDOF 7
ENDMDL
MODEL 9
REMARK VINA RESULT:      -7.6      5.209      9.460
REMARK  7 active torsions:
REMARK  status: ('A' for Active; 'I' for Inactive)
REMARK    1  A    between atoms: C4_5  and  N1_6 
REMARK    2  A    between atoms: N1_6  and  C5_7 
REMARK    3  A    between atoms: C5_7  and  C6_8 
REMARK    4  A    between atoms: C7_9  and  C8_10 
REMARK    5  A    between atoms: C12_14  and  C13_15 
REMARK    6  A    between atoms: C13_15  and  C14_16 
REMARK    7  A    between atoms: C14_16  and  N2_17 
ROOT
HETATM    1  C8  UNL     1      26.069   3.905  49.705  1.00  0.00     0.044 C 
HETATM    2  C9  UNL     1      24.880   4.398  49.855  1.00  0.00    -0.000 A 
HETATM    3  C10 UNL     1      23.624   5.169  49.857  1.00  0.00     0.024 A 
HETATM    4  C11 UNL     1      23.669   4.003  50.516  1.00  0.00    -0.022 A 
HETATM    5  C12 UNL     1      23.366   2.820  51.308  1.00  0.00     0.119 C 
HETATM    6  N3  UNL     1      24.539   2.285  51.910  1.00  0.00    -0.358 N 
HETATM    7  C19 UNL     1      25.855   1.997  51.469  1.00  0.00     0.172 C 
HETATM    8  S1  UNL     1      26.736   0.875  52.255  1.00  0.00    -0.041 SA
HETATM    9  N4  UNL     1      26.454   2.665  50.337  1.00  0.00    -0.333 N 
HETATM   10  H22 UNL     1      24.402   2.036  52.940  1.00  0.00     0.162 HD
HETATM   11  H23 UNL     1      27.279   2.156  49.946  1.00  0.00     0.168 HD
ENDROOT
BRANCH   1  12
HETATM   12  C7  UNL     1      27.115   4.523  48.908  1.00  0.00     0.028 C 
HETATM   13  C6  UNL     1      27.231   5.836  48.813  1.00  0.00    -0.005 C 
BRANCH  13  14
HETATM   14  C5  UNL     1      28.321   6.462  47.981  1.00  0.00     0.147 C 
BRANCH  14  15
HETATM   15  N1  UNL     1      29.469   6.717  48.869  1.00  0.00    -0.386 N 
HETATM   16  H3  UNL     1      29.347   7.363  49.697  1.00  0.00     0.160 HD
BRANCH  15  17
HETATM   17  C4  UNL     1      30.724   6.098  48.605  1.00  0.00     0.029 A 
HETATM   18  C3  UNL     1      31.839   6.621  49.262  1.00  0.00     0.032 A 
HETATM   19  C2  UNL     1      33.020   5.962  48.950  1.00  0.00     0.046 A 
HETATM   20  C1  UNL     1      33.151   4.908  48.100  1.00  0.00     0.138 A 
HETATM   21  F1  UNL     1      34.385   4.356  47.887  1.00  0.00    -0.204 F 
HETATM   22  C21 UNL     1      31.990   4.441  47.480  1.00  0.00     0.074 A 
HETATM   23  C20 UNL     1      30.769   5.042  47.737  1.00  0.00     0.056 A 
HETATM   24 CL1  UNL     1      32.200   3.077  46.387  1.00  0.00    -0.081 Cl
ENDBRANCH  15  17
ENDBRANCH  14  15
ENDBRANCH  13  14
ENDBRANCH   1  12
BRANCH   5  25
HETATM   25  C13 UNL     1      22.756   1.711  50.437  1.00  0.00     0.060 C 
BRANCH  25  26
HETATM   26  C14 UNL     1      21.902   0.857  51.338  1.00  0.00     0.275 C 
BRANCH  26  27
HETATM   27  N2  UNL     1      21.221   1.560  52.374  1.00  0.00     0.092 N 
HETATM   28  C15 UNL     1      21.013   0.725  53.543  1.00  0.00     0.298 C 
HETATM   29  C16 UNL     1      19.870  -0.230  53.424  1.00  0.00     0.198 C 
HETATM   30  O1  UNL     1      19.314  -0.337  52.175  1.00  0.00    -0.388 OA
HETATM   31  C17 UNL     1      18.998   0.851  51.567  1.00  0.00     0.198 C 
HETATM   32  C18 UNL     1      19.929   1.988  51.915  1.00  0.00     0.298 C 
ENDBRANCH  26  27
ENDBRANCH  25  26
ENDBRANCH   5  25
TORSDOF 7
ENDMDL
