MODEL 1
REMARK VINA RESULT:      -7.2      0.000      0.000
REMARK  7 active torsions:
REMARK  status: ('A' for Active; 'I' for Inactive)
REMARK    1  A    between atoms: O1_2  and  C2_3 
REMARK    2  A    between atoms: C7_9  and  N2_10 
REMARK    3  A    between atoms: N2_10  and  C8_11 
REMARK    4  A    between atoms: C11_14  and  O2_15 
REMARK    5  A    between atoms: C13_17  and  O3_18 
REMARK    6  A    between atoms: O3_18  and  S1_19 
REMARK    7  A    between atoms: C17_23  and  O4_24 
ROOT
HETATM    1  C2  UNL     1      27.319   0.656  53.568  1.00  0.00     0.103 A 
HETATM    2  C3  UNL     1      26.736  -0.058  54.595  1.00  0.00     0.072 A 
HETATM    3  C4  UNL     1      25.406  -0.417  54.551  1.00  0.00     0.071 A 
HETATM    4  N1  UNL     1      24.986  -1.119  55.644  1.00  0.00    -0.260 NA
HETATM    5  C5  UNL     1      23.681  -1.517  55.687  1.00  0.00     0.119 A 
HETATM    6  C6  UNL     1      22.888  -1.176  54.615  1.00  0.00     0.049 A 
HETATM    7  C7  UNL     1      23.263  -0.474  53.497  1.00  0.00     0.046 A 
HETATM    8  C15 UNL     1      24.582  -0.093  53.494  1.00  0.00     0.022 A 
HETATM    9  C16 UNL     1      25.207   0.616  52.499  1.00  0.00     0.055 A 
HETATM   10  C17 UNL     1      26.530   1.000  52.491  1.00  0.00     0.102 A 
ENDROOT
BRANCH   7  11
HETATM   11  N2  UNL     1      22.441  -0.118  52.414  1.00  0.00    -0.355 N 
HETATM   12  H7  UNL     1      22.476  -0.597  51.515  1.00  0.00     0.166 HD
BRANCH  11  13
HETATM   13  C8  UNL     1      21.458   0.878  52.273  1.00  0.00     0.035 A 
HETATM   14  C9  UNL     1      20.113   0.629  52.097  1.00  0.00     0.032 A 
HETATM   15  C10 UNL     1      19.123   1.572  51.928  1.00  0.00     0.042 A 
HETATM   16  C11 UNL     1      19.492   2.900  51.933  1.00  0.00     0.102 A 
HETATM   17  C13 UNL     1      20.810   3.259  52.103  1.00  0.00     0.119 A 
HETATM   18  C14 UNL     1      21.731   2.251  52.264  1.00  0.00     0.070 A 
BRANCH  16  19
HETATM   19  O2  UNL     1      18.552   3.902  51.769  1.00  0.00    -0.353 OA
HETATM   20  C12 UNL     1      17.189   3.613  51.530  1.00  0.00     0.210 C 
ENDBRANCH  16  19
BRANCH  17  21
HETATM   21  O3  UNL     1      21.208   4.587  52.112  1.00  0.00    -0.279 OA
BRANCH  21  22
HETATM   22  S1  UNL     1      22.756   5.131  51.551  1.00  0.00    -0.017 SA
HETATM   23  H13 UNL     1      22.764   6.552  51.494  1.00  0.00     0.134 HD
ENDBRANCH  21  22
ENDBRANCH  17  21
ENDBRANCH  11  13
ENDBRANCH   7  11
BRANCH  10  24
HETATM   24  O4  UNL     1      27.098   1.710  51.463  1.00  0.00    -0.353 OA
HETATM   25  C18 UNL     1      26.467   2.758  50.770  1.00  0.00     0.210 C 
ENDBRANCH  10  24
BRANCH   1  26
HETATM   26  O1  UNL     1      28.646   1.032  53.577  1.00  0.00    -0.353 OA
HETATM   27  C1  UNL     1      29.739   0.174  53.576  1.00  0.00     0.210 C 
ENDBRANCH   1  26
TORSDOF 7
ENDMDL
MODEL 2
REMARK VINA RESULT:      -7.1      1.747      2.130
REMARK  7 active torsions:
REMARK  status: ('A' for Active; 'I' for Inactive)
REMARK    1  A    between atoms: O1_2  and  C2_3 
REMARK    2  A    between atoms: C7_9  and  N2_10 
REMARK    3  A    between atoms: N2_10  and  C8_11 
REMARK    4  A    between atoms: C11_14  and  O2_15 
REMARK    5  A    between atoms: C13_17  and  O3_18 
REMARK    6  A    between atoms: O3_18  and  S1_19 
REMARK    7  A    between atoms: C17_23  and  O4_24 
ROOT
HETATM    1  C2  UNL     1      27.309   0.606  53.739  1.00  0.00     0.103 A 
HETATM    2  C3  UNL     1      26.643  -0.115  54.709  1.00  0.00     0.072 A 
HETATM    3  C4  UNL     1      25.307  -0.426  54.576  1.00  0.00     0.071 A 
HETATM    4  N1  UNL     1      24.800  -1.144  55.622  1.00  0.00    -0.260 NA
HETATM    5  C5  UNL     1      23.482  -1.497  55.577  1.00  0.00     0.119 A 
HETATM    6  C6  UNL     1      22.766  -1.099  54.472  1.00  0.00     0.049 A 
HETATM    7  C7  UNL     1      23.230  -0.380  53.398  1.00  0.00     0.046 A 
HETATM    8  C15 UNL     1      24.558  -0.044  53.484  1.00  0.00     0.022 A 
HETATM    9  C16 UNL     1      25.264   0.670  52.548  1.00  0.00     0.055 A 
HETATM   10  C17 UNL     1      26.597   1.008  52.629  1.00  0.00     0.102 A 
ENDROOT
BRANCH   7  11
HETATM   11  N2  UNL     1      22.485   0.035  52.281  1.00  0.00    -0.355 N 
HETATM   12  H7  UNL     1      22.648  -0.331  51.343  1.00  0.00     0.166 HD
BRANCH  11  13
HETATM   13  C8  UNL     1      21.435   0.961  52.147  1.00  0.00     0.035 A 
HETATM   14  C9  UNL     1      21.567   2.323  52.316  1.00  0.00     0.032 A 
HETATM   15  C10 UNL     1      20.562   3.260  52.222  1.00  0.00     0.042 A 
HETATM   16  C11 UNL     1      19.291   2.812  51.928  1.00  0.00     0.102 A 
HETATM   17  C13 UNL     1      19.049   1.470  51.737  1.00  0.00     0.119 A 
HETATM   18  C14 UNL     1      20.112   0.607  51.852  1.00  0.00     0.070 A 
BRANCH  16  19
HETATM   19  O2  UNL     1      18.232   3.695  51.816  1.00  0.00    -0.353 OA
HETATM   20  C12 UNL     1      17.991   4.422  50.628  1.00  0.00     0.210 C 
ENDBRANCH  16  19
BRANCH  17  21
HETATM   21  O3  UNL     1      17.782   0.994  51.440  1.00  0.00    -0.279 OA
BRANCH  21  22
HETATM   22  S1  UNL     1      17.202  -0.567  51.927  1.00  0.00    -0.017 SA
HETATM   23  H13 UNL     1      18.256  -1.515  51.819  1.00  0.00     0.134 HD
ENDBRANCH  21  22
ENDBRANCH  17  21
ENDBRANCH  11  13
ENDBRANCH   7  11
BRANCH  10  24
HETATM   24  O4  UNL     1      27.248   1.726  51.657  1.00  0.00    -0.353 OA
HETATM   25  C18 UNL     1      26.702   2.828  50.976  1.00  0.00     0.210 C 
ENDBRANCH  10  24
BRANCH   1  26
HETATM   26  O1  UNL     1      28.645   0.936  53.836  1.00  0.00    -0.353 OA
HETATM   27  C1  UNL     1      29.716   0.081  53.608  1.00  0.00     0.210 C 
ENDBRANCH   1  26
TORSDOF 7
ENDMDL
MODEL 3
REMARK VINA RESULT:      -7.0      2.219      3.676
REMARK  7 active torsions:
REMARK  status: ('A' for Active; 'I' for Inactive)
REMARK    1  A    between atoms: O1_2  and  C2_3 
REMARK    2  A    between atoms: C7_9  and  N2_10 
REMARK    3  A    between atoms: N2_10  and  C8_11 
REMARK    4  A    between atoms: C11_14  and  O2_15 
REMARK    5  A    between atoms: C13_17  and  O3_18 
REMARK    6  A    between atoms: O3_18  and  S1_19 
REMARK    7  A    between atoms: C17_23  and  O4_24 
ROOT
HETATM    1  C2  UNL     1      27.199  -0.138  53.395  1.00  0.00     0.103 A 
HETATM    2  C3  UNL     1      27.476   0.769  52.392  1.00  0.00     0.072 A 
HETATM    3  C4  UNL     1      26.534   1.685  51.978  1.00  0.00     0.071 A 
HETATM    4  N1  UNL     1      26.966   2.509  50.977  1.00  0.00    -0.260 NA
HETATM    5  C5  UNL     1      26.098   3.450  50.502  1.00  0.00     0.119 A 
HETATM    6  C6  UNL     1      24.848   3.492  51.076  1.00  0.00     0.049 A 
HETATM    7  C7  UNL     1      24.369   2.689  52.080  1.00  0.00     0.046 A 
HETATM    8  C15 UNL     1      25.272   1.757  52.528  1.00  0.00     0.022 A 
HETATM    9  C16 UNL     1      25.045   0.836  53.520  1.00  0.00     0.055 A 
HETATM   10  C17 UNL     1      25.948  -0.100  53.973  1.00  0.00     0.102 A 
ENDROOT
BRANCH   7  11
HETATM   11  N2  UNL     1      23.083   2.731  52.649  1.00  0.00    -0.355 N 
HETATM   12  H7  UNL     1      22.883   3.219  53.522  1.00  0.00     0.166 HD
BRANCH  11  13
HETATM   13  C8  UNL     1      21.858   2.181  52.234  1.00  0.00     0.035 A 
HETATM   14  C9  UNL     1      21.709   0.917  51.702  1.00  0.00     0.032 A 
HETATM   15  C10 UNL     1      20.534   0.350  51.258  1.00  0.00     0.042 A 
HETATM   16  C11 UNL     1      19.384   1.104  51.347  1.00  0.00     0.102 A 
HETATM   17  C13 UNL     1      19.420   2.379  51.865  1.00  0.00     0.119 A 
HETATM   18  C14 UNL     1      20.637   2.864  52.282  1.00  0.00     0.070 A 
BRANCH  16  19
HETATM   19  O2  UNL     1      18.167   0.601  50.922  1.00  0.00    -0.353 OA
HETATM   20  C12 UNL     1      17.497  -0.425  51.629  1.00  0.00     0.210 C 
ENDBRANCH  16  19
BRANCH  17  21
HETATM   21  O3  UNL     1      18.277   3.157  51.966  1.00  0.00    -0.279 OA
BRANCH  21  22
HETATM   22  S1  UNL     1      17.705   4.194  50.699  1.00  0.00    -0.017 SA
HETATM   23  H13 UNL     1      18.459   5.400  50.700  1.00  0.00     0.134 HD
ENDBRANCH  21  22
ENDBRANCH  17  21
ENDBRANCH  11  13
ENDBRANCH   7  11
BRANCH  10  24
HETATM   24  O4  UNL     1      25.660  -0.997  54.972  1.00  0.00    -0.353 OA
HETATM   25  C18 UNL     1      24.376  -1.226  55.496  1.00  0.00     0.210 C 
ENDBRANCH  10  24
BRANCH   1  26
HETATM   26  O1  UNL     1      28.116  -1.069  53.837  1.00  0.00    -0.353 OA
HETATM   27  C1  UNL     1      29.498  -0.964  53.741  1.00  0.00     0.210 C 
ENDBRANCH   1  26
TORSDOF 7
ENDMDL
MODEL 4
REMARK VINA RESULT:      -6.8      2.732      3.057
REMARK  7 active torsions:
REMARK  status: ('A' for Active; 'I' for Inactive)
REMARK    1  A    between atoms: O1_2  and  C2_3 
REMARK    2  A    between atoms: C7_9  and  N2_10 
REMARK    3  A    between atoms: N2_10  and  C8_11 
REMARK    4  A    between atoms: C11_14  and  O2_15 
REMARK    5  A    between atoms: C13_17  and  O3_18 
REMARK    6  A    between atoms: O3_18  and  S1_19 
REMARK    7  A    between atoms: C17_23  and  O4_24 
ROOT
HETATM    1  C2  UNL     1      26.198  -0.242  53.642  1.00  0.00     0.103 A 
HETATM    2  C3  UNL     1      25.166  -0.877  54.302  1.00  0.00     0.072 A 
HETATM    3  C4  UNL     1      23.856  -0.488  54.121  1.00  0.00     0.071 A 
HETATM    4  N1  UNL     1      22.958  -1.218  54.847  1.00  0.00    -0.260 NA
HETATM    5  C5  UNL     1      21.634  -0.903  54.731  1.00  0.00     0.119 A 
HETATM    6  C6  UNL     1      21.310   0.132  53.885  1.00  0.00     0.049 A 
HETATM    7  C7  UNL     1      22.175   0.892  53.136  1.00  0.00     0.046 A 
HETATM    8  C15 UNL     1      23.494   0.544  53.283  1.00  0.00     0.022 A 
HETATM    9  C16 UNL     1      24.554   1.143  52.649  1.00  0.00     0.055 A 
HETATM   10  C17 UNL     1      25.879   0.796  52.792  1.00  0.00     0.102 A 
ENDROOT
BRANCH   7  11
HETATM   11  N2  UNL     1      21.834   1.959  52.286  1.00  0.00    -0.355 N 
HETATM   12  H7  UNL     1      21.395   2.815  52.625  1.00  0.00     0.166 HD
BRANCH  11  13
HETATM   13  C8  UNL     1      21.978   2.133  50.898  1.00  0.00     0.035 A 
HETATM   14  C9  UNL     1      21.503   1.254  49.947  1.00  0.00     0.032 A 
HETATM   15  C10 UNL     1      21.646   1.371  48.582  1.00  0.00     0.042 A 
HETATM   16  C11 UNL     1      22.327   2.468  48.099  1.00  0.00     0.102 A 
HETATM   17  C13 UNL     1      22.841   3.409  48.963  1.00  0.00     0.119 A 
HETATM   18  C14 UNL     1      22.652   3.210  50.310  1.00  0.00     0.070 A 
BRANCH  16  19
HETATM   19  O2  UNL     1      22.509   2.653  46.740  1.00  0.00    -0.353 OA
HETATM   20  C12 UNL     1      21.665   3.499  45.984  1.00  0.00     0.210 C 
ENDBRANCH  16  19
BRANCH  17  21
HETATM   21  O3  UNL     1      23.530   4.521  48.504  1.00  0.00    -0.279 OA
BRANCH  21  22
HETATM   22  S1  UNL     1      24.885   5.222  49.329  1.00  0.00    -0.017 SA
HETATM   23  H13 UNL     1      26.090   4.754  48.737  1.00  0.00     0.134 HD
ENDBRANCH  21  22
ENDBRANCH  17  21
ENDBRANCH  11  13
ENDBRANCH   7  11
BRANCH  10  24
HETATM   24  O4  UNL     1      26.897   1.436  52.129  1.00  0.00    -0.353 OA
HETATM   25  C18 UNL     1      26.725   2.529  51.262  1.00  0.00     0.210 C 
ENDBRANCH  10  24
BRANCH   1  26
HETATM   26  O1  UNL     1      27.520  -0.603  53.796  1.00  0.00    -0.353 OA
HETATM   27  C1  UNL     1      28.411  -0.066  54.716  1.00  0.00     0.210 C 
ENDBRANCH   1  26
TORSDOF 7
ENDMDL
MODEL 5
REMARK VINA RESULT:      -6.8      2.967      3.964
REMARK  7 active torsions:
REMARK  status: ('A' for Active; 'I' for Inactive)
REMARK    1  A    between atoms: O1_2  and  C2_3 
REMARK    2  A    between atoms: C7_9  and  N2_10 
REMARK    3  A    between atoms: N2_10  and  C8_11 
REMARK    4  A    between atoms: C11_14  and  O2_15 
REMARK    5  A    between atoms: C13_17  and  O3_18 
REMARK    6  A    between atoms: O3_18  and  S1_19 
REMARK    7  A    between atoms: C17_23  and  O4_24 
ROOT
HETATM    1  C2  UNL     1      26.579   0.146  54.121  1.00  0.00     0.103 A 
HETATM    2  C3  UNL     1      25.435  -0.555  53.797  1.00  0.00     0.072 A 
HETATM    3  C4  UNL     1      24.313   0.089  53.323  1.00  0.00     0.071 A 
HETATM    4  N1  UNL     1      23.269  -0.748  53.050  1.00  0.00    -0.260 NA
HETATM    5  C5  UNL     1      22.113  -0.198  52.575  1.00  0.00     0.119 A 
HETATM    6  C6  UNL     1      22.094   1.168  52.408  1.00  0.00     0.049 A 
HETATM    7  C7  UNL     1      23.115   2.049  52.667  1.00  0.00     0.046 A 
HETATM    8  C15 UNL     1      24.257   1.455  53.143  1.00  0.00     0.022 A 
HETATM    9  C16 UNL     1      25.417   2.107  53.478  1.00  0.00     0.055 A 
HETATM   10  C17 UNL     1      26.566   1.515  53.955  1.00  0.00     0.102 A 
ENDROOT
BRANCH   7  11
HETATM   11  N2  UNL     1      23.080   3.445  52.507  1.00  0.00    -0.355 N 
HETATM   12  H7  UNL     1      22.911   4.084  53.283  1.00  0.00     0.166 HD
BRANCH  11  13
HETATM   13  C8  UNL     1      23.243   4.262  51.374  1.00  0.00     0.035 A 
HETATM   14  C9  UNL     1      23.879   3.872  50.214  1.00  0.00     0.032 A 
HETATM   15  C10 UNL     1      24.085   4.646  49.094  1.00  0.00     0.042 A 
HETATM   16  C11 UNL     1      23.616   5.942  49.114  1.00  0.00     0.102 A 
HETATM   17  C13 UNL     1      22.964   6.433  50.223  1.00  0.00     0.119 A 
HETATM   18  C14 UNL     1      22.804   5.589  51.296  1.00  0.00     0.070 A 
BRANCH  16  19
HETATM   19  O2  UNL     1      23.785   6.779  48.026  1.00  0.00    -0.353 OA
HETATM   20  C12 UNL     1      22.959   6.690  46.882  1.00  0.00     0.210 C 
ENDBRANCH  16  19
BRANCH  17  21
HETATM   21  O3  UNL     1      22.482   7.732  50.269  1.00  0.00    -0.279 OA
BRANCH  21  22
HETATM   22  S1  UNL     1      20.861   8.172  49.834  1.00  0.00    -0.017 SA
HETATM   23  H13 UNL     1      20.182   8.663  50.982  1.00  0.00     0.134 HD
ENDBRANCH  21  22
ENDBRANCH  17  21
ENDBRANCH  11  13
ENDBRANCH   7  11
BRANCH  10  24
HETATM   24  O4  UNL     1      27.697   2.225  54.274  1.00  0.00    -0.353 OA
HETATM   25  C18 UNL     1      28.701   2.586  53.359  1.00  0.00     0.210 C 
ENDBRANCH  10  24
BRANCH   1  26
HETATM   26  O1  UNL     1      27.721  -0.463  54.598  1.00  0.00    -0.353 OA
HETATM   27  C1  UNL     1      28.746  -0.993  53.826  1.00  0.00     0.210 C 
ENDBRANCH   1  26
TORSDOF 7
ENDMDL
MODEL 6
REMARK VINA RESULT:      -6.8      3.391      6.584
REMARK  7 active torsions:
REMARK  status: ('A' for Active; 'I' for Inactive)
REMARK    1  A    between atoms: O1_2  and  C2_3 
REMARK    2  A    between atoms: C7_9  and  N2_10 
REMARK    3  A    between atoms: N2_10  and  C8_11 
REMARK    4  A    between atoms: C11_14  and  O2_15 
REMARK    5  A    between atoms: C13_17  and  O3_18 
REMARK    6  A    between atoms: O3_18  and  S1_19 
REMARK    7  A    between atoms: C17_23  and  O4_24 
ROOT
HETATM    1  C2  UNL     1      22.472   0.274  53.320  1.00  0.00     0.103 A 
HETATM    2  C3  UNL     1      23.806   0.082  53.619  1.00  0.00     0.072 A 
HETATM    3  C4  UNL     1      24.797   0.726  52.911  1.00  0.00     0.071 A 
HETATM    4  N1  UNL     1      26.062   0.428  53.333  1.00  0.00    -0.260 NA
HETATM    5  C5  UNL     1      27.109   1.021  52.687  1.00  0.00     0.119 A 
HETATM    6  C6  UNL     1      26.802   1.879  51.656  1.00  0.00     0.049 A 
HETATM    7  C7  UNL     1      25.551   2.210  51.197  1.00  0.00     0.046 A 
HETATM    8  C15 UNL     1      24.528   1.592  51.872  1.00  0.00     0.022 A 
HETATM    9  C16 UNL     1      23.189   1.749  51.613  1.00  0.00     0.055 A 
HETATM   10  C17 UNL     1      22.159   1.133  52.288  1.00  0.00     0.102 A 
ENDROOT
BRANCH   7  11
HETATM   11  N2  UNL     1      25.249   3.076  50.132  1.00  0.00    -0.355 N 
HETATM   12  H7  UNL     1      24.453   2.930  49.512  1.00  0.00     0.166 HD
BRANCH  11  13
HETATM   13  C8  UNL     1      25.878   4.245  49.669  1.00  0.00     0.035 A 
HETATM   14  C9  UNL     1      27.058   4.268  48.954  1.00  0.00     0.032 A 
HETATM   15  C10 UNL     1      27.721   5.388  48.506  1.00  0.00     0.042 A 
HETATM   16  C11 UNL     1      27.167   6.619  48.790  1.00  0.00     0.102 A 
HETATM   17  C13 UNL     1      25.990   6.710  49.497  1.00  0.00     0.119 A 
HETATM   18  C14 UNL     1      25.398   5.539  49.905  1.00  0.00     0.070 A 
BRANCH  16  19
HETATM   19  O2  UNL     1      27.777   7.788  48.372  1.00  0.00    -0.353 OA
HETATM   20  C12 UNL     1      29.059   8.165  48.832  1.00  0.00     0.210 C 
ENDBRANCH  16  19
BRANCH  17  21
HETATM   21  O3  UNL     1      25.412   7.935  49.795  1.00  0.00    -0.279 OA
BRANCH  21  22
HETATM   22  S1  UNL     1      23.729   8.140  50.160  1.00  0.00    -0.017 SA
HETATM   23  H13 UNL     1      23.106   8.873  49.114  1.00  0.00     0.134 HD
ENDBRANCH  21  22
ENDBRANCH  17  21
ENDBRANCH  11  13
ENDBRANCH   7  11
BRANCH  10  24
HETATM   24  O4  UNL     1      20.836   1.332  51.980  1.00  0.00    -0.353 OA
HETATM   25  C18 UNL     1      20.088   2.461  52.355  1.00  0.00     0.210 C 
ENDBRANCH  10  24
BRANCH   1  26
HETATM   26  O1  UNL     1      21.453  -0.353  54.007  1.00  0.00    -0.353 OA
HETATM   27  C1  UNL     1      21.372  -1.710  54.289  1.00  0.00     0.210 C 
ENDBRANCH   1  26
TORSDOF 7
ENDMDL
MODEL 7
REMARK VINA RESULT:      -6.8      4.528      7.745
REMARK  7 active torsions:
REMARK  status: ('A' for Active; 'I' for Inactive)
REMARK    1  A    between atoms: O1_2  and  C2_3 
REMARK    2  A    between atoms: C7_9  and  N2_10 
REMARK    3  A    between atoms: N2_10  and  C8_11 
REMARK    4  A    between atoms: C11_14  and  O2_15 
REMARK    5  A    between atoms: C13_17  and  O3_18 
REMARK    6  A    between atoms: O3_18  and  S1_19 
REMARK    7  A    between atoms: C17_23  and  O4_24 
ROOT
HETATM    1  C2  UNL     1      27.789   6.941  47.843  1.00  0.00     0.103 A 
HETATM    2  C3  UNL     1      26.472   7.078  48.235  1.00  0.00     0.072 A 
HETATM    3  C4  UNL     1      25.828   6.081  48.934  1.00  0.00     0.071 A 
HETATM    4  N1  UNL     1      24.531   6.373  49.245  1.00  0.00    -0.260 NA
HETATM    5  C5  UNL     1      23.812   5.442  49.938  1.00  0.00     0.119 A 
HETATM    6  C6  UNL     1      24.460   4.274  50.271  1.00  0.00     0.049 A 
HETATM    7  C7  UNL     1      25.759   3.935  49.981  1.00  0.00     0.046 A 
HETATM    8  C15 UNL     1      26.444   4.898  49.284  1.00  0.00     0.022 A 
HETATM    9  C16 UNL     1      27.750   4.809  48.872  1.00  0.00     0.055 A 
HETATM   10  C17 UNL     1      28.443   5.773  48.173  1.00  0.00     0.102 A 
ENDROOT
BRANCH   7  11
HETATM   11  N2  UNL     1      26.406   2.732  50.312  1.00  0.00    -0.355 N 
HETATM   12  H7  UNL     1      27.121   2.310  49.720  1.00  0.00     0.166 HD
BRANCH  11  13
HETATM   13  C8  UNL     1      26.271   1.868  51.414  1.00  0.00     0.035 A 
HETATM   14  C9  UNL     1      25.099   1.239  51.774  1.00  0.00     0.032 A 
HETATM   15  C10 UNL     1      24.916   0.409  52.858  1.00  0.00     0.042 A 
HETATM   16  C11 UNL     1      26.001   0.171  53.675  1.00  0.00     0.102 A 
HETATM   17  C13 UNL     1      27.220   0.749  53.405  1.00  0.00     0.119 A 
HETATM   18  C14 UNL     1      27.310   1.564  52.302  1.00  0.00     0.070 A 
BRANCH  16  19
HETATM   19  O2  UNL     1      25.893  -0.652  54.782  1.00  0.00    -0.353 OA
HETATM   20  C12 UNL     1      24.637  -1.054  55.291  1.00  0.00     0.210 C 
ENDBRANCH  16  19
BRANCH  17  21
HETATM   21  O3  UNL     1      28.327   0.526  54.210  1.00  0.00    -0.279 OA
BRANCH  21  22
HETATM   22  S1  UNL     1      29.573  -0.620  53.835  1.00  0.00    -0.017 SA
HETATM   23  H13 UNL     1      29.492  -0.971  52.460  1.00  0.00     0.134 HD
ENDBRANCH  21  22
ENDBRANCH  17  21
ENDBRANCH  11  13
ENDBRANCH   7  11
BRANCH  10  24
HETATM   24  O4  UNL     1      29.752   5.624  47.788  1.00  0.00    -0.353 OA
HETATM   25  C18 UNL     1      30.861   5.829  48.627  1.00  0.00     0.210 C 
ENDBRANCH  10  24
BRANCH   1  26
HETATM   26  O1  UNL     1      28.467   7.917  47.142  1.00  0.00    -0.353 OA
HETATM   27  C1  UNL     1      28.241   8.280  45.821  1.00  0.00     0.210 C 
ENDBRANCH   1  26
TORSDOF 7
ENDMDL
MODEL 8
REMARK VINA RESULT:      -6.7      4.090      6.871
REMARK  7 active torsions:
REMARK  status: ('A' for Active; 'I' for Inactive)
REMARK    1  A    between atoms: O1_2  and  C2_3 
REMARK    2  A    between atoms: C7_9  and  N2_10 
REMARK    3  A    between atoms: N2_10  and  C8_11 
REMARK    4  A    between atoms: C11_14  and  O2_15 
REMARK    5  A    between atoms: C13_17  and  O3_18 
REMARK    6  A    between atoms: O3_18  and  S1_19 
REMARK    7  A    between atoms: C17_23  and  O4_24 
ROOT
HETATM    1  C2  UNL     1      25.702  -0.000  53.338  1.00  0.00     0.103 A 
HETATM    2  C3  UNL     1      24.474   0.457  52.905  1.00  0.00     0.072 A 
HETATM    3  C4  UNL     1      24.374   1.373  51.880  1.00  0.00     0.071 A 
HETATM    4  N1  UNL     1      23.089   1.721  51.573  1.00  0.00    -0.260 NA
HETATM    5  C5  UNL     1      22.893   2.625  50.569  1.00  0.00     0.119 A 
HETATM    6  C6  UNL     1      24.015   3.116  49.942  1.00  0.00     0.049 A 
HETATM    7  C7  UNL     1      25.323   2.797  50.213  1.00  0.00     0.046 A 
HETATM    8  C15 UNL     1      25.475   1.887  51.229  1.00  0.00     0.022 A 
HETATM    9  C16 UNL     1      26.672   1.402  51.695  1.00  0.00     0.055 A 
HETATM   10  C17 UNL     1      26.831   0.488  52.713  1.00  0.00     0.102 A 
ENDROOT
BRANCH   7  11
HETATM   11  N2  UNL     1      26.463   3.316  49.576  1.00  0.00    -0.355 N 
HETATM   12  H7  UNL     1      27.242   2.730  49.278  1.00  0.00     0.166 HD
BRANCH  11  13
HETATM   13  C8  UNL     1      26.818   4.628  49.214  1.00  0.00     0.035 A 
HETATM   14  C9  UNL     1      26.030   5.739  49.432  1.00  0.00     0.032 A 
HETATM   15  C10 UNL     1      26.326   7.035  49.070  1.00  0.00     0.042 A 
HETATM   16  C11 UNL     1      27.523   7.264  48.426  1.00  0.00     0.102 A 
HETATM   17  C13 UNL     1      28.385   6.225  48.160  1.00  0.00     0.119 A 
HETATM   18  C14 UNL     1      28.008   4.964  48.557  1.00  0.00     0.070 A 
BRANCH  16  19
HETATM   19  O2  UNL     1      27.888   8.539  48.033  1.00  0.00    -0.353 OA
HETATM   20  C12 UNL     1      27.366   9.135  46.862  1.00  0.00     0.210 C 
ENDBRANCH  16  19
BRANCH  17  21
HETATM   21  O3  UNL     1      29.595   6.429  47.515  1.00  0.00    -0.279 OA
BRANCH  21  22
HETATM   22  S1  UNL     1      31.111   6.592  48.342  1.00  0.00    -0.017 SA
HETATM   23  H13 UNL     1      30.964   6.153  49.686  1.00  0.00     0.134 HD
ENDBRANCH  21  22
ENDBRANCH  17  21
ENDBRANCH  11  13
ENDBRANCH   7  11
BRANCH  10  24
HETATM   24  O4  UNL     1      28.058   0.042  53.135  1.00  0.00    -0.353 OA
HETATM   25  C18 UNL     1      28.919   0.753  53.988  1.00  0.00     0.210 C 
ENDBRANCH  10  24
BRANCH   1  26
HETATM   26  O1  UNL     1      25.843  -0.916  54.359  1.00  0.00    -0.353 OA
HETATM   27  C1  UNL     1      25.248  -0.840  55.612  1.00  0.00     0.210 C 
ENDBRANCH   1  26
TORSDOF 7
ENDMDL
MODEL 9
REMARK VINA RESULT:      -6.6      3.619      6.706
REMARK  7 active torsions:
REMARK  status: ('A' for Active; 'I' for Inactive)
REMARK    1  A    between atoms: O1_2  and  C2_3 
REMARK    2  A    between atoms: C7_9  and  N2_10 
REMARK    3  A    between atoms: N2_10  and  C8_11 
REMARK    4  A    between atoms: C11_14  and  O2_15 
REMARK    5  A    between atoms: C13_17  and  O3_18 
REMARK    6  A    between atoms: O3_18  and  S1_19 
REMARK    7  A    between atoms: C17_23  and  O4_24 
ROOT
HETATM    1  C2  UNL     1      22.534   0.316  53.031  1.00  0.00     0.103 A 
HETATM    2  C3  UNL     1      21.410   0.984  52.589  1.00  0.00     0.072 A 
HETATM    3  C4  UNL     1      21.473   2.301  52.187  1.00  0.00     0.071 A 
HETATM    4  N1  UNL     1      20.274   2.812  51.778  1.00  0.00    -0.260 NA
HETATM    5  C5  UNL     1      20.241   4.112  51.363  1.00  0.00     0.119 A 
HETATM    6  C6  UNL     1      21.429   4.807  51.389  1.00  0.00     0.049 A 
HETATM    7  C7  UNL     1      22.655   4.338  51.789  1.00  0.00     0.046 A 
HETATM    8  C15 UNL     1      22.644   3.028  52.200  1.00  0.00     0.022 A 
HETATM    9  C16 UNL     1      23.732   2.322  52.647  1.00  0.00     0.055 A 
HETATM   10  C17 UNL     1      23.727   1.007  53.059  1.00  0.00     0.102 A 
ENDROOT
BRANCH   7  11
HETATM   11  N2  UNL     1      23.860   5.062  51.827  1.00  0.00    -0.355 N 
HETATM   12  H7  UNL     1      24.212   5.501  52.677  1.00  0.00     0.166 HD
BRANCH  11  13
HETATM   13  C8  UNL     1      24.807   5.355  50.830  1.00  0.00     0.035 A 
HETATM   14  C9  UNL     1      25.532   4.407  50.138  1.00  0.00     0.032 A 
HETATM   15  C10 UNL     1      26.487   4.651  49.176  1.00  0.00     0.042 A 
HETATM   16  C11 UNL     1      26.758   5.965  48.858  1.00  0.00     0.102 A 
HETATM   17  C13 UNL     1      26.089   6.990  49.488  1.00  0.00     0.119 A 
HETATM   18  C14 UNL     1      25.153   6.653  50.436  1.00  0.00     0.070 A 
BRANCH  16  19
HETATM   19  O2  UNL     1      27.704   6.286  47.901  1.00  0.00    -0.353 OA
HETATM   20  C12 UNL     1      29.070   5.961  48.066  1.00  0.00     0.210 C 
ENDBRANCH  16  19
BRANCH  17  21
HETATM   21  O3  UNL     1      26.343   8.319  49.187  1.00  0.00    -0.279 OA
BRANCH  21  22
HETATM   22  S1  UNL     1      27.570   9.265  49.968  1.00  0.00    -0.017 SA
HETATM   23  H13 UNL     1      27.018  10.511  50.372  1.00  0.00     0.134 HD
ENDBRANCH  21  22
ENDBRANCH  17  21
ENDBRANCH  11  13
ENDBRANCH   7  11
BRANCH  10  24
HETATM   24  O4  UNL     1      24.852   0.355  53.498  1.00  0.00    -0.353 OA
HETATM   25  C18 UNL     1      25.986   0.096  52.708  1.00  0.00     0.210 C 
ENDBRANCH  10  24
BRANCH   1  26
HETATM   26  O1  UNL     1      22.510  -1.001  53.440  1.00  0.00    -0.353 OA
HETATM   27  C1  UNL     1      21.829  -1.502  54.543  1.00  0.00     0.210 C 
ENDBRANCH   1  26
TORSDOF 7
ENDMDL
