MODEL 1
REMARK VINA RESULT:      -8.4      0.000      0.000
REMARK  3 active torsions:
REMARK  status: ('A' for Active; 'I' for Inactive)
REMARK    1  A    between atoms: C7_7  and  N1_8 
REMARK    2  A    between atoms: N1_8  and  C8_9 
REMARK    3  A    between atoms: C13_16  and  N4_17 
REMARK       I    between atoms: N4_17  and  C14_18 
REMARK       I    between atoms: C14_18  and  N5_19 
ROOT
HETATM    1  C1  UNL     1      30.525   5.573  47.892  1.00  0.00     0.018 C 
HETATM    2  C2  UNL     1      29.350   5.579  48.179  1.00  0.00    -0.078 C 
HETATM    3  C3  UNL     1      27.957   5.597  48.499  1.00  0.00     0.019 A 
HETATM    4  C4  UNL     1      27.315   6.817  48.497  1.00  0.00     0.021 A 
HETATM    5  C5  UNL     1      25.984   6.854  48.800  1.00  0.00     0.004 A 
HETATM    6  C6  UNL     1      25.299   5.708  49.101  1.00  0.00     0.029 A 
HETATM    7  C7  UNL     1      25.886   4.438  49.123  1.00  0.00     0.035 A 
HETATM    8  C16 UNL     1      27.227   4.485  48.805  1.00  0.00     0.050 A 
ENDROOT
BRANCH   7   9
HETATM    9  N1  UNL     1      25.163   3.264  49.435  1.00  0.00    -0.340 N 
HETATM   10  H5  UNL     1      25.084   2.612  48.610  1.00  0.00     0.167 HD
BRANCH   9  11
HETATM   11  C8  UNL     1      24.571   2.894  50.667  1.00  0.00     0.141 A 
HETATM   12  N2  UNL     1      23.331   3.159  51.054  1.00  0.00    -0.224 NA
HETATM   13  C9  UNL     1      22.795   2.801  52.220  1.00  0.00     0.235 A 
HETATM   14  N3  UNL     1      23.556   2.114  53.091  1.00  0.00    -0.241 NA
HETATM   15  C10 UNL     1      24.841   1.794  52.785  1.00  0.00     0.070 A 
HETATM   16  C11 UNL     1      25.343   2.190  51.566  1.00  0.00     0.037 A 
HETATM   17  C15 UNL     1      25.738   1.133  53.497  1.00  0.00     0.035 A 
HETATM   18  C12 UNL     1      26.617   1.764  51.496  1.00  0.00     0.020 A 
HETATM   19  C13 UNL     1      27.024   1.033  52.730  1.00  0.00     0.135 A 
BRANCH  19  20
HETATM   20  N4  UNL     1      28.100   1.687  53.414  1.00  0.00    -0.332 N 
HETATM   21  C14 UNL     1      29.024   1.245  54.388  1.00  0.00     0.314 C 
HETATM   22  N5  UNL     1      29.951   2.237  54.813  1.00  0.00    -0.352 N 
HETATM   23  O1  UNL     1      28.846   0.033  54.698  1.00  0.00    -0.248 OA
HETATM   24  H10 UNL     1      29.530   3.083  55.291  1.00  0.00     0.160 HD
HETATM   25  H11 UNL     1      30.959   2.499  54.855  1.00  0.00     0.160 HD
HETATM   26  H9  UNL     1      28.092   2.678  53.028  1.00  0.00     0.165 HD
ENDBRANCH  19  20
ENDBRANCH   9  11
ENDBRANCH   7   9
TORSDOF 3
ENDMDL
MODEL 2
REMARK VINA RESULT:      -8.0      2.159      3.421
REMARK  3 active torsions:
REMARK  status: ('A' for Active; 'I' for Inactive)
REMARK    1  A    between atoms: C7_7  and  N1_8 
REMARK    2  A    between atoms: N1_8  and  C8_9 
REMARK    3  A    between atoms: C13_16  and  N4_17 
REMARK       I    between atoms: N4_17  and  C14_18 
REMARK       I    between atoms: C14_18  and  N5_19 
ROOT
HETATM    1  C1  UNL     1      26.980   4.837  48.914  1.00  0.00     0.018 C 
HETATM    2  C2  UNL     1      25.972   4.528  49.506  1.00  0.00    -0.078 C 
HETATM    3  C3  UNL     1      24.768   4.176  50.193  1.00  0.00     0.019 A 
HETATM    4  C4  UNL     1      23.947   5.201  50.612  1.00  0.00     0.021 A 
HETATM    5  C5  UNL     1      22.792   4.884  51.269  1.00  0.00     0.004 A 
HETATM    6  C6  UNL     1      22.455   3.579  51.508  1.00  0.00     0.029 A 
HETATM    7  C7  UNL     1      23.240   2.490  51.112  1.00  0.00     0.035 A 
HETATM    8  C16 UNL     1      24.384   2.893  50.456  1.00  0.00     0.050 A 
ENDROOT
BRANCH   7   9
HETATM    9  N1  UNL     1      22.876   1.149  51.367  1.00  0.00    -0.340 N 
HETATM   10  H5  UNL     1      22.794   0.581  50.481  1.00  0.00     0.167 HD
BRANCH   9  11
HETATM   11  C8  UNL     1      22.626   0.524  52.613  1.00  0.00     0.141 A 
HETATM   12  N2  UNL     1      21.450   0.414  53.216  1.00  0.00    -0.224 NA
HETATM   13  C9  UNL     1      21.240  -0.179  54.390  1.00  0.00     0.235 A 
HETATM   14  N3  UNL     1      22.291  -0.717  55.034  1.00  0.00    -0.241 NA
HETATM   15  C10 UNL     1      23.537  -0.656  54.495  1.00  0.00     0.070 A 
HETATM   16  C11 UNL     1      23.697  -0.030  53.280  1.00  0.00     0.037 A 
HETATM   17  C15 UNL     1      24.682  -1.119  54.967  1.00  0.00     0.035 A 
HETATM   18  C12 UNL     1      25.002  -0.096  52.960  1.00  0.00     0.020 A 
HETATM   19  C13 UNL     1      25.793  -0.805  54.007  1.00  0.00     0.135 A 
BRANCH  19  20
HETATM   20  N4  UNL     1      26.781   0.045  54.602  1.00  0.00    -0.332 N 
HETATM   21  C14 UNL     1      28.194  -0.007  54.635  1.00  0.00     0.314 C 
HETATM   22  N5  UNL     1      28.806   1.058  55.353  1.00  0.00    -0.352 N 
HETATM   23  O1  UNL     1      28.648  -1.008  54.011  1.00  0.00    -0.248 OA
HETATM   24  H10 UNL     1      28.572   1.110  56.384  1.00  0.00     0.160 HD
HETATM   25  H11 UNL     1      29.444   1.879  55.279  1.00  0.00     0.160 HD
HETATM   26  H9  UNL     1      26.217   0.814  55.073  1.00  0.00     0.165 HD
ENDBRANCH  19  20
ENDBRANCH   9  11
ENDBRANCH   7   9
TORSDOF 3
ENDMDL
MODEL 3
REMARK VINA RESULT:      -7.9      3.647      7.750
REMARK  3 active torsions:
REMARK  status: ('A' for Active; 'I' for Inactive)
REMARK    1  A    between atoms: C7_7  and  N1_8 
REMARK    2  A    between atoms: N1_8  and  C8_9 
REMARK    3  A    between atoms: C13_16  and  N4_17 
REMARK       I    between atoms: N4_17  and  C14_18 
REMARK       I    between atoms: C14_18  and  N5_19 
ROOT
HETATM    1  C1  UNL     1      17.725  -0.519  52.203  1.00  0.00     0.018 C 
HETATM    2  C2  UNL     1      18.846  -0.477  52.655  1.00  0.00    -0.078 C 
HETATM    3  C3  UNL     1      20.174  -0.448  53.184  1.00  0.00     0.019 A 
HETATM    4  C4  UNL     1      20.540  -1.454  54.052  1.00  0.00     0.021 A 
HETATM    5  C5  UNL     1      21.804  -1.444  54.567  1.00  0.00     0.004 A 
HETATM    6  C6  UNL     1      22.692  -0.457  54.231  1.00  0.00     0.029 A 
HETATM    7  C7  UNL     1      22.389   0.594  53.358  1.00  0.00     0.035 A 
HETATM    8  C16 UNL     1      21.098   0.511  52.882  1.00  0.00     0.050 A 
ENDROOT
BRANCH   7   9
HETATM    9  N1  UNL     1      23.318   1.604  53.022  1.00  0.00    -0.340 N 
HETATM   10  H5  UNL     1      22.944   2.572  53.214  1.00  0.00     0.167 HD
BRANCH   9  11
HETATM   11  C8  UNL     1      24.622   1.461  52.486  1.00  0.00     0.141 A 
HETATM   12  N2  UNL     1      25.494   0.509  52.783  1.00  0.00    -0.224 NA
HETATM   13  C9  UNL     1      26.716   0.395  52.265  1.00  0.00     0.235 A 
HETATM   14  N3  UNL     1      27.119   1.311  51.366  1.00  0.00    -0.241 NA
HETATM   15  C10 UNL     1      26.295   2.327  50.997  1.00  0.00     0.070 A 
HETATM   16  C11 UNL     1      25.043   2.396  51.564  1.00  0.00     0.037 A 
HETATM   17  C15 UNL     1      26.504   3.312  50.141  1.00  0.00     0.035 A 
HETATM   18  C12 UNL     1      24.424   3.472  51.048  1.00  0.00     0.020 A 
HETATM   19  C13 UNL     1      25.290   4.192  50.070  1.00  0.00     0.135 A 
BRANCH  19  20
HETATM   20  N4  UNL     1      25.581   5.530  50.491  1.00  0.00    -0.332 N 
HETATM   21  C14 UNL     1      26.027   6.677  49.794  1.00  0.00     0.314 C 
HETATM   22  N5  UNL     1      26.196   7.831  50.608  1.00  0.00    -0.352 N 
HETATM   23  O1  UNL     1      26.193   6.451  48.562  1.00  0.00    -0.248 OA
HETATM   24  H10 UNL     1      26.925   7.752  51.372  1.00  0.00     0.160 HD
HETATM   25  H11 UNL     1      25.873   8.808  50.779  1.00  0.00     0.160 HD
HETATM   26  H9  UNL     1      25.387   5.524  51.536  1.00  0.00     0.165 HD
ENDBRANCH  19  20
ENDBRANCH   9  11
ENDBRANCH   7   9
TORSDOF 3
ENDMDL
MODEL 4
REMARK VINA RESULT:      -7.7      1.448      2.293
REMARK  3 active torsions:
REMARK  status: ('A' for Active; 'I' for Inactive)
REMARK    1  A    between atoms: C7_7  and  N1_8 
REMARK    2  A    between atoms: N1_8  and  C8_9 
REMARK    3  A    between atoms: C13_16  and  N4_17 
REMARK       I    between atoms: N4_17  and  C14_18 
REMARK       I    between atoms: C14_18  and  N5_19 
ROOT
HETATM    1  C1  UNL     1      25.861   9.679  48.618  1.00  0.00     0.018 C 
HETATM    2  C2  UNL     1      26.303   8.554  48.616  1.00  0.00    -0.078 C 
HETATM    3  C3  UNL     1      26.843   7.229  48.624  1.00  0.00     0.019 A 
HETATM    4  C4  UNL     1      28.141   7.065  48.190  1.00  0.00     0.021 A 
HETATM    5  C5  UNL     1      28.674   5.808  48.191  1.00  0.00     0.004 A 
HETATM    6  C6  UNL     1      27.939   4.733  48.613  1.00  0.00     0.029 A 
HETATM    7  C7  UNL     1      26.619   4.826  49.067  1.00  0.00     0.035 A 
HETATM    8  C16 UNL     1      26.155   6.125  49.036  1.00  0.00     0.050 A 
ENDROOT
BRANCH   7   9
HETATM    9  N1  UNL     1      25.875   3.706  49.500  1.00  0.00    -0.340 N 
HETATM   10  H5  UNL     1      25.829   2.948  48.767  1.00  0.00     0.167 HD
BRANCH   9  11
HETATM   11  C8  UNL     1      25.223   3.506  50.742  1.00  0.00     0.141 A 
HETATM   12  N2  UNL     1      24.313   4.300  51.289  1.00  0.00    -0.224 NA
HETATM   13  C9  UNL     1      23.713   4.091  52.459  1.00  0.00     0.235 A 
HETATM   14  N3  UNL     1      24.042   2.991  53.161  1.00  0.00    -0.241 NA
HETATM   15  C10 UNL     1      24.965   2.116  52.683  1.00  0.00     0.070 A 
HETATM   16  C11 UNL     1      25.554   2.382  51.467  1.00  0.00     0.037 A 
HETATM   17  C15 UNL     1      25.417   0.994  53.216  1.00  0.00     0.035 A 
HETATM   18  C12 UNL     1      26.421   1.386  51.212  1.00  0.00     0.020 A 
HETATM   19  C13 UNL     1      26.437   0.373  52.306  1.00  0.00     0.135 A 
BRANCH  19  20
HETATM   20  N4  UNL     1      27.721   0.281  52.936  1.00  0.00    -0.332 N 
HETATM   21  C14 UNL     1      28.491  -0.817  53.384  1.00  0.00     0.314 C 
HETATM   22  N5  UNL     1      29.739  -0.462  53.967  1.00  0.00    -0.352 N 
HETATM   23  O1  UNL     1      27.911  -1.920  53.178  1.00  0.00    -0.248 OA
HETATM   24  H10 UNL     1      29.684   0.130  54.844  1.00  0.00     0.160 HD
HETATM   25  H11 UNL     1      30.774  -0.550  53.884  1.00  0.00     0.160 HD
HETATM   26  H9  UNL     1      28.043   1.291  53.024  1.00  0.00     0.165 HD
ENDBRANCH  19  20
ENDBRANCH   9  11
ENDBRANCH   7   9
TORSDOF 3
ENDMDL
MODEL 5
REMARK VINA RESULT:      -7.5      2.914      6.902
REMARK  3 active torsions:
REMARK  status: ('A' for Active; 'I' for Inactive)
REMARK    1  A    between atoms: C7_7  and  N1_8 
REMARK    2  A    between atoms: N1_8  and  C8_9 
REMARK    3  A    between atoms: C13_16  and  N4_17 
REMARK       I    between atoms: N4_17  and  C14_18 
REMARK       I    between atoms: C14_18  and  N5_19 
ROOT
HETATM    1  C1  UNL     1      17.591  -0.736  52.370  1.00  0.00     0.018 C 
HETATM    2  C2  UNL     1      18.735  -0.597  52.737  1.00  0.00    -0.078 C 
HETATM    3  C3  UNL     1      20.093  -0.452  53.161  1.00  0.00     0.019 A 
HETATM    4  C4  UNL     1      20.691  -1.531  53.775  1.00  0.00     0.021 A 
HETATM    5  C5  UNL     1      21.987  -1.412  54.186  1.00  0.00     0.004 A 
HETATM    6  C6  UNL     1      22.681  -0.248  53.994  1.00  0.00     0.029 A 
HETATM    7  C7  UNL     1      22.139   0.885  53.378  1.00  0.00     0.035 A 
HETATM    8  C16 UNL     1      20.830   0.684  52.992  1.00  0.00     0.050 A 
ENDROOT
BRANCH   7   9
HETATM    9  N1  UNL     1      22.870   2.080  53.187  1.00  0.00    -0.340 N 
HETATM   10  H5  UNL     1      22.634   2.813  53.908  1.00  0.00     0.167 HD
BRANCH   9  11
HETATM   11  C8  UNL     1      23.829   2.376  52.188  1.00  0.00     0.141 A 
HETATM   12  N2  UNL     1      23.588   2.918  51.003  1.00  0.00    -0.224 NA
HETATM   13  C9  UNL     1      24.508   3.188  50.078  1.00  0.00     0.235 A 
HETATM   14  N3  UNL     1      25.793   2.895  50.348  1.00  0.00    -0.241 NA
HETATM   15  C10 UNL     1      26.141   2.338  51.538  1.00  0.00     0.070 A 
HETATM   16  C11 UNL     1      25.148   2.079  52.456  1.00  0.00     0.037 A 
HETATM   17  C15 UNL     1      27.333   1.981  51.985  1.00  0.00     0.035 A 
HETATM   18  C12 UNL     1      25.731   1.534  53.539  1.00  0.00     0.020 A 
HETATM   19  C13 UNL     1      27.207   1.405  53.366  1.00  0.00     0.135 A 
BRANCH  19  20
HETATM   20  N4  UNL     1      27.637   0.039  53.410  1.00  0.00    -0.332 N 
HETATM   21  C14 UNL     1      28.915  -0.559  53.500  1.00  0.00     0.314 C 
HETATM   22  N5  UNL     1      28.899  -1.981  53.515  1.00  0.00    -0.352 N 
HETATM   23  O1  UNL     1      29.840   0.300  53.551  1.00  0.00    -0.248 OA
HETATM   24  H10 UNL     1      28.510  -2.445  52.646  1.00  0.00     0.160 HD
HETATM   25  H11 UNL     1      29.132  -2.831  54.073  1.00  0.00     0.160 HD
HETATM   26  H9  UNL     1      26.735  -0.522  53.357  1.00  0.00     0.165 HD
ENDBRANCH  19  20
ENDBRANCH   9  11
ENDBRANCH   7   9
TORSDOF 3
ENDMDL
MODEL 6
REMARK VINA RESULT:      -7.4      3.930      7.232
REMARK  3 active torsions:
REMARK  status: ('A' for Active; 'I' for Inactive)
REMARK    1  A    between atoms: C7_7  and  N1_8 
REMARK    2  A    between atoms: N1_8  and  C8_9 
REMARK    3  A    between atoms: C13_16  and  N4_17 
REMARK       I    between atoms: N4_17  and  C14_18 
REMARK       I    between atoms: C14_18  and  N5_19 
ROOT
HETATM    1  C1  UNL     1      21.995  -1.384  54.332  1.00  0.00     0.018 C 
HETATM    2  C2  UNL     1      22.782  -0.601  53.852  1.00  0.00    -0.078 C 
HETATM    3  C3  UNL     1      23.719   0.309  53.270  1.00  0.00     0.019 A 
HETATM    4  C4  UNL     1      25.011  -0.134  53.082  1.00  0.00     0.021 A 
HETATM    5  C5  UNL     1      25.920   0.721  52.527  1.00  0.00     0.004 A 
HETATM    6  C6  UNL     1      25.560   1.990  52.164  1.00  0.00     0.029 A 
HETATM    7  C7  UNL     1      24.269   2.506  52.325  1.00  0.00     0.035 A 
HETATM    8  C16 UNL     1      23.413   1.584  52.889  1.00  0.00     0.050 A 
ENDROOT
BRANCH   7   9
HETATM    9  N1  UNL     1      23.914   3.820  51.944  1.00  0.00    -0.340 N 
HETATM   10  H5  UNL     1      23.776   4.454  52.776  1.00  0.00     0.167 HD
BRANCH   9  11
HETATM   11  C8  UNL     1      23.735   4.342  50.640  1.00  0.00     0.141 A 
HETATM   12  N2  UNL     1      23.194   3.711  49.607  1.00  0.00    -0.224 NA
HETATM   13  C9  UNL     1      23.037   4.224  48.388  1.00  0.00     0.235 A 
HETATM   14  N3  UNL     1      23.454   5.483  48.163  1.00  0.00    -0.241 NA
HETATM   15  C10 UNL     1      24.022   6.212  49.160  1.00  0.00     0.070 A 
HETATM   16  C11 UNL     1      24.161   5.631  50.400  1.00  0.00     0.037 A 
HETATM   17  C15 UNL     1      24.489   7.448  49.138  1.00  0.00     0.035 A 
HETATM   18  C12 UNL     1      24.742   6.537  51.207  1.00  0.00     0.020 A 
HETATM   19  C13 UNL     1      25.024   7.815  50.492  1.00  0.00     0.135 A 
BRANCH  19  20
HETATM   20  N4  UNL     1      26.426   8.108  50.446  1.00  0.00    -0.332 N 
HETATM   21  C14 UNL     1      27.150   9.262  50.069  1.00  0.00     0.314 C 
HETATM   22  N5  UNL     1      28.562   9.130  50.171  1.00  0.00    -0.352 N 
HETATM   23  O1  UNL     1      26.389  10.204  49.708  1.00  0.00    -0.248 OA
HETATM   24  H10 UNL     1      29.001   8.394  49.549  1.00  0.00     0.160 HD
HETATM   25  H11 UNL     1      29.420   9.489  50.644  1.00  0.00     0.160 HD
HETATM   26  H9  UNL     1      26.892   7.212  50.778  1.00  0.00     0.165 HD
ENDBRANCH  19  20
ENDBRANCH   9  11
ENDBRANCH   7   9
TORSDOF 3
ENDMDL
MODEL 7
REMARK VINA RESULT:      -7.4      6.500      9.638
REMARK  3 active torsions:
REMARK  status: ('A' for Active; 'I' for Inactive)
REMARK    1  A    between atoms: C7_7  and  N1_8 
REMARK    2  A    between atoms: N1_8  and  C8_9 
REMARK    3  A    between atoms: C13_16  and  N4_17 
REMARK       I    between atoms: N4_17  and  C14_18 
REMARK       I    between atoms: C14_18  and  N5_19 
ROOT
HETATM    1  C1  UNL     1      26.348   3.456  49.522  1.00  0.00     0.018 C 
HETATM    2  C2  UNL     1      27.017   4.346  49.049  1.00  0.00    -0.078 C 
HETATM    3  C3  UNL     1      27.798   5.413  48.504  1.00  0.00     0.019 A 
HETATM    4  C4  UNL     1      27.135   6.554  48.108  1.00  0.00     0.021 A 
HETATM    5  C5  UNL     1      27.865   7.584  47.585  1.00  0.00     0.004 A 
HETATM    6  C6  UNL     1      29.224   7.488  47.457  1.00  0.00     0.029 A 
HETATM    7  C7  UNL     1      29.961   6.361  47.838  1.00  0.00     0.035 A 
HETATM    8  C16 UNL     1      29.154   5.370  48.355  1.00  0.00     0.050 A 
ENDROOT
BRANCH   7   9
HETATM    9  N1  UNL     1      31.365   6.279  47.699  1.00  0.00    -0.340 N 
HETATM   10  H5  UNL     1      31.842   7.196  47.911  1.00  0.00     0.167 HD
BRANCH   9  11
HETATM   11  C8  UNL     1      32.151   5.161  47.326  1.00  0.00     0.141 A 
HETATM   12  N2  UNL     1      32.355   4.068  48.048  1.00  0.00    -0.224 NA
HETATM   13  C9  UNL     1      33.099   3.028  47.676  1.00  0.00     0.235 A 
HETATM   14  N3  UNL     1      33.702   3.068  46.474  1.00  0.00    -0.241 NA
HETATM   15  C10 UNL     1      33.552   4.147  45.660  1.00  0.00     0.070 A 
HETATM   16  C11 UNL     1      32.772   5.194  46.096  1.00  0.00     0.037 A 
HETATM   17  C15 UNL     1      34.056   4.373  44.459  1.00  0.00     0.035 A 
HETATM   18  C12 UNL     1      32.777   6.131  45.131  1.00  0.00     0.020 A 
HETATM   19  C13 UNL     1      33.604   5.715  43.962  1.00  0.00     0.135 A 
BRANCH  19  20
HETATM   20  N4  UNL     1      34.711   6.598  43.744  1.00  0.00    -0.332 N 
HETATM   21  C14 UNL     1      35.534   6.842  42.620  1.00  0.00     0.314 C 
HETATM   22  N5  UNL     1      36.543   7.822  42.831  1.00  0.00    -0.352 N 
HETATM   23  O1  UNL     1      35.208   6.131  41.628  1.00  0.00    -0.248 OA
HETATM   24  H10 UNL     1      37.263   7.587  43.572  1.00  0.00     0.160 HD
HETATM   25  H11 UNL     1      36.901   8.755  42.533  1.00  0.00     0.160 HD
HETATM   26  H9  UNL     1      34.832   7.101  44.672  1.00  0.00     0.165 HD
ENDBRANCH  19  20
ENDBRANCH   9  11
ENDBRANCH   7   9
TORSDOF 3
ENDMDL
MODEL 8
REMARK VINA RESULT:      -7.0      4.899      7.681
REMARK  3 active torsions:
REMARK  status: ('A' for Active; 'I' for Inactive)
REMARK    1  A    between atoms: C7_7  and  N1_8 
REMARK    2  A    between atoms: N1_8  and  C8_9 
REMARK    3  A    between atoms: C13_16  and  N4_17 
REMARK       I    between atoms: N4_17  and  C14_18 
REMARK       I    between atoms: C14_18  and  N5_19 
ROOT
HETATM    1  C1  UNL     1      25.257   3.102  50.387  1.00  0.00     0.018 C 
HETATM    2  C2  UNL     1      25.584   4.080  49.756  1.00  0.00    -0.078 C 
HETATM    3  C3  UNL     1      25.961   5.250  49.024  1.00  0.00     0.019 A 
HETATM    4  C4  UNL     1      24.976   6.169  48.734  1.00  0.00     0.021 A 
HETATM    5  C5  UNL     1      25.318   7.292  48.037  1.00  0.00     0.004 A 
HETATM    6  C6  UNL     1      26.608   7.503  47.633  1.00  0.00     0.029 A 
HETATM    7  C7  UNL     1      27.657   6.614  47.891  1.00  0.00     0.035 A 
HETATM    8  C16 UNL     1      27.232   5.510  48.599  1.00  0.00     0.050 A 
ENDROOT
BRANCH   7   9
HETATM    9  N1  UNL     1      28.985   6.849  47.467  1.00  0.00    -0.340 N 
HETATM   10  H5  UNL     1      29.122   6.630  46.444  1.00  0.00     0.167 HD
BRANCH   9  11
HETATM   11  C8  UNL     1      30.084   7.319  48.227  1.00  0.00     0.141 A 
HETATM   12  N2  UNL     1      30.130   8.441  48.931  1.00  0.00    -0.224 NA
HETATM   13  C9  UNL     1      31.177   8.863  49.638  1.00  0.00     0.235 A 
HETATM   14  N3  UNL     1      32.288   8.105  49.654  1.00  0.00    -0.241 NA
HETATM   15  C10 UNL     1      32.337   6.935  48.963  1.00  0.00     0.070 A 
HETATM   16  C11 UNL     1      31.226   6.548  48.248  1.00  0.00     0.037 A 
HETATM   17  C15 UNL     1      33.324   6.062  48.855  1.00  0.00     0.035 A 
HETATM   18  C12 UNL     1      31.515   5.376  47.657  1.00  0.00     0.020 A 
HETATM   19  C13 UNL     1      32.899   4.921  47.975  1.00  0.00     0.135 A 
BRANCH  19  20
HETATM   20  N4  UNL     1      33.718   4.824  46.803  1.00  0.00    -0.332 N 
HETATM   21  C14 UNL     1      34.801   3.983  46.459  1.00  0.00     0.314 C 
HETATM   22  N5  UNL     1      35.345   4.223  45.168  1.00  0.00    -0.352 N 
HETATM   23  O1  UNL     1      35.081   3.167  47.382  1.00  0.00    -0.248 OA
HETATM   24  H10 UNL     1      35.768   5.182  45.018  1.00  0.00     0.160 HD
HETATM   25  H11 UNL     1      35.516   3.811  44.225  1.00  0.00     0.160 HD
HETATM   26  H9  UNL     1      33.337   5.576  46.155  1.00  0.00     0.165 HD
ENDBRANCH  19  20
ENDBRANCH   9  11
ENDBRANCH   7   9
TORSDOF 3
ENDMDL
MODEL 9
REMARK VINA RESULT:      -7.0      3.502      4.585
REMARK  3 active torsions:
REMARK  status: ('A' for Active; 'I' for Inactive)
REMARK    1  A    between atoms: C7_7  and  N1_8 
REMARK    2  A    between atoms: N1_8  and  C8_9 
REMARK    3  A    between atoms: C13_16  and  N4_17 
REMARK       I    between atoms: N4_17  and  C14_18 
REMARK       I    between atoms: C14_18  and  N5_19 
ROOT
HETATM    1  C1  UNL     1      26.757   9.066  47.391  1.00  0.00     0.018 C 
HETATM    2  C2  UNL     1      26.644   7.948  47.836  1.00  0.00    -0.078 C 
HETATM    3  C3  UNL     1      26.528   6.628  48.374  1.00  0.00     0.019 A 
HETATM    4  C4  UNL     1      27.641   5.816  48.324  1.00  0.00     0.021 A 
HETATM    5  C5  UNL     1      27.549   4.552  48.833  1.00  0.00     0.004 A 
HETATM    6  C6  UNL     1      26.380   4.098  49.382  1.00  0.00     0.029 A 
HETATM    7  C7  UNL     1      25.214   4.866  49.466  1.00  0.00     0.035 A 
HETATM    8  C16 UNL     1      25.388   6.126  48.933  1.00  0.00     0.050 A 
ENDROOT
BRANCH   7   9
HETATM    9  N1  UNL     1      24.015   4.382  50.036  1.00  0.00    -0.340 N 
HETATM   10  H5  UNL     1      23.872   4.730  51.022  1.00  0.00     0.167 HD
BRANCH   9  11
HETATM   11  C8  UNL     1      23.043   3.529  49.457  1.00  0.00     0.141 A 
HETATM   12  N2  UNL     1      22.419   3.719  48.303  1.00  0.00    -0.224 NA
HETATM   13  C9  UNL     1      21.508   2.901  47.778  1.00  0.00     0.235 A 
HETATM   14  N3  UNL     1      21.179   1.787  48.456  1.00  0.00    -0.241 NA
HETATM   15  C10 UNL     1      21.765   1.505  49.649  1.00  0.00     0.070 A 
HETATM   16  C11 UNL     1      22.700   2.386  50.145  1.00  0.00     0.037 A 
HETATM   17  C15 UNL     1      21.579   0.475  50.457  1.00  0.00     0.035 A 
HETATM   18  C12 UNL     1      23.131   1.897  51.322  1.00  0.00     0.020 A 
HETATM   19  C13 UNL     1      22.462   0.609  51.664  1.00  0.00     0.135 A 
BRANCH  19  20
HETATM   20  N4  UNL     1      21.695   0.705  52.871  1.00  0.00    -0.332 N 
HETATM   21  C14 UNL     1      21.389  -0.230  53.887  1.00  0.00     0.314 C 
HETATM   22  N5  UNL     1      20.578   0.285  54.936  1.00  0.00    -0.352 N 
HETATM   23  O1  UNL     1      21.904  -1.362  53.663  1.00  0.00    -0.248 OA
HETATM   24  H10 UNL     1      19.611   0.611  54.651  1.00  0.00     0.160 HD
HETATM   25  H11 UNL     1      20.535   0.492  55.957  1.00  0.00     0.160 HD
HETATM   26  H9  UNL     1      21.350   1.710  52.884  1.00  0.00     0.165 HD
ENDBRANCH  19  20
ENDBRANCH   9  11
ENDBRANCH   7   9
TORSDOF 3
ENDMDL
