MODEL 1
REMARK VINA RESULT:      -8.0      0.000      0.000
REMARK  6 active torsions:
REMARK  status: ('A' for Active; 'I' for Inactive)
REMARK    1  A    between atoms: C5_7  and  C6_8 
REMARK    2  A    between atoms: C7_9  and  C8_10 
REMARK    3  A    between atoms: C9_11  and  C10_12 
REMARK    4  A    between atoms: N4_20  and  C16_21 
REMARK    5  A    between atoms: C16_21  and  C17_22 
REMARK    6  A    between atoms: C17_22  and  N5_23 
ROOT
HETATM    1  C8  UNL     1      24.025   2.189  51.125  1.00  0.00     0.061 A 
HETATM    2  C9  UNL     1      24.400   3.278  50.332  1.00  0.00     0.074 A 
HETATM    3  N3  UNL     1      23.432   3.309  49.410  1.00  0.00    -0.245 NA
HETATM    4  C15 UNL     1      22.527   2.338  49.593  1.00  0.00     0.210 A 
HETATM    5  N4  UNL     1      22.904   1.640  50.668  1.00  0.00    -0.338 N 
ENDROOT
BRANCH   1   6
HETATM    6  C7  UNL     1      24.790   1.753  52.273  1.00  0.00     0.030 C 
HETATM    7  C6  UNL     1      25.736   0.891  52.599  1.00  0.00     0.007 C 
BRANCH   7   8
HETATM    8  C5  UNL     1      26.423   0.567  53.864  1.00  0.00     0.158 C 
HETATM    9  C3  UNL     1      27.843   0.226  53.628  1.00  0.00    -0.015 C 
HETATM   10  C2  UNL     1      28.295  -0.991  53.462  1.00  0.00    -0.020 C 
HETATM   11  C4  UNL     1      28.585   1.481  53.622  1.00  0.00     0.147 C 
HETATM   12  C1  UNL     1      29.697  -1.392  53.224  1.00  0.00     0.036 C 
HETATM   13  N1  UNL     1      27.838   2.413  54.161  1.00  0.00    -0.190 NA
HETATM   14  N2  UNL     1      26.597   1.860  54.547  1.00  0.00    -0.301 N 
HETATM   15  H6  UNL     1      26.114   2.505  55.221  1.00  0.00     0.183 HD
ENDBRANCH   7   8
ENDBRANCH   1   6
BRANCH   2  16
HETATM   16  C10 UNL     1      25.570   4.186  50.459  1.00  0.00     0.088 A 
HETATM   17  C11 UNL     1      26.769   3.701  49.762  1.00  0.00    -0.009 A 
HETATM   18  C12 UNL     1      27.151   4.522  48.799  1.00  0.00     0.039 A 
HETATM   19  C13 UNL     1      26.213   5.666  48.763  1.00  0.00     0.113 A 
HETATM   20  F1  UNL     1      26.209   6.755  47.941  1.00  0.00    -0.206 F 
HETATM   21  C14 UNL     1      25.309   5.470  49.715  1.00  0.00     0.030 A 
ENDBRANCH   2  16
BRANCH   5  22
HETATM   22  C16 UNL     1      22.122   0.520  51.141  1.00  0.00     0.160 C 
BRANCH  22  23
HETATM   23  C17 UNL     1      21.235   0.902  52.301  1.00  0.00     0.291 C 
BRANCH  23  24
HETATM   24  N5  UNL     1      21.803   0.363  53.526  1.00  0.00     0.081 N 
HETATM   25  C18 UNL     1      20.828   0.176  54.560  1.00  0.00     0.309 C 
HETATM   26  C19 UNL     1      22.340  -0.946  53.168  1.00  0.00     0.309 C 
ENDBRANCH  23  24
ENDBRANCH  22  23
ENDBRANCH   5  22
TORSDOF 6
ENDMDL
MODEL 2
REMARK VINA RESULT:      -7.8      2.965      5.897
REMARK  6 active torsions:
REMARK  status: ('A' for Active; 'I' for Inactive)
REMARK    1  A    between atoms: C5_7  and  C6_8 
REMARK    2  A    between atoms: C7_9  and  C8_10 
REMARK    3  A    between atoms: C9_11  and  C10_12 
REMARK    4  A    between atoms: N4_20  and  C16_21 
REMARK    5  A    between atoms: C16_21  and  C17_22 
REMARK    6  A    between atoms: C17_22  and  N5_23 
ROOT
HETATM    1  C8  UNL     1      24.967   0.575  53.023  1.00  0.00     0.061 A 
HETATM    2  C9  UNL     1      26.167  -0.087  53.302  1.00  0.00     0.074 A 
HETATM    3  N3  UNL     1      25.787  -1.004  54.197  1.00  0.00    -0.245 NA
HETATM    4  C15 UNL     1      24.476  -0.938  54.466  1.00  0.00     0.210 A 
HETATM    5  N4  UNL     1      23.968   0.053  53.727  1.00  0.00    -0.338 N 
ENDROOT
BRANCH   1   6
HETATM    6  C7  UNL     1      24.875   1.677  52.091  1.00  0.00     0.030 C 
HETATM    7  C6  UNL     1      24.589   2.966  52.063  1.00  0.00     0.007 C 
BRANCH   7   8
HETATM    8  C5  UNL     1      24.542   3.973  50.985  1.00  0.00     0.158 C 
HETATM    9  C3  UNL     1      23.415   3.716  50.062  1.00  0.00    -0.015 C 
HETATM   10  C2  UNL     1      23.508   3.027  48.954  1.00  0.00    -0.020 C 
HETATM   11  C4  UNL     1      22.242   4.366  50.634  1.00  0.00     0.147 C 
HETATM   12  C1  UNL     1      22.421   2.737  47.995  1.00  0.00     0.036 C 
HETATM   13  N1  UNL     1      22.638   5.224  51.543  1.00  0.00    -0.190 NA
HETATM   14  N2  UNL     1      24.048   5.202  51.632  1.00  0.00    -0.301 N 
HETATM   15  H6  UNL     1      24.387   6.061  52.131  1.00  0.00     0.183 HD
ENDBRANCH   7   8
ENDBRANCH   1   6
BRANCH   2  16
HETATM   16  C10 UNL     1      27.529   0.150  52.756  1.00  0.00     0.088 A 
HETATM   17  C11 UNL     1      28.249   1.240  53.426  1.00  0.00    -0.009 A 
HETATM   18  C12 UNL     1      29.349   0.816  54.026  1.00  0.00     0.039 A 
HETATM   19  C13 UNL     1      29.466  -0.642  53.805  1.00  0.00     0.113 A 
HETATM   20  F1  UNL     1      30.432  -1.506  54.232  1.00  0.00    -0.206 F 
HETATM   21  C14 UNL     1      28.423  -1.021  53.078  1.00  0.00     0.030 A 
ENDBRANCH   2  16
BRANCH   5  22
HETATM   22  C16 UNL     1      22.559   0.374  53.781  1.00  0.00     0.160 C 
BRANCH  22  23
HETATM   23  C17 UNL     1      21.752  -0.479  52.833  1.00  0.00     0.291 C 
BRANCH  23  24
HETATM   24  N5  UNL     1      20.811   0.371  52.120  1.00  0.00     0.081 N 
HETATM   25  C18 UNL     1      20.686   1.676  52.699  1.00  0.00     0.309 C 
HETATM   26  C19 UNL     1      21.358   0.522  50.775  1.00  0.00     0.309 C 
ENDBRANCH  23  24
ENDBRANCH  22  23
ENDBRANCH   5  22
TORSDOF 6
ENDMDL
MODEL 3
REMARK VINA RESULT:      -7.7      2.903      6.331
REMARK  6 active torsions:
REMARK  status: ('A' for Active; 'I' for Inactive)
REMARK    1  A    between atoms: C5_7  and  C6_8 
REMARK    2  A    between atoms: C7_9  and  C8_10 
REMARK    3  A    between atoms: C9_11  and  C10_12 
REMARK    4  A    between atoms: N4_20  and  C16_21 
REMARK    5  A    between atoms: C16_21  and  C17_22 
REMARK    6  A    between atoms: C17_22  and  N5_23 
ROOT
HETATM    1  C8  UNL     1      24.371   1.897  52.163  1.00  0.00     0.061 A 
HETATM    2  C9  UNL     1      25.565   1.173  52.228  1.00  0.00     0.074 A 
HETATM    3  N3  UNL     1      26.321   1.783  51.310  1.00  0.00    -0.245 NA
HETATM    4  C15 UNL     1      25.677   2.797  50.716  1.00  0.00     0.210 A 
HETATM    5  N4  UNL     1      24.456   2.863  51.254  1.00  0.00    -0.338 N 
ENDROOT
BRANCH   1   6
HETATM    6  C7  UNL     1      23.222   1.594  52.989  1.00  0.00     0.030 C 
HETATM    7  C6  UNL     1      22.266   0.691  53.113  1.00  0.00     0.007 C 
BRANCH   7   8
HETATM    8  C5  UNL     1      21.134   0.531  54.045  1.00  0.00     0.158 C 
HETATM    9  C3  UNL     1      20.109  -0.380  53.489  1.00  0.00    -0.015 C 
HETATM   10  C2  UNL     1      19.060   0.011  52.812  1.00  0.00    -0.020 C 
HETATM   11  C4  UNL     1      20.510  -1.735  53.844  1.00  0.00     0.147 C 
HETATM   12  C1  UNL     1      18.006  -0.849  52.234  1.00  0.00     0.036 C 
HETATM   13  N1  UNL     1      21.404  -1.673  54.799  1.00  0.00    -0.190 NA
HETATM   14  N2  UNL     1      21.649  -0.322  55.130  1.00  0.00    -0.301 N 
HETATM   15  H6  UNL     1      22.132  -0.264  56.061  1.00  0.00     0.183 HD
ENDBRANCH   7   8
ENDBRANCH   1   6
BRANCH   2  16
HETATM   16  C10 UNL     1      25.927   0.017  53.089  1.00  0.00     0.088 A 
HETATM   17  C11 UNL     1      26.901  -0.893  52.472  1.00  0.00    -0.009 A 
HETATM   18  C12 UNL     1      28.030  -0.954  53.158  1.00  0.00     0.039 A 
HETATM   19  C13 UNL     1      27.909  -0.062  54.333  1.00  0.00     0.113 A 
HETATM   20  F1  UNL     1      28.816   0.196  55.319  1.00  0.00    -0.206 F 
HETATM   21  C14 UNL     1      26.704   0.492  54.291  1.00  0.00     0.030 A 
ENDBRANCH   2  16
BRANCH   5  22
HETATM   22  C16 UNL     1      23.509   3.870  50.831  1.00  0.00     0.160 C 
BRANCH  22  23
HETATM   23  C17 UNL     1      23.338   4.953  51.869  1.00  0.00     0.291 C 
BRANCH  23  24
HETATM   24  N5  UNL     1      21.976   5.457  51.803  1.00  0.00     0.081 N 
HETATM   25  C18 UNL     1      21.756   6.332  50.689  1.00  0.00     0.309 C 
HETATM   26  C19 UNL     1      21.128   4.281  51.630  1.00  0.00     0.309 C 
ENDBRANCH  23  24
ENDBRANCH  22  23
ENDBRANCH   5  22
TORSDOF 6
ENDMDL
MODEL 4
REMARK VINA RESULT:      -7.4      2.560      6.717
REMARK  6 active torsions:
REMARK  status: ('A' for Active; 'I' for Inactive)
REMARK    1  A    between atoms: C5_7  and  C6_8 
REMARK    2  A    between atoms: C7_9  and  C8_10 
REMARK    3  A    between atoms: C9_11  and  C10_12 
REMARK    4  A    between atoms: N4_20  and  C16_21 
REMARK    5  A    between atoms: C16_21  and  C17_22 
REMARK    6  A    between atoms: C17_22  and  N5_23 
ROOT
HETATM    1  C8  UNL     1      25.050   0.525  52.999  1.00  0.00     0.061 A 
HETATM    2  C9  UNL     1      23.879  -0.150  53.358  1.00  0.00     0.074 A 
HETATM    3  N3  UNL     1      24.230  -0.744  54.503  1.00  0.00    -0.245 NA
HETATM    4  C15 UNL     1      25.498  -0.477  54.846  1.00  0.00     0.210 A 
HETATM    5  N4  UNL     1      26.005   0.318  53.899  1.00  0.00    -0.338 N 
ENDROOT
BRANCH   1   6
HETATM    6  C7  UNL     1      25.160   1.323  51.797  1.00  0.00     0.030 C 
HETATM    7  C6  UNL     1      25.333   2.576  51.419  1.00  0.00     0.007 C 
BRANCH   7   8
HETATM    8  C5  UNL     1      25.424   3.238  50.103  1.00  0.00     0.158 C 
HETATM    9  C3  UNL     1      24.083   3.606  49.597  1.00  0.00    -0.015 C 
HETATM   10  C2  UNL     1      23.364   2.862  48.797  1.00  0.00    -0.020 C 
HETATM   11  C4  UNL     1      23.761   4.911  50.160  1.00  0.00     0.147 C 
HETATM   12  C1  UNL     1      22.022   3.175  48.261  1.00  0.00     0.036 C 
HETATM   13  N1  UNL     1      24.864   5.458  50.612  1.00  0.00    -0.190 NA
HETATM   14  N2  UNL     1      25.951   4.584  50.387  1.00  0.00    -0.301 N 
HETATM   15  H6  UNL     1      26.855   5.110  50.477  1.00  0.00     0.183 HD
ENDBRANCH   7   8
ENDBRANCH   1   6
BRANCH   2  16
HETATM   16  C10 UNL     1      22.567  -0.209  52.662  1.00  0.00     0.088 A 
HETATM   17  C11 UNL     1      21.508  -0.843  53.457  1.00  0.00    -0.009 A 
HETATM   18  C12 UNL     1      20.515  -0.010  53.721  1.00  0.00     0.039 A 
HETATM   19  C13 UNL     1      20.832   1.298  53.106  1.00  0.00     0.113 A 
HETATM   20  F1  UNL     1      20.106   2.454  53.113  1.00  0.00    -0.206 F 
HETATM   21  C14 UNL     1      22.007   1.181  52.501  1.00  0.00     0.030 A 
ENDBRANCH   2  16
BRANCH   5  22
HETATM   22  C16 UNL     1      27.366   0.800  53.983  1.00  0.00     0.160 C 
BRANCH  22  23
HETATM   23  C17 UNL     1      28.196  -0.023  54.938  1.00  0.00     0.291 C 
BRANCH  23  24
HETATM   24  N5  UNL     1      29.384  -0.494  54.244  1.00  0.00     0.081 N 
HETATM   25  C18 UNL     1      29.117  -1.591  53.360  1.00  0.00     0.309 C 
HETATM   26  C19 UNL     1      29.845   0.634  53.442  1.00  0.00     0.309 C 
ENDBRANCH  23  24
ENDBRANCH  22  23
ENDBRANCH   5  22
TORSDOF 6
ENDMDL
MODEL 5
REMARK VINA RESULT:      -7.4      2.643      6.088
REMARK  6 active torsions:
REMARK  status: ('A' for Active; 'I' for Inactive)
REMARK    1  A    between atoms: C5_7  and  C6_8 
REMARK    2  A    between atoms: C7_9  and  C8_10 
REMARK    3  A    between atoms: C9_11  and  C10_12 
REMARK    4  A    between atoms: N4_20  and  C16_21 
REMARK    5  A    between atoms: C16_21  and  C17_22 
REMARK    6  A    between atoms: C17_22  and  N5_23 
ROOT
HETATM    1  C8  UNL     1      24.808   2.041  51.307  1.00  0.00     0.061 A 
HETATM    2  C9  UNL     1      25.948   1.506  51.912  1.00  0.00     0.074 A 
HETATM    3  N3  UNL     1      26.922   2.286  51.431  1.00  0.00    -0.245 NA
HETATM    4  C15 UNL     1      26.453   3.227  50.600  1.00  0.00     0.210 A 
HETATM    5  N4  UNL     1      25.128   3.068  50.526  1.00  0.00    -0.338 N 
ENDROOT
BRANCH   1   6
HETATM    6  C7  UNL     1      23.480   1.511  51.525  1.00  0.00     0.030 C 
HETATM    7  C6  UNL     1      22.354   1.282  50.873  1.00  0.00     0.007 C 
BRANCH   7   8
HETATM    8  C5  UNL     1      21.050   0.715  51.265  1.00  0.00     0.158 C 
HETATM    9  C3  UNL     1      21.019   0.394  52.709  1.00  0.00    -0.015 C 
HETATM   10  C2  UNL     1      21.301  -0.779  53.213  1.00  0.00    -0.020 C 
HETATM   11  C4  UNL     1      20.627   1.613  53.406  1.00  0.00     0.147 C 
HETATM   12  C1  UNL     1      21.289  -1.159  54.641  1.00  0.00     0.036 C 
HETATM   13  N1  UNL     1      20.107   2.445  52.537  1.00  0.00    -0.190 NA
HETATM   14  N2  UNL     1      20.118   1.856  51.254  1.00  0.00    -0.301 N 
HETATM   15  H6  UNL     1      19.462   2.375  50.618  1.00  0.00     0.183 HD
ENDBRANCH   7   8
ENDBRANCH   1   6
BRANCH   2  16
HETATM   16  C10 UNL     1      26.074   0.364  52.855  1.00  0.00     0.088 A 
HETATM   17  C11 UNL     1      26.949  -0.709  52.364  1.00  0.00    -0.009 A 
HETATM   18  C12 UNL     1      28.004  -0.888  53.141  1.00  0.00     0.039 A 
HETATM   19  C13 UNL     1      27.927   0.080  54.258  1.00  0.00     0.113 A 
HETATM   20  F1  UNL     1      28.787   0.266  55.301  1.00  0.00    -0.206 F 
HETATM   21  C14 UNL     1      26.821   0.795  54.091  1.00  0.00     0.030 A 
ENDBRANCH   2  16
BRANCH   5  22
HETATM   22  C16 UNL     1      24.317   3.945  49.711  1.00  0.00     0.160 C 
BRANCH  22  23
HETATM   23  C17 UNL     1      24.111   5.290  50.364  1.00  0.00     0.291 C 
BRANCH  23  24
HETATM   24  N5  UNL     1      22.686   5.509  50.550  1.00  0.00     0.081 N 
HETATM   25  C18 UNL     1      21.878   4.718  49.668  1.00  0.00     0.309 C 
HETATM   26  C19 UNL     1      22.399   5.095  51.920  1.00  0.00     0.309 C 
ENDBRANCH  23  24
ENDBRANCH  22  23
ENDBRANCH   5  22
TORSDOF 6
ENDMDL
MODEL 6
REMARK VINA RESULT:      -7.3      2.187      5.900
REMARK  6 active torsions:
REMARK  status: ('A' for Active; 'I' for Inactive)
REMARK    1  A    between atoms: C5_7  and  C6_8 
REMARK    2  A    between atoms: C7_9  and  C8_10 
REMARK    3  A    between atoms: C9_11  and  C10_12 
REMARK    4  A    between atoms: N4_20  and  C16_21 
REMARK    5  A    between atoms: C16_21  and  C17_22 
REMARK    6  A    between atoms: C17_22  and  N5_23 
ROOT
HETATM    1  C8  UNL     1      24.670   1.556  52.333  1.00  0.00     0.061 A 
HETATM    2  C9  UNL     1      24.620   2.400  51.220  1.00  0.00     0.074 A 
HETATM    3  N3  UNL     1      25.878   2.360  50.772  1.00  0.00    -0.245 NA
HETATM    4  C15 UNL     1      26.659   1.570  51.521  1.00  0.00     0.210 A 
HETATM    5  N4  UNL     1      25.896   1.070  52.498  1.00  0.00    -0.338 N 
ENDROOT
BRANCH   1   6
HETATM    6  C7  UNL     1      23.520   1.285  53.167  1.00  0.00     0.030 C 
HETATM    7  C6  UNL     1      22.368   0.639  53.135  1.00  0.00     0.007 C 
BRANCH   7   8
HETATM    8  C5  UNL     1      21.275   0.462  54.111  1.00  0.00     0.158 C 
HETATM    9  C3  UNL     1      20.240  -0.459  53.592  1.00  0.00    -0.015 C 
HETATM   10  C2  UNL     1      19.161  -0.078  52.959  1.00  0.00    -0.020 C 
HETATM   11  C4  UNL     1      20.671  -1.811  53.924  1.00  0.00     0.147 C 
HETATM   12  C1  UNL     1      18.095  -0.949  52.418  1.00  0.00     0.036 C 
HETATM   13  N1  UNL     1      21.603  -1.741  54.844  1.00  0.00    -0.190 NA
HETATM   14  N2  UNL     1      21.844  -0.389  55.171  1.00  0.00    -0.301 N 
HETATM   15  H6  UNL     1      22.362  -0.329  56.083  1.00  0.00     0.183 HD
ENDBRANCH   7   8
ENDBRANCH   1   6
BRANCH   2  16
HETATM   16  C10 UNL     1      23.473   3.160  50.657  1.00  0.00     0.088 A 
HETATM   17  C11 UNL     1      23.872   4.359  49.909  1.00  0.00    -0.009 A 
HETATM   18  C12 UNL     1      23.519   4.292  48.635  1.00  0.00     0.039 A 
HETATM   19  C13 UNL     1      22.830   3.002  48.412  1.00  0.00     0.113 A 
HETATM   20  F1  UNL     1      22.293   2.497  47.263  1.00  0.00    -0.206 F 
HETATM   21  C14 UNL     1      22.805   2.356  49.571  1.00  0.00     0.030 A 
ENDBRANCH   2  16
BRANCH   5  22
HETATM   22  C16 UNL     1      26.445   0.160  53.479  1.00  0.00     0.160 C 
BRANCH  22  23
HETATM   23  C17 UNL     1      27.726  -0.479  53.000  1.00  0.00     0.291 C 
BRANCH  23  24
HETATM   24  N5  UNL     1      28.677  -0.508  54.099  1.00  0.00     0.081 N 
HETATM   25  C18 UNL     1      29.955  -1.035  53.719  1.00  0.00     0.309 C 
HETATM   26  C19 UNL     1      28.860   0.884  54.499  1.00  0.00     0.309 C 
ENDBRANCH  23  24
ENDBRANCH  22  23
ENDBRANCH   5  22
TORSDOF 6
ENDMDL
MODEL 7
REMARK VINA RESULT:      -7.3      3.111      7.100
REMARK  6 active torsions:
REMARK  status: ('A' for Active; 'I' for Inactive)
REMARK    1  A    between atoms: C5_7  and  C6_8 
REMARK    2  A    between atoms: C7_9  and  C8_10 
REMARK    3  A    between atoms: C9_11  and  C10_12 
REMARK    4  A    between atoms: N4_20  and  C16_21 
REMARK    5  A    between atoms: C16_21  and  C17_22 
REMARK    6  A    between atoms: C17_22  and  N5_23 
ROOT
HETATM    1  C8  UNL     1      24.223   1.297  53.095  1.00  0.00     0.061 A 
HETATM    2  C9  UNL     1      23.088   0.516  53.335  1.00  0.00     0.074 A 
HETATM    3  N3  UNL     1      23.603  -0.713  53.442  1.00  0.00    -0.245 NA
HETATM    4  C15 UNL     1      24.934  -0.721  53.287  1.00  0.00     0.210 A 
HETATM    5  N4  UNL     1      25.316   0.541  53.070  1.00  0.00    -0.338 N 
ENDROOT
BRANCH   1   6
HETATM    6  C7  UNL     1      24.165   2.729  52.899  1.00  0.00     0.030 C 
HETATM    7  C6  UNL     1      23.710   3.622  52.039  1.00  0.00     0.007 C 
BRANCH   7   8
HETATM    8  C5  UNL     1      23.740   5.097  51.994  1.00  0.00     0.158 C 
HETATM    9  C3  UNL     1      23.931   5.585  50.611  1.00  0.00    -0.015 C 
HETATM   10  C2  UNL     1      25.091   5.882  50.084  1.00  0.00    -0.020 C 
HETATM   11  C4  UNL     1      22.609   5.657  50.001  1.00  0.00     0.147 C 
HETATM   12  C1  UNL     1      25.344   6.372  48.712  1.00  0.00     0.036 C 
HETATM   13  N1  UNL     1      21.705   5.613  50.949  1.00  0.00    -0.190 NA
HETATM   14  N2  UNL     1      22.343   5.514  52.205  1.00  0.00    -0.301 N 
HETATM   15  H6  UNL     1      21.665   5.762  52.969  1.00  0.00     0.183 HD
ENDBRANCH   7   8
ENDBRANCH   1   6
BRANCH   2  16
HETATM   16  C10 UNL     1      21.663   0.924  53.447  1.00  0.00     0.088 A 
HETATM   17  C11 UNL     1      20.967   0.990  52.155  1.00  0.00    -0.009 A 
HETATM   18  C12 UNL     1      19.965   0.130  52.084  1.00  0.00     0.039 A 
HETATM   19  C13 UNL     1      19.898  -0.612  53.362  1.00  0.00     0.113 A 
HETATM   20  F1  UNL     1      19.031  -1.593  53.748  1.00  0.00    -0.206 F 
HETATM   21  C14 UNL     1      20.872  -0.156  54.140  1.00  0.00     0.030 A 
ENDBRANCH   2  16
BRANCH   5  22
HETATM   22  C16 UNL     1      26.709   0.874  52.873  1.00  0.00     0.160 C 
BRANCH  22  23
HETATM   23  C17 UNL     1      27.596  -0.345  52.960  1.00  0.00     0.291 C 
BRANCH  23  24
HETATM   24  N5  UNL     1      28.640  -0.098  53.941  1.00  0.00     0.081 N 
HETATM   25  C18 UNL     1      29.866  -0.777  53.638  1.00  0.00     0.309 C 
HETATM   26  C19 UNL     1      28.893   1.339  53.894  1.00  0.00     0.309 C 
ENDBRANCH  23  24
ENDBRANCH  22  23
ENDBRANCH   5  22
TORSDOF 6
ENDMDL
MODEL 8
REMARK VINA RESULT:      -7.1      2.725      5.780
REMARK  6 active torsions:
REMARK  status: ('A' for Active; 'I' for Inactive)
REMARK    1  A    between atoms: C5_7  and  C6_8 
REMARK    2  A    between atoms: C7_9  and  C8_10 
REMARK    3  A    between atoms: C9_11  and  C10_12 
REMARK    4  A    between atoms: N4_20  and  C16_21 
REMARK    5  A    between atoms: C16_21  and  C17_22 
REMARK    6  A    between atoms: C17_22  and  N5_23 
ROOT
HETATM    1  C8  UNL     1      23.972   0.677  52.651  1.00  0.00     0.061 A 
HETATM    2  C9  UNL     1      25.174   0.032  52.955  1.00  0.00     0.074 A 
HETATM    3  N3  UNL     1      24.837  -0.724  54.005  1.00  0.00    -0.245 NA
HETATM    4  C15 UNL     1      23.548  -0.579  54.341  1.00  0.00     0.210 A 
HETATM    5  N4  UNL     1      23.012   0.300  53.490  1.00  0.00    -0.338 N 
ENDROOT
BRANCH   1   6
HETATM    6  C7  UNL     1      23.840   1.624  51.566  1.00  0.00     0.030 C 
HETATM    7  C6  UNL     1      23.663   2.916  51.357  1.00  0.00     0.007 C 
BRANCH   7   8
HETATM    8  C5  UNL     1      23.546   3.742  50.140  1.00  0.00     0.158 C 
HETATM    9  C3  UNL     1      24.098   5.098  50.359  1.00  0.00    -0.015 C 
HETATM   10  C2  UNL     1      23.389   6.135  50.724  1.00  0.00    -0.020 C 
HETATM   11  C4  UNL     1      25.529   5.021  50.094  1.00  0.00     0.147 C 
HETATM   12  C1  UNL     1      23.882   7.509  50.959  1.00  0.00     0.036 C 
HETATM   13  N1  UNL     1      25.775   3.918  49.431  1.00  0.00    -0.190 NA
HETATM   14  N2  UNL     1      24.569   3.214  49.220  1.00  0.00    -0.301 N 
HETATM   15  H6  UNL     1      24.702   2.496  48.464  1.00  0.00     0.183 HD
ENDBRANCH   7   8
ENDBRANCH   1   6
BRANCH   2  16
HETATM   16  C10 UNL     1      26.501   0.141  52.295  1.00  0.00     0.088 A 
HETATM   17  C11 UNL     1      27.303   1.275  52.771  1.00  0.00    -0.009 A 
HETATM   18  C12 UNL     1      28.428   0.884  53.347  1.00  0.00     0.039 A 
HETATM   19  C13 UNL     1      28.481  -0.594  53.307  1.00  0.00     0.113 A 
HETATM   20  F1  UNL     1      29.445  -1.437  53.776  1.00  0.00    -0.206 F 
HETATM   21  C14 UNL     1      27.376  -1.017  52.704  1.00  0.00     0.030 A 
ENDBRANCH   2  16
BRANCH   5  22
HETATM   22  C16 UNL     1      21.616   0.667  53.580  1.00  0.00     0.160 C 
BRANCH  22  23
HETATM   23  C17 UNL     1      20.781  -0.038  52.538  1.00  0.00     0.291 C 
BRANCH  23  24
HETATM   24  N5  UNL     1      19.956   0.944  51.854  1.00  0.00     0.081 N 
HETATM   25  C18 UNL     1      20.105   2.268  52.383  1.00  0.00     0.309 C 
HETATM   26  C19 UNL     1      20.421   0.953  50.470  1.00  0.00     0.309 C 
ENDBRANCH  23  24
ENDBRANCH  22  23
ENDBRANCH   5  22
TORSDOF 6
ENDMDL
MODEL 9
REMARK VINA RESULT:      -6.9      3.073      6.250
REMARK  6 active torsions:
REMARK  status: ('A' for Active; 'I' for Inactive)
REMARK    1  A    between atoms: C5_7  and  C6_8 
REMARK    2  A    between atoms: C7_9  and  C8_10 
REMARK    3  A    between atoms: C9_11  and  C10_12 
REMARK    4  A    between atoms: N4_20  and  C16_21 
REMARK    5  A    between atoms: C16_21  and  C17_22 
REMARK    6  A    between atoms: C17_22  and  N5_23 
ROOT
HETATM    1  C8  UNL     1      24.253   2.212  51.153  1.00  0.00     0.061 A 
HETATM    2  C9  UNL     1      25.137   1.372  51.837  1.00  0.00     0.074 A 
HETATM    3  N3  UNL     1      24.312   0.650  52.602  1.00  0.00    -0.245 NA
HETATM    4  C15 UNL     1      23.028   0.992  52.427  1.00  0.00     0.210 A 
HETATM    5  N4  UNL     1      22.998   1.971  51.518  1.00  0.00    -0.338 N 
ENDROOT
BRANCH   1   6
HETATM    6  C7  UNL     1      24.693   3.199  50.191  1.00  0.00     0.030 C 
HETATM    7  C6  UNL     1      25.259   4.392  50.142  1.00  0.00     0.007 C 
BRANCH   7   8
HETATM    8  C5  UNL     1      25.649   5.286  49.035  1.00  0.00     0.158 C 
HETATM    9  C3  UNL     1      24.595   6.287  48.761  1.00  0.00    -0.015 C 
HETATM   10  C2  UNL     1      23.653   6.144  47.866  1.00  0.00    -0.020 C 
HETATM   11  C4  UNL     1      24.829   7.407  49.665  1.00  0.00     0.147 C 
HETATM   12  C1  UNL     1      22.576   7.106  47.548  1.00  0.00     0.036 C 
HETATM   13  N1  UNL     1      26.047   7.316  50.140  1.00  0.00    -0.190 NA
HETATM   14  N2  UNL     1      26.679   6.172  49.605  1.00  0.00    -0.301 N 
HETATM   15  H6  UNL     1      27.718   6.241  49.745  1.00  0.00     0.183 HD
ENDBRANCH   7   8
ENDBRANCH   1   6
BRANCH   2  16
HETATM   16  C10 UNL     1      26.618   1.283  51.753  1.00  0.00     0.088 A 
HETATM   17  C11 UNL     1      27.314   2.266  52.593  1.00  0.00    -0.009 A 
HETATM   18  C12 UNL     1      28.055   1.690  53.525  1.00  0.00     0.039 A 
HETATM   19  C13 UNL     1      27.916   0.223  53.388  1.00  0.00     0.113 A 
HETATM   20  F1  UNL     1      28.491  -0.772  54.123  1.00  0.00    -0.206 F 
HETATM   21  C14 UNL     1      27.093  -0.007  52.373  1.00  0.00     0.030 A 
ENDBRANCH   2  16
BRANCH   5  22
HETATM   22  C16 UNL     1      21.746   2.557  51.096  1.00  0.00     0.160 C 
BRANCH  22  23
HETATM   23  C17 UNL     1      21.526   3.919  51.709  1.00  0.00     0.291 C 
BRANCH  23  24
HETATM   24  N5  UNL     1      21.469   4.910  50.646  1.00  0.00     0.081 N 
HETATM   25  C18 UNL     1      20.168   5.020  50.054  1.00  0.00     0.309 C 
HETATM   26  C19 UNL     1      21.789   6.185  51.280  1.00  0.00     0.309 C 
ENDBRANCH  23  24
ENDBRANCH  22  23
ENDBRANCH   5  22
TORSDOF 6
ENDMDL
