MODEL 1
REMARK VINA RESULT:      -8.5      0.000      0.000
REMARK  5 active torsions:
REMARK  status: ('A' for Active; 'I' for Inactive)
REMARK    1  A    between atoms: C2_2  and  C3_3 
REMARK       I    between atoms: C3_3  and  N1_5 
REMARK    2  A    between atoms: N1_5  and  C4_6 
REMARK    3  A    between atoms: C7_9  and  N2_10 
REMARK    4  A    between atoms: N2_10  and  C8_11 
REMARK    5  A    between atoms: C19_25  and  O2_26 
ROOT
HETATM    1  C4  UNL     1      23.949   3.253  50.062  1.00  0.00     0.069 A 
HETATM    2  C5  UNL     1      23.985   2.531  51.216  1.00  0.00     0.048 A 
HETATM    3  C6  UNL     1      23.073   1.564  51.582  1.00  0.00     0.023 A 
HETATM    4  C7  UNL     1      23.175   0.871  52.772  1.00  0.00     0.067 A 
HETATM    5  C14 UNL     1      22.198  -0.072  53.023  1.00  0.00     0.089 A 
HETATM    6  C15 UNL     1      22.231  -0.846  54.252  1.00  0.00     0.103 C 
HETATM    7  N3  UNL     1      22.274  -1.466  55.229  1.00  0.00    -0.191 NA
HETATM    8  C16 UNL     1      21.157  -0.344  52.168  1.00  0.00     0.142 A 
HETATM    9  N4  UNL     1      21.092   0.361  51.006  1.00  0.00    -0.259 NA
HETATM   10  C17 UNL     1      22.022   1.278  50.735  1.00  0.00     0.071 A 
HETATM   11  C18 UNL     1      21.950   1.989  49.556  1.00  0.00     0.071 A 
HETATM   12  C19 UNL     1      22.891   2.945  49.240  1.00  0.00     0.097 A 
ENDROOT
BRANCH   4  13
HETATM   13  N2  UNL     1      24.220   1.123  53.664  1.00  0.00    -0.354 N 
HETATM   14  H6  UNL     1      24.041   1.741  54.485  1.00  0.00     0.166 HD
BRANCH  13  15
HETATM   15  C8  UNL     1      25.498   0.569  53.488  1.00  0.00     0.033 A 
HETATM   16  C9  UNL     1      25.685  -0.690  52.953  1.00  0.00     0.029 A 
HETATM   17  C10 UNL     1      26.964  -1.191  52.799  1.00  0.00     0.004 A 
HETATM   18  C11 UNL     1      28.087  -0.475  53.163  1.00  0.00     0.019 A 
HETATM   19  C12 UNL     1      27.938   0.802  53.709  1.00  0.00     0.013 A 
HETATM   20 BR1  UNL     1      29.421   1.881  54.248  1.00  0.00    -0.051 Br
HETATM   21  C13 UNL     1      26.643   1.266  53.845  1.00  0.00     0.048 A 
ENDBRANCH  13  15
ENDBRANCH   4  13
BRANCH   1  22
HETATM   22  N1  UNL     1      24.868   4.249  49.659  1.00  0.00    -0.321 N 
HETATM   23  C3  UNL     1      26.205   4.138  49.282  1.00  0.00     0.242 C 
HETATM   24  O1  UNL     1      26.740   3.011  49.278  1.00  0.00    -0.269 OA
HETATM   25  H4  UNL     1      24.528   5.250  49.622  1.00  0.00     0.169 HD
BRANCH  23  26
HETATM   26  C2  UNL     1      27.031   5.266  48.887  1.00  0.00     0.048 C 
HETATM   27  C1  UNL     1      28.268   5.154  48.429  1.00  0.00     0.037 C 
ENDBRANCH  23  26
ENDBRANCH   1  22
BRANCH  12  28
HETATM   28  O2  UNL     1      22.739   3.619  48.022  1.00  0.00    -0.354 OA
HETATM   29  C20 UNL     1      21.998   3.070  46.946  1.00  0.00     0.210 C 
ENDBRANCH  12  28
TORSDOF 5
ENDMDL
MODEL 2
REMARK VINA RESULT:      -8.3      2.575      5.202
REMARK  5 active torsions:
REMARK  status: ('A' for Active; 'I' for Inactive)
REMARK    1  A    between atoms: C2_2  and  C3_3 
REMARK       I    between atoms: C3_3  and  N1_5 
REMARK    2  A    between atoms: N1_5  and  C4_6 
REMARK    3  A    between atoms: C7_9  and  N2_10 
REMARK    4  A    between atoms: N2_10  and  C8_11 
REMARK    5  A    between atoms: C19_25  and  O2_26 
ROOT
HETATM    1  C4  UNL     1      26.344   1.588  51.888  1.00  0.00     0.069 A 
HETATM    2  C5  UNL     1      25.107   1.037  52.033  1.00  0.00     0.048 A 
HETATM    3  C6  UNL     1      24.690   0.279  53.106  1.00  0.00     0.023 A 
HETATM    4  C7  UNL     1      23.416  -0.247  53.183  1.00  0.00     0.067 A 
HETATM    5  C14 UNL     1      23.121  -0.989  54.310  1.00  0.00     0.089 A 
HETATM    6  C15 UNL     1      21.803  -1.578  54.470  1.00  0.00     0.103 C 
HETATM    7  N3  UNL     1      20.745  -2.034  54.593  1.00  0.00    -0.191 NA
HETATM    8  C16 UNL     1      24.012  -1.219  55.330  1.00  0.00     0.142 A 
HETATM    9  N4  UNL     1      25.257  -0.683  55.217  1.00  0.00    -0.259 NA
HETATM   10  C17 UNL     1      25.572   0.038  54.140  1.00  0.00     0.071 A 
HETATM   11  C18 UNL     1      26.836   0.579  54.030  1.00  0.00     0.071 A 
HETATM   12  C19 UNL     1      27.199   1.329  52.934  1.00  0.00     0.097 A 
ENDROOT
BRANCH   4  13
HETATM   13  N2  UNL     1      22.486  -0.032  52.163  1.00  0.00    -0.354 N 
HETATM   14  H6  UNL     1      22.214  -0.834  51.554  1.00  0.00     0.166 HD
BRANCH  13  15
HETATM   15  C8  UNL     1      21.909   1.229  51.937  1.00  0.00     0.033 A 
HETATM   16  C9  UNL     1      20.996   1.786  52.810  1.00  0.00     0.029 A 
HETATM   17  C10 UNL     1      20.457   3.030  52.543  1.00  0.00     0.004 A 
HETATM   18  C11 UNL     1      20.796   3.756  51.419  1.00  0.00     0.019 A 
HETATM   19  C12 UNL     1      21.715   3.225  50.511  1.00  0.00     0.013 A 
HETATM   20 BR1  UNL     1      22.256   4.142  48.922  1.00  0.00    -0.051 Br
HETATM   21  C13 UNL     1      22.231   1.979  50.816  1.00  0.00     0.048 A 
ENDBRANCH  13  15
ENDBRANCH   4  13
BRANCH   1  22
HETATM   22  N1  UNL     1      26.802   2.367  50.801  1.00  0.00    -0.321 N 
HETATM   23  C3  UNL     1      26.318   3.573  50.294  1.00  0.00     0.242 C 
HETATM   24  O1  UNL     1      25.328   4.102  50.837  1.00  0.00    -0.269 OA
HETATM   25  H4  UNL     1      27.641   2.019  50.260  1.00  0.00     0.169 HD
BRANCH  23  26
HETATM   26  C2  UNL     1      26.901   4.264  49.157  1.00  0.00     0.048 C 
HETATM   27  C1  UNL     1      26.633   5.519  48.837  1.00  0.00     0.037 C 
ENDBRANCH  23  26
ENDBRANCH   1  22
BRANCH  12  28
HETATM   28  O2  UNL     1      28.503   1.838  52.907  1.00  0.00    -0.354 OA
HETATM   29  C20 UNL     1      29.232   2.103  54.093  1.00  0.00     0.210 C 
ENDBRANCH  12  28
TORSDOF 5
ENDMDL
MODEL 3
REMARK VINA RESULT:      -8.1      2.886      5.892
REMARK  5 active torsions:
REMARK  status: ('A' for Active; 'I' for Inactive)
REMARK    1  A    between atoms: C2_2  and  C3_3 
REMARK       I    between atoms: C3_3  and  N1_5 
REMARK    2  A    between atoms: N1_5  and  C4_6 
REMARK    3  A    between atoms: C7_9  and  N2_10 
REMARK    4  A    between atoms: N2_10  and  C8_11 
REMARK    5  A    between atoms: C19_25  and  O2_26 
ROOT
HETATM    1  C4  UNL     1      25.619   0.370  52.805  1.00  0.00     0.069 A 
HETATM    2  C5  UNL     1      24.940   1.117  51.892  1.00  0.00     0.048 A 
HETATM    3  C6  UNL     1      23.569   1.237  51.817  1.00  0.00     0.023 A 
HETATM    4  C7  UNL     1      22.950   2.016  50.860  1.00  0.00     0.067 A 
HETATM    5  C14 UNL     1      21.570   2.053  50.891  1.00  0.00     0.089 A 
HETATM    6  C15 UNL     1      20.840   2.849  49.920  1.00  0.00     0.103 C 
HETATM    7  N3  UNL     1      20.269   3.497  49.148  1.00  0.00    -0.191 NA
HETATM    8  C16 UNL     1      20.805   1.369  51.805  1.00  0.00     0.142 A 
HETATM    9  N4  UNL     1      21.453   0.612  52.732  1.00  0.00    -0.259 NA
HETATM   10  C17 UNL     1      22.786   0.556  52.727  1.00  0.00     0.071 A 
HETATM   11  C18 UNL     1      23.437  -0.213  53.669  1.00  0.00     0.071 A 
HETATM   12  C19 UNL     1      24.811  -0.296  53.697  1.00  0.00     0.097 A 
ENDROOT
BRANCH   4  13
HETATM   13  N2  UNL     1      23.697   2.725  49.916  1.00  0.00    -0.354 N 
HETATM   14  H6  UNL     1      23.925   2.265  49.008  1.00  0.00     0.166 HD
BRANCH  13  15
HETATM   15  C8  UNL     1      24.149   4.033  50.155  1.00  0.00     0.033 A 
HETATM   16  C9  UNL     1      23.578   4.842  51.117  1.00  0.00     0.029 A 
HETATM   17  C10 UNL     1      24.058   6.123  51.315  1.00  0.00     0.004 A 
HETATM   18  C11 UNL     1      25.103   6.642  50.578  1.00  0.00     0.019 A 
HETATM   19  C12 UNL     1      25.706   5.855  49.594  1.00  0.00     0.013 A 
HETATM   20 BR1  UNL     1      27.159   6.470  48.515  1.00  0.00    -0.051 Br
HETATM   21  C13 UNL     1      25.196   4.580  49.429  1.00  0.00     0.048 A 
ENDBRANCH  13  15
ENDBRANCH   4  13
BRANCH   1  22
HETATM   22  N1  UNL     1      27.022   0.227  52.907  1.00  0.00    -0.321 N 
HETATM   23  C3  UNL     1      27.956   1.001  53.594  1.00  0.00     0.242 C 
HETATM   24  O1  UNL     1      27.561   1.991  54.242  1.00  0.00    -0.269 OA
HETATM   25  H4  UNL     1      27.476  -0.582  52.398  1.00  0.00     0.169 HD
BRANCH  23  26
HETATM   26  C2  UNL     1      29.382   0.726  53.606  1.00  0.00     0.048 C 
HETATM   27  C1  UNL     1      29.902  -0.491  53.587  1.00  0.00     0.037 C 
ENDBRANCH  23  26
ENDBRANCH   1  22
BRANCH  12  28
HETATM   28  O2  UNL     1      25.387  -1.101  54.688  1.00  0.00    -0.354 OA
HETATM   29  C20 UNL     1      25.104  -0.917  56.065  1.00  0.00     0.210 C 
ENDBRANCH  12  28
TORSDOF 5
ENDMDL
MODEL 4
REMARK VINA RESULT:      -8.1      3.152      6.159
REMARK  5 active torsions:
REMARK  status: ('A' for Active; 'I' for Inactive)
REMARK    1  A    between atoms: C2_2  and  C3_3 
REMARK       I    between atoms: C3_3  and  N1_5 
REMARK    2  A    between atoms: N1_5  and  C4_6 
REMARK    3  A    between atoms: C7_9  and  N2_10 
REMARK    4  A    between atoms: N2_10  and  C8_11 
REMARK    5  A    between atoms: C19_25  and  O2_26 
ROOT
HETATM    1  C4  UNL     1      24.457   1.398  53.201  1.00  0.00     0.069 A 
HETATM    2  C5  UNL     1      24.305   2.689  52.796  1.00  0.00     0.048 A 
HETATM    3  C6  UNL     1      23.135   3.250  52.332  1.00  0.00     0.023 A 
HETATM    4  C7  UNL     1      23.058   4.571  51.938  1.00  0.00     0.067 A 
HETATM    5  C14 UNL     1      21.828   5.012  51.492  1.00  0.00     0.089 A 
HETATM    6  C15 UNL     1      21.660   6.389  51.059  1.00  0.00     0.103 C 
HETATM    7  N3  UNL     1      21.535   7.491  50.728  1.00  0.00    -0.191 NA
HETATM    8  C16 UNL     1      20.708   4.218  51.423  1.00  0.00     0.142 A 
HETATM    9  N4  UNL     1      20.825   2.923  51.820  1.00  0.00    -0.259 NA
HETATM   10  C17 UNL     1      22.001   2.467  52.256  1.00  0.00     0.071 A 
HETATM   11  C18 UNL     1      22.113   1.152  52.657  1.00  0.00     0.071 A 
HETATM   12  C19 UNL     1      23.309   0.645  53.113  1.00  0.00     0.097 A 
ENDROOT
BRANCH   4  13
HETATM   13  N2  UNL     1      24.177   5.405  51.995  1.00  0.00    -0.354 N 
HETATM   14  H6  UNL     1      24.441   5.829  52.911  1.00  0.00     0.166 HD
BRANCH  13  15
HETATM   15  C8  UNL     1      24.951   5.689  50.859  1.00  0.00     0.033 A 
HETATM   16  C9  UNL     1      25.465   4.692  50.053  1.00  0.00     0.029 A 
HETATM   17  C10 UNL     1      26.221   5.023  48.945  1.00  0.00     0.004 A 
HETATM   18  C11 UNL     1      26.495   6.331  48.600  1.00  0.00     0.019 A 
HETATM   19  C12 UNL     1      25.994   7.367  49.392  1.00  0.00     0.013 A 
HETATM   20 BR1  UNL     1      26.310   9.214  49.009  1.00  0.00    -0.051 Br
HETATM   21  C13 UNL     1      25.241   6.994  50.490  1.00  0.00     0.048 A 
ENDBRANCH  13  15
ENDBRANCH   4  13
BRANCH   1  22
HETATM   22  N1  UNL     1      25.642   0.795  53.681  1.00  0.00    -0.321 N 
HETATM   23  C3  UNL     1      26.699   0.213  52.983  1.00  0.00     0.242 C 
HETATM   24  O1  UNL     1      26.659   0.186  51.737  1.00  0.00    -0.269 OA
HETATM   25  H4  UNL     1      25.790   0.759  54.727  1.00  0.00     0.169 HD
BRANCH  23  26
HETATM   26  C2  UNL     1      27.865  -0.373  53.622  1.00  0.00     0.048 C 
HETATM   27  C1  UNL     1      28.528   0.195  54.617  1.00  0.00     0.037 C 
ENDBRANCH  23  26
ENDBRANCH   1  22
BRANCH  12  28
HETATM   28  O2  UNL     1      23.332  -0.701  53.498  1.00  0.00    -0.354 OA
HETATM   29  C20 UNL     1      22.625  -1.171  54.634  1.00  0.00     0.210 C 
ENDBRANCH  12  28
TORSDOF 5
ENDMDL
MODEL 5
REMARK VINA RESULT:      -8.1      3.366      6.125
REMARK  5 active torsions:
REMARK  status: ('A' for Active; 'I' for Inactive)
REMARK    1  A    between atoms: C2_2  and  C3_3 
REMARK       I    between atoms: C3_3  and  N1_5 
REMARK    2  A    between atoms: N1_5  and  C4_6 
REMARK    3  A    between atoms: C7_9  and  N2_10 
REMARK    4  A    between atoms: N2_10  and  C8_11 
REMARK    5  A    between atoms: C19_25  and  O2_26 
ROOT
HETATM    1  C4  UNL     1      20.310   0.035  52.311  1.00  0.00     0.069 A 
HETATM    2  C5  UNL     1      21.659   0.216  52.357  1.00  0.00     0.048 A 
HETATM    3  C6  UNL     1      22.497  -0.268  53.338  1.00  0.00     0.023 A 
HETATM    4  C7  UNL     1      23.859  -0.044  53.317  1.00  0.00     0.067 A 
HETATM    5  C14 UNL     1      24.590  -0.582  54.357  1.00  0.00     0.089 A 
HETATM    6  C15 UNL     1      26.030  -0.393  54.411  1.00  0.00     0.103 C 
HETATM    7  N3  UNL     1      27.178  -0.246  54.438  1.00  0.00    -0.191 NA
HETATM    8  C16 UNL     1      24.040  -1.310  55.385  1.00  0.00     0.142 A 
HETATM    9  N4  UNL     1      22.694  -1.509  55.369  1.00  0.00    -0.259 NA
HETATM   10  C17 UNL     1      21.961  -1.002  54.377  1.00  0.00     0.071 A 
HETATM   11  C18 UNL     1      20.597  -1.207  54.366  1.00  0.00     0.071 A 
HETATM   12  C19 UNL     1      19.807  -0.699  53.360  1.00  0.00     0.097 A 
ENDROOT
BRANCH   4  13
HETATM   13  N2  UNL     1      24.452   0.691  52.287  1.00  0.00    -0.354 N 
HETATM   14  H6  UNL     1      25.102   0.205  51.633  1.00  0.00     0.166 HD
BRANCH  13  15
HETATM   15  C8  UNL     1      24.198   2.061  52.111  1.00  0.00     0.033 A 
HETATM   16  C9  UNL     1      24.145   2.941  53.174  1.00  0.00     0.029 A 
HETATM   17  C10 UNL     1      23.892   4.281  52.949  1.00  0.00     0.004 A 
HETATM   18  C11 UNL     1      23.685   4.791  51.684  1.00  0.00     0.019 A 
HETATM   19  C12 UNL     1      23.729   3.933  50.583  1.00  0.00     0.013 A 
HETATM   20 BR1  UNL     1      23.457   4.530  48.787  1.00  0.00    -0.051 Br
HETATM   21  C13 UNL     1      23.986   2.601  50.851  1.00  0.00     0.048 A 
ENDBRANCH  13  15
ENDBRANCH   4  13
BRANCH   1  22
HETATM   22  N1  UNL     1      19.424   0.518  51.320  1.00  0.00    -0.321 N 
HETATM   23  C3  UNL     1      18.797   1.758  51.205  1.00  0.00     0.242 C 
HETATM   24  O1  UNL     1      19.004   2.624  52.078  1.00  0.00    -0.269 OA
HETATM   25  H4  UNL     1      19.172  -0.129  50.523  1.00  0.00     0.169 HD
BRANCH  23  26
HETATM   26  C2  UNL     1      17.902   2.113  50.116  1.00  0.00     0.048 C 
HETATM   27  C1  UNL     1      18.256   2.852  49.078  1.00  0.00     0.037 C 
ENDBRANCH  23  26
ENDBRANCH   1  22
BRANCH  12  28
HETATM   28  O2  UNL     1      18.431  -0.955  53.431  1.00  0.00    -0.354 OA
HETATM   29  C20 UNL     1      17.919  -2.264  53.616  1.00  0.00     0.210 C 
ENDBRANCH  12  28
TORSDOF 5
ENDMDL
MODEL 6
REMARK VINA RESULT:      -7.6      3.086      5.277
REMARK  5 active torsions:
REMARK  status: ('A' for Active; 'I' for Inactive)
REMARK    1  A    between atoms: C2_2  and  C3_3 
REMARK       I    between atoms: C3_3  and  N1_5 
REMARK    2  A    between atoms: N1_5  and  C4_6 
REMARK    3  A    between atoms: C7_9  and  N2_10 
REMARK    4  A    between atoms: N2_10  and  C8_11 
REMARK    5  A    between atoms: C19_25  and  O2_26 
ROOT
HETATM    1  C4  UNL     1      25.381   2.784  51.634  1.00  0.00     0.069 A 
HETATM    2  C5  UNL     1      24.068   2.667  51.976  1.00  0.00     0.048 A 
HETATM    3  C6  UNL     1      23.000   2.884  51.133  1.00  0.00     0.023 A 
HETATM    4  C7  UNL     1      21.692   2.745  51.553  1.00  0.00     0.067 A 
HETATM    5  C14 UNL     1      20.712   2.991  50.612  1.00  0.00     0.089 A 
HETATM    6  C15 UNL     1      19.309   2.868  50.971  1.00  0.00     0.103 C 
HETATM    7  N3  UNL     1      18.195   2.755  51.266  1.00  0.00    -0.191 NA
HETATM    8  C16 UNL     1      20.970   3.356  49.313  1.00  0.00     0.142 A 
HETATM    9  N4  UNL     1      22.272   3.481  48.938  1.00  0.00    -0.259 NA
HETATM   10  C17 UNL     1      23.242   3.251  49.825  1.00  0.00     0.071 A 
HETATM   11  C18 UNL     1      24.559   3.380  49.439  1.00  0.00     0.071 A 
HETATM   12  C19 UNL     1      25.588   3.151  50.325  1.00  0.00     0.097 A 
ENDROOT
BRANCH   4  13
HETATM   13  N2  UNL     1      21.394   2.376  52.867  1.00  0.00    -0.354 N 
HETATM   14  H6  UNL     1      21.256   3.124  53.580  1.00  0.00     0.166 HD
BRANCH  13  15
HETATM   15  C8  UNL     1      21.274   1.030  53.252  1.00  0.00     0.033 A 
HETATM   16  C9  UNL     1      22.354   0.298  53.703  1.00  0.00     0.029 A 
HETATM   17  C10 UNL     1      22.186  -1.024  54.071  1.00  0.00     0.004 A 
HETATM   18  C11 UNL     1      20.963  -1.659  54.005  1.00  0.00     0.019 A 
HETATM   19  C12 UNL     1      19.846  -0.951  53.552  1.00  0.00     0.013 A 
HETATM   20 BR1  UNL     1      18.105  -1.730  53.420  1.00  0.00    -0.051 Br
HETATM   21  C13 UNL     1      20.057   0.368  53.196  1.00  0.00     0.048 A 
ENDBRANCH  13  15
ENDBRANCH   4  13
BRANCH   1  22
HETATM   22  N1  UNL     1      26.497   2.569  52.474  1.00  0.00    -0.321 N 
HETATM   23  C3  UNL     1      27.227   1.407  52.719  1.00  0.00     0.242 C 
HETATM   24  O1  UNL     1      26.898   0.353  52.138  1.00  0.00    -0.269 OA
HETATM   25  H4  UNL     1      26.871   3.394  53.022  1.00  0.00     0.169 HD
BRANCH  23  26
HETATM   26  C2  UNL     1      28.364   1.340  53.620  1.00  0.00     0.048 C 
HETATM   27  C1  UNL     1      28.473   0.472  54.613  1.00  0.00     0.037 C 
ENDBRANCH  23  26
ENDBRANCH   1  22
BRANCH  12  28
HETATM   28  O2  UNL     1      26.896   3.306  49.846  1.00  0.00    -0.354 OA
HETATM   29  C20 UNL     1      27.248   4.339  48.942  1.00  0.00     0.210 C 
ENDBRANCH  12  28
TORSDOF 5
ENDMDL
MODEL 7
REMARK VINA RESULT:      -7.5      3.700      6.308
REMARK  5 active torsions:
REMARK  status: ('A' for Active; 'I' for Inactive)
REMARK    1  A    between atoms: C2_2  and  C3_3 
REMARK       I    between atoms: C3_3  and  N1_5 
REMARK    2  A    between atoms: N1_5  and  C4_6 
REMARK    3  A    between atoms: C7_9  and  N2_10 
REMARK    4  A    between atoms: N2_10  and  C8_11 
REMARK    5  A    between atoms: C19_25  and  O2_26 
ROOT
HETATM    1  C4  UNL     1      28.161   6.516  48.351  1.00  0.00     0.069 A 
HETATM    2  C5  UNL     1      27.039   5.846  48.732  1.00  0.00     0.048 A 
HETATM    3  C6  UNL     1      25.978   6.392  49.423  1.00  0.00     0.023 A 
HETATM    4  C7  UNL     1      24.870   5.648  49.775  1.00  0.00     0.067 A 
HETATM    5  C14 UNL     1      23.874   6.311  50.465  1.00  0.00     0.089 A 
HETATM    6  C15 UNL     1      22.674   5.602  50.874  1.00  0.00     0.103 C 
HETATM    7  N3  UNL     1      21.716   5.029  51.184  1.00  0.00    -0.191 NA
HETATM    8  C16 UNL     1      23.934   7.640  50.808  1.00  0.00     0.142 A 
HETATM    9  N4  UNL     1      25.043   8.339  50.442  1.00  0.00    -0.259 NA
HETATM   10  C17 UNL     1      26.022   7.726  49.774  1.00  0.00     0.071 A 
HETATM   11  C18 UNL     1      27.143   8.439  49.406  1.00  0.00     0.071 A 
HETATM   12  C19 UNL     1      28.174   7.841  48.717  1.00  0.00     0.097 A 
ENDROOT
BRANCH   4  13
HETATM   13  N2  UNL     1      24.776   4.294  49.443  1.00  0.00    -0.354 N 
HETATM   14  H6  UNL     1      24.414   4.032  48.500  1.00  0.00     0.166 HD
BRANCH  13  15
HETATM   15  C8  UNL     1      25.153   3.281  50.339  1.00  0.00     0.033 A 
HETATM   16  C9  UNL     1      26.477   2.984  50.596  1.00  0.00     0.029 A 
HETATM   17  C10 UNL     1      26.798   1.977  51.487  1.00  0.00     0.004 A 
HETATM   18  C11 UNL     1      25.835   1.238  52.145  1.00  0.00     0.019 A 
HETATM   19  C12 UNL     1      24.485   1.507  51.909  1.00  0.00     0.013 A 
HETATM   20 BR1  UNL     1      23.069   0.548  52.763  1.00  0.00    -0.051 Br
HETATM   21  C13 UNL     1      24.207   2.523  51.013  1.00  0.00     0.048 A 
ENDBRANCH  13  15
ENDBRANCH   4  13
BRANCH   1  22
HETATM   22  N1  UNL     1      29.265   5.985  47.645  1.00  0.00    -0.321 N 
HETATM   23  C3  UNL     1      30.497   5.531  48.113  1.00  0.00     0.242 C 
HETATM   24  O1  UNL     1      30.730   5.572  49.337  1.00  0.00    -0.269 OA
HETATM   25  H4  UNL     1      29.185   5.900  46.593  1.00  0.00     0.169 HD
BRANCH  23  26
HETATM   26  C2  UNL     1      31.545   5.006  47.254  1.00  0.00     0.048 C 
HETATM   27  C1  UNL     1      32.267   3.934  47.538  1.00  0.00     0.037 C 
ENDBRANCH  23  26
ENDBRANCH   1  22
BRANCH  12  28
HETATM   28  O2  UNL     1      29.275   8.642  48.385  1.00  0.00    -0.354 OA
HETATM   29  C20 UNL     1      30.008   9.357  49.365  1.00  0.00     0.210 C 
ENDBRANCH  12  28
TORSDOF 5
ENDMDL
MODEL 8
REMARK VINA RESULT:      -7.4      3.140      7.363
REMARK  5 active torsions:
REMARK  status: ('A' for Active; 'I' for Inactive)
REMARK    1  A    between atoms: C2_2  and  C3_3 
REMARK       I    between atoms: C3_3  and  N1_5 
REMARK    2  A    between atoms: N1_5  and  C4_6 
REMARK    3  A    between atoms: C7_9  and  N2_10 
REMARK    4  A    between atoms: N2_10  and  C8_11 
REMARK    5  A    between atoms: C19_25  and  O2_26 
ROOT
HETATM    1  C4  UNL     1      24.621   1.081  52.684  1.00  0.00     0.069 A 
HETATM    2  C5  UNL     1      24.163   2.137  51.957  1.00  0.00     0.048 A 
HETATM    3  C6  UNL     1      24.915   2.892  51.082  1.00  0.00     0.023 A 
HETATM    4  C7  UNL     1      24.380   3.951  50.377  1.00  0.00     0.067 A 
HETATM    5  C14 UNL     1      25.238   4.628  49.533  1.00  0.00     0.089 A 
HETATM    6  C15 UNL     1      24.756   5.755  48.754  1.00  0.00     0.103 C 
HETATM    7  N3  UNL     1      24.357   6.645  48.129  1.00  0.00    -0.191 NA
HETATM    8  C16 UNL     1      26.563   4.303  49.365  1.00  0.00     0.142 A 
HETATM    9  N4  UNL     1      27.052   3.252  50.077  1.00  0.00    -0.259 NA
HETATM   10  C17 UNL     1      26.248   2.579  50.902  1.00  0.00     0.071 A 
HETATM   11  C18 UNL     1      26.749   1.515  51.621  1.00  0.00     0.071 A 
HETATM   12  C19 UNL     1      25.951   0.796  52.482  1.00  0.00     0.097 A 
ENDROOT
BRANCH   4  13
HETATM   13  N2  UNL     1      23.038   4.308  50.524  1.00  0.00    -0.354 N 
HETATM   14  H6  UNL     1      22.805   5.193  51.025  1.00  0.00     0.166 HD
BRANCH  13  15
HETATM   15  C8  UNL     1      21.997   3.512  50.017  1.00  0.00     0.033 A 
HETATM   16  C9  UNL     1      22.111   2.828  48.823  1.00  0.00     0.029 A 
HETATM   17  C10 UNL     1      21.059   2.057  48.367  1.00  0.00     0.004 A 
HETATM   18  C11 UNL     1      19.874   1.937  49.064  1.00  0.00     0.019 A 
HETATM   19  C12 UNL     1      19.720   2.616  50.276  1.00  0.00     0.013 A 
HETATM   20 BR1  UNL     1      18.124   2.523  51.325  1.00  0.00    -0.051 Br
HETATM   21  C13 UNL     1      20.796   3.374  50.697  1.00  0.00     0.048 A 
ENDBRANCH  13  15
ENDBRANCH   4  13
BRANCH   1  22
HETATM   22  N1  UNL     1      23.875   0.289  53.588  1.00  0.00    -0.321 N 
HETATM   23  C3  UNL     1      22.672  -0.390  53.405  1.00  0.00     0.242 C 
HETATM   24  O1  UNL     1      22.109  -0.333  52.294  1.00  0.00    -0.269 OA
HETATM   25  H4  UNL     1      24.255   0.166  54.567  1.00  0.00     0.169 HD
BRANCH  23  26
HETATM   26  C2  UNL     1      22.020  -1.172  54.441  1.00  0.00     0.048 C 
HETATM   27  C1  UNL     1      20.809  -1.693  54.325  1.00  0.00     0.037 C 
ENDBRANCH  23  26
ENDBRANCH   1  22
BRANCH  12  28
HETATM   28  O2  UNL     1      26.545  -0.269  53.172  1.00  0.00    -0.354 OA
HETATM   29  C20 UNL     1      26.794  -1.520  52.555  1.00  0.00     0.210 C 
ENDBRANCH  12  28
TORSDOF 5
ENDMDL
MODEL 9
REMARK VINA RESULT:      -7.4      2.866      5.553
REMARK  5 active torsions:
REMARK  status: ('A' for Active; 'I' for Inactive)
REMARK    1  A    between atoms: C2_2  and  C3_3 
REMARK       I    between atoms: C3_3  and  N1_5 
REMARK    2  A    between atoms: N1_5  and  C4_6 
REMARK    3  A    between atoms: C7_9  and  N2_10 
REMARK    4  A    between atoms: N2_10  and  C8_11 
REMARK    5  A    between atoms: C19_25  and  O2_26 
ROOT
HETATM    1  C4  UNL     1      26.192   2.908  50.754  1.00  0.00     0.069 A 
HETATM    2  C5  UNL     1      24.888   2.603  50.507  1.00  0.00     0.048 A 
HETATM    3  C6  UNL     1      24.089   1.808  51.300  1.00  0.00     0.023 A 
HETATM    4  C7  UNL     1      22.771   1.543  50.984  1.00  0.00     0.067 A 
HETATM    5  C14 UNL     1      22.077   0.732  51.859  1.00  0.00     0.089 A 
HETATM    6  C15 UNL     1      20.685   0.404  51.601  1.00  0.00     0.103 C 
HETATM    7  N3  UNL     1      19.573   0.159  51.392  1.00  0.00    -0.191 NA
HETATM    8  C16 UNL     1      22.621   0.191  52.999  1.00  0.00     0.142 A 
HETATM    9  N4  UNL     1      23.923   0.476  53.275  1.00  0.00    -0.259 NA
HETATM   10  C17 UNL     1      24.620   1.257  52.448  1.00  0.00     0.071 A 
HETATM   11  C18 UNL     1      25.939   1.542  52.734  1.00  0.00     0.071 A 
HETATM   12  C19 UNL     1      26.691   2.343  51.905  1.00  0.00     0.097 A 
ENDROOT
BRANCH   4  13
HETATM   13  N2  UNL     1      22.186   2.077  49.833  1.00  0.00    -0.354 N 
HETATM   14  H6  UNL     1      21.994   1.443  49.027  1.00  0.00     0.166 HD
BRANCH  13  15
HETATM   15  C8  UNL     1      21.852   3.437  49.731  1.00  0.00     0.033 A 
HETATM   16  C9  UNL     1      21.115   4.086  50.702  1.00  0.00     0.029 A 
HETATM   17  C10 UNL     1      20.811   5.427  50.556  1.00  0.00     0.004 A 
HETATM   18  C11 UNL     1      21.219   6.162  49.461  1.00  0.00     0.019 A 
HETATM   19  C12 UNL     1      21.965   5.540  48.457  1.00  0.00     0.013 A 
HETATM   20 BR1  UNL     1      22.581   6.459  46.898  1.00  0.00    -0.051 Br
HETATM   21  C13 UNL     1      22.248   4.199  48.642  1.00  0.00     0.048 A 
ENDBRANCH  13  15
ENDBRANCH   4  13
BRANCH   1  22
HETATM   22  N1  UNL     1      27.037   3.718  49.962  1.00  0.00    -0.321 N 
HETATM   23  C3  UNL     1      26.745   4.860  49.217  1.00  0.00     0.242 C 
HETATM   24  O1  UNL     1      25.574   5.290  49.203  1.00  0.00    -0.269 OA
HETATM   25  H4  UNL     1      28.059   3.453  49.896  1.00  0.00     0.169 HD
BRANCH  23  26
HETATM   26  C2  UNL     1      27.731   5.595  48.444  1.00  0.00     0.048 C 
HETATM   27  C1  UNL     1      27.618   6.874  48.123  1.00  0.00     0.037 C 
ENDBRANCH  23  26
ENDBRANCH   1  22
BRANCH  12  28
HETATM   28  O2  UNL     1      28.022   2.579  52.272  1.00  0.00    -0.354 OA
HETATM   29  C20 UNL     1      28.482   2.381  53.598  1.00  0.00     0.210 C 
ENDBRANCH  12  28
TORSDOF 5
ENDMDL
