MODEL 1
REMARK VINA RESULT:      -9.1      0.000      0.000
REMARK  3 active torsions:
REMARK  status: ('A' for Active; 'I' for Inactive)
REMARK    1  A    between atoms: N1_1  and  C1_2 
REMARK    2  A    between atoms: C9_11  and  N3_12 
REMARK    3  A    between atoms: N3_12  and  C10_13 
ROOT
HETATM    1  C1  UNL     1      17.804  -1.653  53.136  1.00  0.00     0.026 A 
HETATM    2  C2  UNL     1      17.537  -0.678  52.205  1.00  0.00     0.032 A 
HETATM    3  C3  UNL     1      18.481   0.301  51.875  1.00  0.00     0.040 A 
HETATM    4  C4  UNL     1      19.686   0.220  52.548  1.00  0.00     0.086 A 
HETATM    5  C5  UNL     1      20.012  -0.744  53.502  1.00  0.00    -0.004 A 
HETATM    6  C6  UNL     1      19.023  -1.685  53.775  1.00  0.00     0.040 A 
HETATM    7  C7  UNL     1      21.141  -1.084  54.348  1.00  0.00     0.161 C 
HETATM    8  N2  UNL     1      22.357  -0.346  54.119  1.00  0.00    -0.379 N 
HETATM    9  C8  UNL     1      22.735   0.478  53.025  1.00  0.00     0.129 A 
HETATM   10  C9  UNL     1      24.115   0.553  52.854  1.00  0.00     0.160 A 
HETATM   11  N4  UNL     1      24.596   1.311  51.856  1.00  0.00    -0.222 NA
HETATM   12  C16 UNL     1      23.827   2.001  51.014  1.00  0.00     0.238 A 
HETATM   13  N5  UNL     1      22.487   1.949  51.156  1.00  0.00    -0.215 NA
HETATM   14  C17 UNL     1      21.941   1.193  52.153  1.00  0.00     0.202 A 
HETATM   15  O1  UNL     1      20.578   1.236  52.170  1.00  0.00    -0.289 OA
HETATM   16  H8  UNL     1      23.079  -0.435  54.885  1.00  0.00     0.160 HD
ENDROOT
BRANCH  10  17
HETATM   17  N3  UNL     1      24.931  -0.187  53.753  1.00  0.00    -0.339 N 
HETATM   18  H9  UNL     1      24.510  -0.760  54.538  1.00  0.00     0.167 HD
BRANCH  17  19
HETATM   19  C10 UNL     1      26.343  -0.229  53.668  1.00  0.00     0.035 A 
HETATM   20  C11 UNL     1      27.031  -1.318  53.123  1.00  0.00     0.032 A 
HETATM   21  C12 UNL     1      28.403  -1.395  53.042  1.00  0.00     0.046 A 
HETATM   22  C13 UNL     1      29.187  -0.362  53.514  1.00  0.00     0.138 A 
HETATM   23  F1  UNL     1      30.539  -0.386  53.468  1.00  0.00    -0.204 F 
HETATM   24  C14 UNL     1      28.575   0.741  54.063  1.00  0.00     0.074 A 
HETATM   25 CL1  UNL     1      29.537   2.085  54.681  1.00  0.00    -0.081 Cl
HETATM   26  C15 UNL     1      27.200   0.760  54.116  1.00  0.00     0.056 A 
ENDBRANCH  17  19
ENDBRANCH  10  17
BRANCH   1  27
HETATM   27  N1  UNL     1      16.722  -2.524  53.299  1.00  0.00    -0.399 N 
HETATM   28  H1  UNL     1      15.952  -3.058  52.854  1.00  0.00     0.156 HD
HETATM   29  H2  UNL     1      16.659  -2.732  54.338  1.00  0.00     0.156 HD
ENDBRANCH   1  27
TORSDOF 3
ENDMDL
MODEL 2
REMARK VINA RESULT:      -8.7      1.712      2.713
REMARK  3 active torsions:
REMARK  status: ('A' for Active; 'I' for Inactive)
REMARK    1  A    between atoms: N1_1  and  C1_2 
REMARK    2  A    between atoms: C9_11  and  N3_12 
REMARK    3  A    between atoms: N3_12  and  C10_13 
ROOT
HETATM    1  C1  UNL     1      17.226   0.897  51.266  1.00  0.00     0.026 A 
HETATM    2  C2  UNL     1      16.812   0.041  52.259  1.00  0.00     0.032 A 
HETATM    3  C3  UNL     1      17.722  -0.733  52.988  1.00  0.00     0.040 A 
HETATM    4  C4  UNL     1      19.051  -0.579  52.639  1.00  0.00     0.086 A 
HETATM    5  C5  UNL     1      19.529   0.270  51.641  1.00  0.00    -0.004 A 
HETATM    6  C6  UNL     1      18.564   1.010  50.961  1.00  0.00     0.040 A 
HETATM    7  C7  UNL     1      20.807   0.641  51.061  1.00  0.00     0.161 C 
HETATM    8  N2  UNL     1      21.981   0.127  51.720  1.00  0.00    -0.379 N 
HETATM    9  C8  UNL     1      22.125  -0.464  53.004  1.00  0.00     0.129 A 
HETATM   10  C9  UNL     1      23.405  -0.314  53.529  1.00  0.00     0.160 A 
HETATM   11  N4  UNL     1      23.667  -0.840  54.736  1.00  0.00    -0.222 NA
HETATM   12  C16 UNL     1      22.769  -1.503  55.466  1.00  0.00     0.238 A 
HETATM   13  N5  UNL     1      21.521  -1.665  54.982  1.00  0.00    -0.215 NA
HETATM   14  C17 UNL     1      21.197  -1.149  53.760  1.00  0.00     0.202 A 
HETATM   15  O1  UNL     1      19.902  -1.390  53.407  1.00  0.00    -0.289 OA
HETATM   16  H8  UNL     1      22.871   0.204  51.158  1.00  0.00     0.160 HD
ENDROOT
BRANCH  10  17
HETATM   17  N3  UNL     1      24.358   0.395  52.748  1.00  0.00    -0.339 N 
HETATM   18  H9  UNL     1      24.059   1.085  52.003  1.00  0.00     0.167 HD
BRANCH  17  19
HETATM   19  C10 UNL     1      25.757   0.250  52.907  1.00  0.00     0.035 A 
HETATM   20  C11 UNL     1      26.404  -0.983  52.770  1.00  0.00     0.032 A 
HETATM   21  C12 UNL     1      27.760  -1.159  52.936  1.00  0.00     0.046 A 
HETATM   22  C13 UNL     1      28.567  -0.087  53.256  1.00  0.00     0.138 A 
HETATM   23  F1  UNL     1      29.902  -0.201  53.438  1.00  0.00    -0.204 F 
HETATM   24  C14 UNL     1      27.995   1.156  53.405  1.00  0.00     0.074 A 
HETATM   25 CL1  UNL     1      28.988   2.556  53.815  1.00  0.00    -0.081 Cl
HETATM   26  C15 UNL     1      26.636   1.269  53.227  1.00  0.00     0.056 A 
ENDBRANCH  17  19
ENDBRANCH  10  17
BRANCH   1  27
HETATM   27  N1  UNL     1      16.149   1.571  50.680  1.00  0.00    -0.399 N 
HETATM   28  H1  UNL     1      15.337   2.203  50.808  1.00  0.00     0.156 HD
HETATM   29  H2  UNL     1      16.171   1.328  49.647  1.00  0.00     0.156 HD
ENDBRANCH   1  27
TORSDOF 3
ENDMDL
MODEL 3
REMARK VINA RESULT:      -8.6      2.310      3.147
REMARK  3 active torsions:
REMARK  status: ('A' for Active; 'I' for Inactive)
REMARK    1  A    between atoms: N1_1  and  C1_2 
REMARK    2  A    between atoms: C9_11  and  N3_12 
REMARK    3  A    between atoms: N3_12  and  C10_13 
ROOT
HETATM    1  C1  UNL     1      20.089   0.289  52.212  1.00  0.00     0.026 A 
HETATM    2  C2  UNL     1      19.869   0.826  50.965  1.00  0.00     0.032 A 
HETATM    3  C3  UNL     1      20.784   1.701  50.370  1.00  0.00     0.040 A 
HETATM    4  C4  UNL     1      21.911   1.986  51.118  1.00  0.00     0.086 A 
HETATM    5  C5  UNL     1      22.188   1.473  52.385  1.00  0.00    -0.004 A 
HETATM    6  C6  UNL     1      21.232   0.608  52.911  1.00  0.00     0.040 A 
HETATM    7  C7  UNL     1      23.237   1.574  53.384  1.00  0.00     0.161 C 
HETATM    8  N2  UNL     1      24.425   2.289  52.992  1.00  0.00    -0.379 N 
HETATM    9  C8  UNL     1      24.871   2.687  51.703  1.00  0.00     0.129 A 
HETATM   10  C9  UNL     1      26.255   2.824  51.627  1.00  0.00     0.160 A 
HETATM   11  N4  UNL     1      26.795   3.206  50.459  1.00  0.00    -0.222 NA
HETATM   12  C16 UNL     1      26.083   3.465  49.362  1.00  0.00     0.238 A 
HETATM   13  N5  UNL     1      24.741   3.342  49.407  1.00  0.00    -0.215 NA
HETATM   14  C17 UNL     1      24.135   2.955  50.568  1.00  0.00     0.202 A 
HETATM   15  O1  UNL     1      22.779   2.873  50.460  1.00  0.00    -0.289 OA
HETATM   16  H8  UNL     1      25.063   2.555  53.790  1.00  0.00     0.160 HD
ENDROOT
BRANCH  10  17
HETATM   17  N3  UNL     1      27.010   2.545  52.798  1.00  0.00    -0.339 N 
HETATM   18  H9  UNL     1      27.091   3.249  53.584  1.00  0.00     0.167 HD
BRANCH  17  19
HETATM   19  C10 UNL     1      27.692   1.324  53.011  1.00  0.00     0.035 A 
HETATM   20  C11 UNL     1      28.983   1.267  53.546  1.00  0.00     0.032 A 
HETATM   21  C12 UNL     1      29.678   0.096  53.748  1.00  0.00     0.046 A 
HETATM   22  C13 UNL     1      29.110  -1.117  53.419  1.00  0.00     0.138 A 
HETATM   23  F1  UNL     1      29.748  -2.297  53.587  1.00  0.00    -0.204 F 
HETATM   24  C14 UNL     1      27.841  -1.135  52.887  1.00  0.00     0.074 A 
HETATM   25 CL1  UNL     1      27.073  -2.662  52.449  1.00  0.00    -0.081 Cl
HETATM   26  C15 UNL     1      27.196   0.067  52.709  1.00  0.00     0.056 A 
ENDBRANCH  17  19
ENDBRANCH  10  17
BRANCH   1  27
HETATM   27  N1  UNL     1      19.049  -0.560  52.602  1.00  0.00    -0.399 N 
HETATM   28  H1  UNL     1      18.571  -1.472  52.481  1.00  0.00     0.156 HD
HETATM   29  H2  UNL     1      18.508  -0.044  53.354  1.00  0.00     0.156 HD
ENDBRANCH   1  27
TORSDOF 3
ENDMDL
MODEL 4
REMARK VINA RESULT:      -8.5      4.326      7.672
REMARK  3 active torsions:
REMARK  status: ('A' for Active; 'I' for Inactive)
REMARK    1  A    between atoms: N1_1  and  C1_2 
REMARK    2  A    between atoms: C9_11  and  N3_12 
REMARK    3  A    between atoms: N3_12  and  C10_13 
ROOT
HETATM    1  C1  UNL     1      28.437   6.798  48.165  1.00  0.00     0.026 A 
HETATM    2  C2  UNL     1      27.586   7.849  48.413  1.00  0.00     0.032 A 
HETATM    3  C3  UNL     1      26.310   7.651  48.950  1.00  0.00     0.040 A 
HETATM    4  C4  UNL     1      25.968   6.336  49.207  1.00  0.00     0.086 A 
HETATM    5  C5  UNL     1      26.786   5.231  48.975  1.00  0.00    -0.004 A 
HETATM    6  C6  UNL     1      28.043   5.508  48.441  1.00  0.00     0.040 A 
HETATM    7  C7  UNL     1      26.722   3.789  49.131  1.00  0.00     0.161 C 
HETATM    8  N2  UNL     1      25.571   3.273  49.828  1.00  0.00    -0.379 N 
HETATM    9  C8  UNL     1      24.611   3.944  50.633  1.00  0.00     0.129 A 
HETATM   10  C9  UNL     1      24.016   3.110  51.576  1.00  0.00     0.160 A 
HETATM   11  N4  UNL     1      23.083   3.630  52.390  1.00  0.00    -0.222 NA
HETATM   12  C16 UNL     1      22.689   4.902  52.348  1.00  0.00     0.238 A 
HETATM   13  N5  UNL     1      23.247   5.733  51.444  1.00  0.00    -0.215 NA
HETATM   14  C17 UNL     1      24.202   5.261  50.590  1.00  0.00     0.202 A 
HETATM   15  O1  UNL     1      24.673   6.214  49.737  1.00  0.00    -0.289 OA
HETATM   16  H8  UNL     1      25.422   2.233  49.725  1.00  0.00     0.160 HD
ENDROOT
BRANCH  10  17
HETATM   17  N3  UNL     1      24.441   1.755  51.618  1.00  0.00    -0.339 N 
HETATM   18  H9  UNL     1      24.053   1.033  50.947  1.00  0.00     0.167 HD
BRANCH  17  19
HETATM   19  C10 UNL     1      25.406   1.270  52.532  1.00  0.00     0.035 A 
HETATM   20  C11 UNL     1      25.219   0.097  53.270  1.00  0.00     0.032 A 
HETATM   21  C12 UNL     1      26.132  -0.390  54.179  1.00  0.00     0.046 A 
HETATM   22  C13 UNL     1      27.313   0.285  54.410  1.00  0.00     0.138 A 
HETATM   23  F1  UNL     1      28.241  -0.141  55.296  1.00  0.00    -0.204 F 
HETATM   24  C14 UNL     1      27.561   1.447  53.717  1.00  0.00     0.074 A 
HETATM   25 CL1  UNL     1      29.057   2.346  53.980  1.00  0.00    -0.081 Cl
HETATM   26  C15 UNL     1      26.612   1.884  52.821  1.00  0.00     0.056 A 
ENDBRANCH  17  19
ENDBRANCH  10  17
BRANCH   1  27
HETATM   27  N1  UNL     1      29.657   7.232  47.637  1.00  0.00    -0.399 N 
HETATM   28  H1  UNL     1      30.470   7.027  47.026  1.00  0.00     0.156 HD
HETATM   29  H2  UNL     1      29.830   8.198  48.039  1.00  0.00     0.156 HD
ENDBRANCH   1  27
TORSDOF 3
ENDMDL
MODEL 5
REMARK VINA RESULT:      -8.4      3.261      6.091
REMARK  3 active torsions:
REMARK  status: ('A' for Active; 'I' for Inactive)
REMARK    1  A    between atoms: N1_1  and  C1_2 
REMARK    2  A    between atoms: C9_11  and  N3_12 
REMARK    3  A    between atoms: N3_12  and  C10_13 
ROOT
HETATM    1  C1  UNL     1      23.679   6.698  47.732  1.00  0.00     0.026 A 
HETATM    2  C2  UNL     1      22.522   5.988  47.517  1.00  0.00     0.032 A 
HETATM    3  C3  UNL     1      22.300   4.744  48.118  1.00  0.00     0.040 A 
HETATM    4  C4  UNL     1      23.319   4.284  48.931  1.00  0.00     0.086 A 
HETATM    5  C5  UNL     1      24.513   4.957  49.186  1.00  0.00    -0.004 A 
HETATM    6  C6  UNL     1      24.660   6.189  48.554  1.00  0.00     0.040 A 
HETATM    7  C7  UNL     1      25.725   4.750  49.957  1.00  0.00     0.161 C 
HETATM    8  N2  UNL     1      25.735   3.609  50.838  1.00  0.00    -0.379 N 
HETATM    9  C8  UNL     1      24.663   2.794  51.291  1.00  0.00     0.129 A 
HETATM   10  C9  UNL     1      24.923   2.189  52.518  1.00  0.00     0.160 A 
HETATM   11  N4  UNL     1      23.987   1.385  53.046  1.00  0.00    -0.222 NA
HETATM   12  C16 UNL     1      22.816   1.129  52.462  1.00  0.00     0.238 A 
HETATM   13  N5  UNL     1      22.537   1.699  51.273  1.00  0.00    -0.215 NA
HETATM   14  C17 UNL     1      23.451   2.528  50.688  1.00  0.00     0.202 A 
HETATM   15  O1  UNL     1      23.029   3.030  49.493  1.00  0.00    -0.289 OA
HETATM   16  H8  UNL     1      26.689   3.340  51.202  1.00  0.00     0.160 HD
ENDROOT
BRANCH  10  17
HETATM   17  N3  UNL     1      26.172   2.467  53.137  1.00  0.00    -0.339 N 
HETATM   18  H9  UNL     1      26.397   3.429  53.520  1.00  0.00     0.167 HD
BRANCH  17  19
HETATM   19  C10 UNL     1      27.192   1.500  53.301  1.00  0.00     0.035 A 
HETATM   20  C11 UNL     1      28.472   1.829  53.758  1.00  0.00     0.032 A 
HETATM   21  C12 UNL     1      29.490   0.914  53.910  1.00  0.00     0.046 A 
HETATM   22  C13 UNL     1      29.282  -0.415  53.607  1.00  0.00     0.138 A 
HETATM   23  F1  UNL     1      30.246  -1.356  53.730  1.00  0.00    -0.204 F 
HETATM   24  C14 UNL     1      28.045  -0.809  53.152  1.00  0.00     0.074 A 
HETATM   25 CL1  UNL     1      27.733  -2.498  52.749  1.00  0.00    -0.081 Cl
HETATM   26  C15 UNL     1      27.068   0.151  53.020  1.00  0.00     0.056 A 
ENDBRANCH  17  19
ENDBRANCH  10  17
BRANCH   1  27
HETATM   27  N1  UNL     1      23.680   7.912  47.038  1.00  0.00    -0.399 N 
HETATM   28  H1  UNL     1      24.213   8.749  46.738  1.00  0.00     0.156 HD
HETATM   29  H2  UNL     1      22.702   8.032  46.645  1.00  0.00     0.156 HD
ENDBRANCH   1  27
TORSDOF 3
ENDMDL
MODEL 6
REMARK VINA RESULT:      -8.4      3.602      4.985
REMARK  3 active torsions:
REMARK  status: ('A' for Active; 'I' for Inactive)
REMARK    1  A    between atoms: N1_1  and  C1_2 
REMARK    2  A    between atoms: C9_11  and  N3_12 
REMARK    3  A    between atoms: N3_12  and  C10_13 
ROOT
HETATM    1  C1  UNL     1      19.433  -0.953  53.481  1.00  0.00     0.026 A 
HETATM    2  C2  UNL     1      20.291  -1.792  54.152  1.00  0.00     0.032 A 
HETATM    3  C3  UNL     1      21.680  -1.646  54.064  1.00  0.00     0.040 A 
HETATM    4  C4  UNL     1      22.122  -0.611  53.261  1.00  0.00     0.086 A 
HETATM    5  C5  UNL     1      21.301   0.269  52.557  1.00  0.00    -0.004 A 
HETATM    6  C6  UNL     1      19.930   0.063  52.695  1.00  0.00     0.040 A 
HETATM    7  C7  UNL     1      21.451   1.407  51.668  1.00  0.00     0.161 C 
HETATM    8  N2  UNL     1      22.788   1.919  51.506  1.00  0.00    -0.379 N 
HETATM    9  C8  UNL     1      23.960   1.678  52.274  1.00  0.00     0.129 A 
HETATM   10  C9  UNL     1      24.877   2.724  52.206  1.00  0.00     0.160 A 
HETATM   11  N4  UNL     1      26.030   2.608  52.884  1.00  0.00    -0.222 NA
HETATM   12  C16 UNL     1      26.352   1.544  53.620  1.00  0.00     0.238 A 
HETATM   13  N5  UNL     1      25.485   0.516  53.703  1.00  0.00    -0.215 NA
HETATM   14  C17 UNL     1      24.294   0.579  53.036  1.00  0.00     0.202 A 
HETATM   15  O1  UNL     1      23.523  -0.531  53.216  1.00  0.00    -0.289 OA
HETATM   16  H8  UNL     1      22.914   2.578  50.690  1.00  0.00     0.160 HD
ENDROOT
BRANCH  10  17
HETATM   17  N3  UNL     1      24.528   3.856  51.421  1.00  0.00    -0.339 N 
HETATM   18  H9  UNL     1      23.581   4.323  51.514  1.00  0.00     0.167 HD
BRANCH  17  19
HETATM   19  C10 UNL     1      25.401   4.449  50.479  1.00  0.00     0.035 A 
HETATM   20  C11 UNL     1      26.418   3.731  49.842  1.00  0.00     0.032 A 
HETATM   21  C12 UNL     1      27.294   4.284  48.935  1.00  0.00     0.046 A 
HETATM   22  C13 UNL     1      27.202   5.620  48.604  1.00  0.00     0.138 A 
HETATM   23  F1  UNL     1      28.039   6.219  47.726  1.00  0.00    -0.204 F 
HETATM   24  C14 UNL     1      26.223   6.386  49.193  1.00  0.00     0.074 A 
HETATM   25 CL1  UNL     1      26.067   8.100  48.802  1.00  0.00    -0.081 Cl
HETATM   26  C15 UNL     1      25.377   5.777  50.092  1.00  0.00     0.056 A 
ENDBRANCH  17  19
ENDBRANCH  10  17
BRANCH   1  27
HETATM   27  N1  UNL     1      18.094  -1.280  53.721  1.00  0.00    -0.399 N 
HETATM   28  H1  UNL     1      17.362  -2.014  53.741  1.00  0.00     0.156 HD
HETATM   29  H2  UNL     1      17.614  -0.379  54.010  1.00  0.00     0.156 HD
ENDBRANCH   1  27
TORSDOF 3
ENDMDL
MODEL 7
REMARK VINA RESULT:      -8.3      4.307      7.529
REMARK  3 active torsions:
REMARK  status: ('A' for Active; 'I' for Inactive)
REMARK    1  A    between atoms: N1_1  and  C1_2 
REMARK    2  A    between atoms: C9_11  and  N3_12 
REMARK    3  A    between atoms: N3_12  and  C10_13 
ROOT
HETATM    1  C1  UNL     1      28.516  -0.505  53.485  1.00  0.00     0.026 A 
HETATM    2  C2  UNL     1      27.689  -1.513  53.050  1.00  0.00     0.032 A 
HETATM    3  C3  UNL     1      26.339  -1.284  52.761  1.00  0.00     0.040 A 
HETATM    4  C4  UNL     1      25.901   0.014  52.946  1.00  0.00     0.086 A 
HETATM    5  C5  UNL     1      26.691   1.076  53.385  1.00  0.00    -0.004 A 
HETATM    6  C6  UNL     1      28.024   0.771  53.651  1.00  0.00     0.040 A 
HETATM    7  C7  UNL     1      26.536   2.492  53.668  1.00  0.00     0.161 C 
HETATM    8  N2  UNL     1      25.272   3.081  53.304  1.00  0.00    -0.379 N 
HETATM    9  C8  UNL     1      24.237   2.583  52.467  1.00  0.00     0.129 A 
HETATM   10  C9  UNL     1      23.471   3.594  51.893  1.00  0.00     0.160 A 
HETATM   11  N4  UNL     1      22.455   3.247  51.087  1.00  0.00    -0.222 NA
HETATM   12  C16 UNL     1      22.132   1.985  50.804  1.00  0.00     0.238 A 
HETATM   13  N5  UNL     1      22.855   0.985  51.347  1.00  0.00    -0.215 NA
HETATM   14  C17 UNL     1      23.902   1.278  52.173  1.00  0.00     0.202 A 
HETATM   15  O1  UNL     1      24.538   0.167  52.642  1.00  0.00    -0.289 OA
HETATM   16  H8  UNL     1      25.090   4.031  53.726  1.00  0.00     0.160 HD
ENDROOT
BRANCH  10  17
HETATM   17  N3  UNL     1      23.821   4.938  52.196  1.00  0.00    -0.339 N 
HETATM   18  H9  UNL     1      23.731   5.324  53.178  1.00  0.00     0.167 HD
BRANCH  17  19
HETATM   19  C10 UNL     1      24.318   5.848  51.234  1.00  0.00     0.035 A 
HETATM   20  C11 UNL     1      23.781   7.129  51.063  1.00  0.00     0.032 A 
HETATM   21  C12 UNL     1      24.231   8.030  50.124  1.00  0.00     0.046 A 
HETATM   22  C13 UNL     1      25.269   7.695  49.280  1.00  0.00     0.138 A 
HETATM   23  F1  UNL     1      25.748   8.536  48.335  1.00  0.00    -0.204 F 
HETATM   24  C14 UNL     1      25.844   6.450  49.393  1.00  0.00     0.074 A 
HETATM   25 CL1  UNL     1      27.174   5.977  48.334  1.00  0.00    -0.081 Cl
HETATM   26  C15 UNL     1      25.352   5.593  50.350  1.00  0.00     0.056 A 
ENDBRANCH  17  19
ENDBRANCH  10  17
BRANCH   1  27
HETATM   27  N1  UNL     1      29.819  -0.961  53.704  1.00  0.00    -0.399 N 
HETATM   28  H1  UNL     1      30.435  -1.720  54.050  1.00  0.00     0.156 HD
HETATM   29  H2  UNL     1      30.466  -0.190  53.368  1.00  0.00     0.156 HD
ENDBRANCH   1  27
TORSDOF 3
ENDMDL
MODEL 8
REMARK VINA RESULT:      -8.3      5.050      7.498
REMARK  3 active torsions:
REMARK  status: ('A' for Active; 'I' for Inactive)
REMARK    1  A    between atoms: N1_1  and  C1_2 
REMARK    2  A    between atoms: C9_11  and  N3_12 
REMARK    3  A    between atoms: N3_12  and  C10_13 
ROOT
HETATM    1  C1  UNL     1      26.505  -0.797  52.955  1.00  0.00     0.026 A 
HETATM    2  C2  UNL     1      25.420  -0.677  53.792  1.00  0.00     0.032 A 
HETATM    3  C3  UNL     1      24.654   0.493  53.839  1.00  0.00     0.040 A 
HETATM    4  C4  UNL     1      25.064   1.509  52.997  1.00  0.00     0.086 A 
HETATM    5  C5  UNL     1      26.154   1.447  52.129  1.00  0.00    -0.004 A 
HETATM    6  C6  UNL     1      26.866   0.250  52.136  1.00  0.00     0.040 A 
HETATM    7  C7  UNL     1      26.812   2.304  51.160  1.00  0.00     0.161 C 
HETATM    8  N2  UNL     1      26.150   3.546  50.852  1.00  0.00    -0.379 N 
HETATM    9  C8  UNL     1      24.821   3.968  51.127  1.00  0.00     0.129 A 
HETATM   10  C9  UNL     1      24.359   4.925  50.229  1.00  0.00     0.160 A 
HETATM   11  N4  UNL     1      23.118   5.409  50.392  1.00  0.00    -0.222 NA
HETATM   12  C16 UNL     1      22.297   5.027  51.371  1.00  0.00     0.238 A 
HETATM   13  N5  UNL     1      22.717   4.102  52.257  1.00  0.00    -0.215 NA
HETATM   14  C17 UNL     1      23.971   3.573  52.139  1.00  0.00     0.202 A 
HETATM   15  O1  UNL     1      24.253   2.651  53.103  1.00  0.00    -0.289 OA
HETATM   16  H8  UNL     1      26.748   4.250  50.340  1.00  0.00     0.160 HD
ENDROOT
BRANCH  10  17
HETATM   17  N3  UNL     1      25.237   5.328  49.186  1.00  0.00    -0.339 N 
HETATM   18  H9  UNL     1      25.283   4.802  48.268  1.00  0.00     0.167 HD
BRANCH  17  19
HETATM   19  C10 UNL     1      26.096   6.448  49.281  1.00  0.00     0.035 A 
HETATM   20  C11 UNL     1      25.825   7.532  50.123  1.00  0.00     0.032 A 
HETATM   21  C12 UNL     1      26.632   8.644  50.224  1.00  0.00     0.046 A 
HETATM   22  C13 UNL     1      27.784   8.739  49.471  1.00  0.00     0.138 A 
HETATM   23  F1  UNL     1      28.610   9.809  49.523  1.00  0.00    -0.204 F 
HETATM   24  C14 UNL     1      28.111   7.707  48.621  1.00  0.00     0.074 A 
HETATM   25 CL1  UNL     1      29.574   7.785  47.637  1.00  0.00    -0.081 Cl
HETATM   26  C15 UNL     1      27.266   6.623  48.564  1.00  0.00     0.056 A 
ENDBRANCH  17  19
ENDBRANCH  10  17
BRANCH   1  27
HETATM   27  N1  UNL     1      27.113  -2.051  53.071  1.00  0.00    -0.399 N 
HETATM   28  H1  UNL     1      27.237  -3.003  52.680  1.00  0.00     0.156 HD
HETATM   29  H2  UNL     1      27.712  -2.013  53.945  1.00  0.00     0.156 HD
ENDBRANCH   1  27
TORSDOF 3
ENDMDL
MODEL 9
REMARK VINA RESULT:      -8.1      4.529      8.242
REMARK  3 active torsions:
REMARK  status: ('A' for Active; 'I' for Inactive)
REMARK    1  A    between atoms: N1_1  and  C1_2 
REMARK    2  A    between atoms: C9_11  and  N3_12 
REMARK    3  A    between atoms: N3_12  and  C10_13 
ROOT
HETATM    1  C1  UNL     1      27.311   0.176  54.100  1.00  0.00     0.026 A 
HETATM    2  C2  UNL     1      27.433   1.320  53.347  1.00  0.00     0.032 A 
HETATM    3  C3  UNL     1      26.338   1.883  52.683  1.00  0.00     0.040 A 
HETATM    4  C4  UNL     1      25.138   1.212  52.834  1.00  0.00     0.086 A 
HETATM    5  C5  UNL     1      24.954   0.050  53.582  1.00  0.00    -0.004 A 
HETATM    6  C6  UNL     1      26.090  -0.449  54.216  1.00  0.00     0.040 A 
HETATM    7  C7  UNL     1      23.870  -0.853  53.922  1.00  0.00     0.161 C 
HETATM    8  N2  UNL     1      22.548  -0.447  53.516  1.00  0.00    -0.379 N 
HETATM    9  C8  UNL     1      22.075   0.818  53.074  1.00  0.00     0.129 A 
HETATM   10  C9  UNL     1      20.717   1.003  53.315  1.00  0.00     0.160 A 
HETATM   11  N4  UNL     1      20.151   2.159  52.932  1.00  0.00    -0.222 NA
HETATM   12  C16 UNL     1      20.816   3.145  52.329  1.00  0.00     0.238 A 
HETATM   13  N5  UNL     1      22.132   2.993  52.081  1.00  0.00    -0.215 NA
HETATM   14  C17 UNL     1      22.762   1.839  52.450  1.00  0.00     0.202 A 
HETATM   15  O1  UNL     1      24.089   1.831  52.136  1.00  0.00    -0.289 OA
HETATM   16  H8  UNL     1      21.820  -1.210  53.556  1.00  0.00     0.160 HD
ENDROOT
BRANCH  10  17
HETATM   17  N3  UNL     1      20.013  -0.050  53.961  1.00  0.00    -0.339 N 
HETATM   18  H9  UNL     1      20.292  -0.392  54.923  1.00  0.00     0.167 HD
BRANCH  17  19
HETATM   19  C10 UNL     1      18.897  -0.705  53.389  1.00  0.00     0.035 A 
HETATM   20  C11 UNL     1      18.110  -0.117  52.394  1.00  0.00     0.032 A 
HETATM   21  C12 UNL     1      17.008  -0.722  51.831  1.00  0.00     0.046 A 
HETATM   22  C13 UNL     1      16.620  -1.981  52.240  1.00  0.00     0.138 A 
HETATM   23  F1  UNL     1      15.544  -2.620  51.728  1.00  0.00    -0.204 F 
HETATM   24  C14 UNL     1      17.351  -2.618  53.216  1.00  0.00     0.074 A 
HETATM   25 CL1  UNL     1      16.892  -4.228  53.772  1.00  0.00    -0.081 Cl
HETATM   26  C15 UNL     1      18.442  -1.963  53.741  1.00  0.00     0.056 A 
ENDBRANCH  17  19
ENDBRANCH  10  17
BRANCH   1  27
HETATM   27  N1  UNL     1      28.529  -0.199  54.676  1.00  0.00    -0.399 N 
HETATM   28  H1  UNL     1      29.166  -0.143  55.492  1.00  0.00     0.156 HD
HETATM   29  H2  UNL     1      29.021  -0.811  53.962  1.00  0.00     0.156 HD
ENDBRANCH   1  27
TORSDOF 3
ENDMDL
