MODEL 1
REMARK VINA RESULT:      -7.1      0.000      0.000
REMARK  5 active torsions:
REMARK  status: ('A' for Active; 'I' for Inactive)
REMARK    1  A    between atoms: C4_4  and  C5_5 
REMARK    2  A    between atoms: C7_7  and  C8_8 
REMARK    3  A    between atoms: C9_10  and  S1_11 
REMARK    4  A    between atoms: S1_11  and  S2_12 
REMARK    5  A    between atoms: S2_12  and  C10_13 
ROOT
HETATM    1  C1  UNL     1      22.067  -1.072  54.759  1.00  0.00     0.099 C 
HETATM    2  C2  UNL     1      22.754  -0.378  53.913  1.00  0.00    -0.125 C 
HETATM    3  C3  UNL     1      23.497   0.282  53.076  1.00  0.00     0.088 A 
HETATM    4  C4  UNL     1      24.850   0.240  53.055  1.00  0.00     0.011 A 
HETATM    5  C7  UNL     1      25.169   1.102  51.994  1.00  0.00     0.049 A 
HETATM    6  C9  UNL     1      23.979   1.608  51.445  1.00  0.00     0.098 A 
HETATM    7  N1  UNL     1      22.974   1.064  52.156  1.00  0.00    -0.338 N 
HETATM    8  C16 UNL     1      21.600   1.350  51.886  1.00  0.00     0.158 C 
ENDROOT
BRANCH   4   9
HETATM    9  C5  UNL     1      25.691  -0.435  53.828  1.00  0.00    -0.016 C 
HETATM   10  C6  UNL     1      26.418   0.164  54.972  1.00  0.00     0.037 C 
ENDBRANCH   4   9
BRANCH   5  11
HETATM   11  C8  UNL     1      26.545   1.404  51.557  1.00  0.00     0.273 C 
HETATM   12  O1  UNL     1      27.224   2.388  51.948  1.00  0.00    -0.301 OA
ENDBRANCH   5  11
BRANCH   6  13
HETATM   13  S1  UNL     1      24.023   2.747  50.066  1.00  0.00    -0.033 SA
BRANCH  13  14
HETATM   14  S2  UNL     1      24.382   4.677  50.823  1.00  0.00    -0.051 SA
BRANCH  14  15
HETATM   15  C10 UNL     1      25.681   5.443  49.875  1.00  0.00     0.011 A 
HETATM   16  C11 UNL     1      25.917   6.769  49.587  1.00  0.00     0.019 A 
HETATM   17  C12 UNL     1      27.005   7.111  48.814  1.00  0.00     0.001 A 
HETATM   18  C13 UNL     1      27.889   6.186  48.301  1.00  0.00     0.000 A 
HETATM   19  C14 UNL     1      27.655   4.858  48.588  1.00  0.00     0.001 A 
HETATM   20  C15 UNL     1      26.559   4.475  49.369  1.00  0.00     0.019 A 
ENDBRANCH  14  15
ENDBRANCH  13  14
ENDBRANCH   6  13
TORSDOF 5
ENDMDL
MODEL 2
REMARK VINA RESULT:      -6.8      1.798      2.965
REMARK  5 active torsions:
REMARK  status: ('A' for Active; 'I' for Inactive)
REMARK    1  A    between atoms: C4_4  and  C5_5 
REMARK    2  A    between atoms: C7_7  and  C8_8 
REMARK    3  A    between atoms: C9_10  and  S1_11 
REMARK    4  A    between atoms: S1_11  and  S2_12 
REMARK    5  A    between atoms: S2_12  and  C10_13 
ROOT
HETATM    1  C1  UNL     1      26.707  -1.311  52.962  1.00  0.00     0.099 C 
HETATM    2  C2  UNL     1      25.884  -0.337  52.749  1.00  0.00    -0.125 C 
HETATM    3  C3  UNL     1      25.011   0.608  52.569  1.00  0.00     0.088 A 
HETATM    4  C4  UNL     1      23.677   0.463  52.751  1.00  0.00     0.011 A 
HETATM    5  C7  UNL     1      23.183   1.740  52.438  1.00  0.00     0.049 A 
HETATM    6  C9  UNL     1      24.260   2.570  52.087  1.00  0.00     0.098 A 
HETATM    7  N1  UNL     1      25.369   1.815  52.187  1.00  0.00    -0.338 N 
HETATM    8  C16 UNL     1      26.673   2.325  51.901  1.00  0.00     0.158 C 
ENDROOT
BRANCH   4   9
HETATM    9  C5  UNL     1      22.982  -0.602  53.128  1.00  0.00    -0.016 C 
HETATM   10  C6  UNL     1      22.604  -0.883  54.533  1.00  0.00     0.037 C 
ENDBRANCH   4   9
BRANCH   5  11
HETATM   11  C8  UNL     1      21.755   2.109  52.482  1.00  0.00     0.273 C 
HETATM   12  O1  UNL     1      20.972   2.065  51.499  1.00  0.00    -0.301 OA
ENDBRANCH   5  11
BRANCH   6  13
HETATM   13  S1  UNL     1      23.981   4.277  51.626  1.00  0.00    -0.033 SA
BRANCH  13  14
HETATM   14  S2  UNL     1      23.980   4.396  49.525  1.00  0.00    -0.051 SA
BRANCH  14  15
HETATM   15  C10 UNL     1      25.437   5.268  48.990  1.00  0.00     0.011 A 
HETATM   16  C11 UNL     1      25.594   6.562  48.544  1.00  0.00     0.019 A 
HETATM   17  C12 UNL     1      26.846   7.004  48.176  1.00  0.00     0.001 A 
HETATM   18  C13 UNL     1      27.973   6.213  48.229  1.00  0.00     0.000 A 
HETATM   19  C14 UNL     1      27.820   4.918  48.674  1.00  0.00     0.001 A 
HETATM   20  C15 UNL     1      26.563   4.435  49.055  1.00  0.00     0.019 A 
ENDBRANCH  14  15
ENDBRANCH  13  14
ENDBRANCH   6  13
TORSDOF 5
ENDMDL
MODEL 3
REMARK VINA RESULT:      -6.6      2.861      6.774
REMARK  5 active torsions:
REMARK  status: ('A' for Active; 'I' for Inactive)
REMARK    1  A    between atoms: C4_4  and  C5_5 
REMARK    2  A    between atoms: C7_7  and  C8_8 
REMARK    3  A    between atoms: C9_10  and  S1_11 
REMARK    4  A    between atoms: S1_11  and  S2_12 
REMARK    5  A    between atoms: S2_12  and  C10_13 
ROOT
HETATM    1  C1  UNL     1      26.424   3.637  50.020  1.00  0.00     0.099 C 
HETATM    2  C2  UNL     1      25.982   2.702  50.795  1.00  0.00    -0.125 C 
HETATM    3  C3  UNL     1      25.594   1.768  51.611  1.00  0.00     0.088 A 
HETATM    4  C4  UNL     1      26.410   1.119  52.475  1.00  0.00     0.011 A 
HETATM    5  C7  UNL     1      25.533   0.228  53.116  1.00  0.00     0.049 A 
HETATM    6  C9  UNL     1      24.243   0.403  52.589  1.00  0.00     0.098 A 
HETATM    7  N1  UNL     1      24.341   1.371  51.660  1.00  0.00    -0.338 N 
HETATM    8  C16 UNL     1      23.218   1.824  50.901  1.00  0.00     0.158 C 
ENDROOT
BRANCH   4   9
HETATM    9  C5  UNL     1      27.711   1.264  52.688  1.00  0.00    -0.016 C 
HETATM   10  C6  UNL     1      28.289   2.301  53.574  1.00  0.00     0.037 C 
ENDBRANCH   4   9
BRANCH   5  11
HETATM   11  C8  UNL     1      25.941  -0.723  54.167  1.00  0.00     0.273 C 
HETATM   12  O1  UNL     1      25.921  -0.482  55.401  1.00  0.00    -0.301 OA
ENDBRANCH   5  11
BRANCH   6  13
HETATM   13  S1  UNL     1      22.874  -0.583  53.186  1.00  0.00    -0.033 SA
BRANCH  13  14
HETATM   14  S2  UNL     1      21.291   0.717  53.666  1.00  0.00    -0.051 SA
BRANCH  14  15
HETATM   15  C10 UNL     1      19.800   0.133  52.886  1.00  0.00     0.011 A 
HETATM   16  C11 UNL     1      18.879  -0.804  53.301  1.00  0.00     0.019 A 
HETATM   17  C12 UNL     1      17.795  -1.089  52.500  1.00  0.00     0.001 A 
HETATM   18  C13 UNL     1      17.572  -0.480  51.284  1.00  0.00     0.000 A 
HETATM   19  C14 UNL     1      18.491   0.458  50.866  1.00  0.00     0.001 A 
HETATM   20  C15 UNL     1      19.605   0.772  51.654  1.00  0.00     0.019 A 
ENDBRANCH  14  15
ENDBRANCH  13  14
ENDBRANCH   6  13
TORSDOF 5
ENDMDL
MODEL 4
REMARK VINA RESULT:      -6.5      3.256      5.646
REMARK  5 active torsions:
REMARK  status: ('A' for Active; 'I' for Inactive)
REMARK    1  A    between atoms: C4_4  and  C5_5 
REMARK    2  A    between atoms: C7_7  and  C8_8 
REMARK    3  A    between atoms: C9_10  and  S1_11 
REMARK    4  A    between atoms: S1_11  and  S2_12 
REMARK    5  A    between atoms: S2_12  and  C10_13 
ROOT
HETATM    1  C1  UNL     1      19.732  -0.475  53.496  1.00  0.00     0.099 C 
HETATM    2  C2  UNL     1      20.722   0.269  53.127  1.00  0.00    -0.125 C 
HETATM    3  C3  UNL     1      21.678   1.071  52.763  1.00  0.00     0.088 A 
HETATM    4  C4  UNL     1      21.497   2.361  52.392  1.00  0.00     0.011 A 
HETATM    5  C7  UNL     1      22.804   2.784  52.102  1.00  0.00     0.049 A 
HETATM    6  C9  UNL     1      23.687   1.714  52.320  1.00  0.00     0.098 A 
HETATM    7  N1  UNL     1      22.933   0.678  52.729  1.00  0.00    -0.338 N 
HETATM    8  C16 UNL     1      23.490  -0.599  53.047  1.00  0.00     0.158 C 
ENDROOT
BRANCH   4   9
HETATM    9  C5  UNL     1      20.380   3.073  52.312  1.00  0.00    -0.016 C 
HETATM   10  C6  UNL     1      19.551   3.168  51.089  1.00  0.00     0.037 C 
ENDBRANCH   4   9
BRANCH   5  11
HETATM   11  C8  UNL     1      23.152   4.143  51.645  1.00  0.00     0.273 C 
HETATM   12  O1  UNL     1      23.529   5.079  52.395  1.00  0.00    -0.301 OA
ENDBRANCH   5  11
BRANCH   6  13
HETATM   13  S1  UNL     1      25.444   1.912  52.041  1.00  0.00    -0.033 SA
BRANCH  13  14
HETATM   14  S2  UNL     1      26.431   1.668  53.883  1.00  0.00    -0.051 SA
BRANCH  14  15
HETATM   15  C10 UNL     1      27.692   0.423  53.707  1.00  0.00     0.011 A 
HETATM   16  C11 UNL     1      29.041   0.469  53.985  1.00  0.00     0.019 A 
HETATM   17  C12 UNL     1      29.818  -0.645  53.753  1.00  0.00     0.001 A 
HETATM   18  C13 UNL     1      29.316  -1.826  53.250  1.00  0.00     0.000 A 
HETATM   19  C14 UNL     1      27.967  -1.875  52.972  1.00  0.00     0.001 A 
HETATM   20  C15 UNL     1      27.148  -0.763  53.194  1.00  0.00     0.019 A 
ENDBRANCH  14  15
ENDBRANCH  13  14
ENDBRANCH   6  13
TORSDOF 5
ENDMDL
MODEL 5
REMARK VINA RESULT:      -6.3      3.511      4.758
REMARK  5 active torsions:
REMARK  status: ('A' for Active; 'I' for Inactive)
REMARK    1  A    between atoms: C4_4  and  C5_5 
REMARK    2  A    between atoms: C7_7  and  C8_8 
REMARK    3  A    between atoms: C9_10  and  S1_11 
REMARK    4  A    between atoms: S1_11  and  S2_12 
REMARK    5  A    between atoms: S2_12  and  C10_13 
ROOT
HETATM    1  C1  UNL     1      18.972   0.279  51.348  1.00  0.00     0.099 C 
HETATM    2  C2  UNL     1      20.156   0.532  51.800  1.00  0.00    -0.125 C 
HETATM    3  C3  UNL     1      21.356   0.721  52.262  1.00  0.00     0.088 A 
HETATM    4  C4  UNL     1      22.059  -0.199  52.965  1.00  0.00     0.011 A 
HETATM    5  C7  UNL     1      23.265   0.471  53.227  1.00  0.00     0.049 A 
HETATM    6  C9  UNL     1      23.204   1.755  52.663  1.00  0.00     0.098 A 
HETATM    7  N1  UNL     1      21.997   1.854  52.076  1.00  0.00    -0.338 N 
HETATM    8  C16 UNL     1      21.570   3.034  51.393  1.00  0.00     0.158 C 
ENDROOT
BRANCH   4   9
HETATM    9  C5  UNL     1      21.722  -1.430  53.328  1.00  0.00    -0.016 C 
HETATM   10  C6  UNL     1      21.124  -1.765  54.641  1.00  0.00     0.037 C 
ENDBRANCH   4   9
BRANCH   5  11
HETATM   11  C8  UNL     1      24.390  -0.115  53.980  1.00  0.00     0.273 C 
HETATM   12  O1  UNL     1      25.086  -1.087  53.591  1.00  0.00    -0.301 OA
ENDBRANCH   5  11
BRANCH   6  13
HETATM   13  S1  UNL     1      24.584   2.884  52.815  1.00  0.00    -0.033 SA
BRANCH  13  14
HETATM   14  S2  UNL     1      26.119   2.218  51.538  1.00  0.00    -0.051 SA
BRANCH  14  15
HETATM   15  C10 UNL     1      27.385   1.429  52.511  1.00  0.00     0.011 A 
HETATM   16  C11 UNL     1      27.758   0.105  52.592  1.00  0.00     0.019 A 
HETATM   17  C12 UNL     1      28.781  -0.259  53.439  1.00  0.00     0.001 A 
HETATM   18  C13 UNL     1      29.468   0.640  54.225  1.00  0.00     0.000 A 
HETATM   19  C14 UNL     1      29.098   1.965  54.146  1.00  0.00     0.001 A 
HETATM   20  C15 UNL     1      28.062   2.371  53.298  1.00  0.00     0.019 A 
ENDBRANCH  14  15
ENDBRANCH  13  14
ENDBRANCH   6  13
TORSDOF 5
ENDMDL
MODEL 6
REMARK VINA RESULT:      -6.3      2.090      3.651
REMARK  5 active torsions:
REMARK  status: ('A' for Active; 'I' for Inactive)
REMARK    1  A    between atoms: C4_4  and  C5_5 
REMARK    2  A    between atoms: C7_7  and  C8_8 
REMARK    3  A    between atoms: C9_10  and  S1_11 
REMARK    4  A    between atoms: S1_11  and  S2_12 
REMARK    5  A    between atoms: S2_12  and  C10_13 
ROOT
HETATM    1  C1  UNL     1      22.104  -1.960  54.643  1.00  0.00     0.099 C 
HETATM    2  C2  UNL     1      22.188  -0.831  54.019  1.00  0.00    -0.125 C 
HETATM    3  C3  UNL     1      22.206   0.312  53.400  1.00  0.00     0.088 A 
HETATM    4  C4  UNL     1      21.111   0.927  52.896  1.00  0.00     0.011 A 
HETATM    5  C7  UNL     1      21.645   2.101  52.341  1.00  0.00     0.049 A 
HETATM    6  C9  UNL     1      23.034   2.111  52.550  1.00  0.00     0.098 A 
HETATM    7  N1  UNL     1      23.325   0.977  53.212  1.00  0.00    -0.338 N 
HETATM    8  C16 UNL     1      24.657   0.636  53.600  1.00  0.00     0.158 C 
ENDROOT
BRANCH   4   9
HETATM    9  C5  UNL     1      19.840   0.544  52.907  1.00  0.00    -0.016 C 
HETATM   10  C6  UNL     1      19.190  -0.183  51.792  1.00  0.00     0.037 C 
ENDBRANCH   4   9
BRANCH   5  11
HETATM   11  C8  UNL     1      20.844   3.132  51.656  1.00  0.00     0.273 C 
HETATM   12  O1  UNL     1      20.087   3.955  52.233  1.00  0.00    -0.301 OA
ENDBRANCH   5  11
BRANCH   6  13
HETATM   13  S1  UNL     1      24.034   3.474  51.961  1.00  0.00    -0.033 SA
BRANCH  13  14
HETATM   14  S2  UNL     1      24.212   3.301  49.872  1.00  0.00    -0.051 SA
BRANCH  14  15
HETATM   15  C10 UNL     1      25.554   4.331  49.314  1.00  0.00     0.011 A 
HETATM   16  C11 UNL     1      26.899   4.060  49.191  1.00  0.00     0.019 A 
HETATM   17  C12 UNL     1      27.748   5.043  48.734  1.00  0.00     0.001 A 
HETATM   18  C13 UNL     1      27.324   6.307  48.386  1.00  0.00     0.000 A 
HETATM   19  C14 UNL     1      25.979   6.581  48.507  1.00  0.00     0.001 A 
HETATM   20  C15 UNL     1      25.088   5.606  48.969  1.00  0.00     0.019 A 
ENDBRANCH  14  15
ENDBRANCH  13  14
ENDBRANCH   6  13
TORSDOF 5
ENDMDL
MODEL 7
REMARK VINA RESULT:      -6.3      3.416      5.180
REMARK  5 active torsions:
REMARK  status: ('A' for Active; 'I' for Inactive)
REMARK    1  A    between atoms: C4_4  and  C5_5 
REMARK    2  A    between atoms: C7_7  and  C8_8 
REMARK    3  A    between atoms: C9_10  and  S1_11 
REMARK    4  A    between atoms: S1_11  and  S2_12 
REMARK    5  A    between atoms: S2_12  and  C10_13 
ROOT
HETATM    1  C1  UNL     1      26.562   2.430  51.677  1.00  0.00     0.099 C 
HETATM    2  C2  UNL     1      25.417   1.954  52.040  1.00  0.00    -0.125 C 
HETATM    3  C3  UNL     1      24.298   1.431  52.445  1.00  0.00     0.088 A 
HETATM    4  C4  UNL     1      24.194   0.238  53.076  1.00  0.00     0.011 A 
HETATM    5  C7  UNL     1      22.813   0.128  53.300  1.00  0.00     0.049 A 
HETATM    6  C9  UNL     1      22.176   1.268  52.785  1.00  0.00     0.098 A 
HETATM    7  N1  UNL     1      23.147   2.042  52.267  1.00  0.00    -0.338 N 
HETATM    8  C16 UNL     1      22.876   3.300  51.645  1.00  0.00     0.158 C 
ENDROOT
BRANCH   4   9
HETATM    9  C5  UNL     1      25.139  -0.631  53.412  1.00  0.00    -0.016 C 
HETATM   10  C6  UNL     1      26.063  -0.440  54.554  1.00  0.00     0.037 C 
ENDBRANCH   4   9
BRANCH   5  11
HETATM   11  C8  UNL     1      22.172  -1.019  53.972  1.00  0.00     0.273 C 
HETATM   12  O1  UNL     1      21.879  -1.064  55.194  1.00  0.00    -0.301 OA
ENDBRANCH   5  11
BRANCH   6  13
HETATM   13  S1  UNL     1      20.399   1.452  52.903  1.00  0.00    -0.033 SA
BRANCH  13  14
HETATM   14  S2  UNL     1      19.546   0.711  51.127  1.00  0.00    -0.051 SA
BRANCH  14  15
HETATM   15  C10 UNL     1      20.423   1.389  49.733  1.00  0.00     0.011 A 
HETATM   16  C11 UNL     1      21.550   0.940  49.079  1.00  0.00     0.019 A 
HETATM   17  C12 UNL     1      22.044   1.658  48.013  1.00  0.00     0.001 A 
HETATM   18  C13 UNL     1      21.468   2.822  47.552  1.00  0.00     0.000 A 
HETATM   19  C14 UNL     1      20.340   3.273  48.203  1.00  0.00     0.001 A 
HETATM   20  C15 UNL     1      19.811   2.569  49.291  1.00  0.00     0.019 A 
ENDBRANCH  14  15
ENDBRANCH  13  14
ENDBRANCH   6  13
TORSDOF 5
ENDMDL
MODEL 8
REMARK VINA RESULT:      -6.2      3.515      5.012
REMARK  5 active torsions:
REMARK  status: ('A' for Active; 'I' for Inactive)
REMARK    1  A    between atoms: C4_4  and  C5_5 
REMARK    2  A    between atoms: C7_7  and  C8_8 
REMARK    3  A    between atoms: C9_10  and  S1_11 
REMARK    4  A    between atoms: S1_11  and  S2_12 
REMARK    5  A    between atoms: S2_12  and  C10_13 
ROOT
HETATM    1  C1  UNL     1      21.497  -1.981  54.192  1.00  0.00     0.099 C 
HETATM    2  C2  UNL     1      21.927  -0.954  53.535  1.00  0.00    -0.125 C 
HETATM    3  C3  UNL     1      22.299   0.086  52.850  1.00  0.00     0.088 A 
HETATM    4  C4  UNL     1      21.598   0.614  51.819  1.00  0.00     0.011 A 
HETATM    5  C7  UNL     1      22.399   1.697  51.426  1.00  0.00     0.049 A 
HETATM    6  C9  UNL     1      23.535   1.747  52.250  1.00  0.00     0.098 A 
HETATM    7  N1  UNL     1      23.418   0.723  53.116  1.00  0.00    -0.338 N 
HETATM    8  C16 UNL     1      24.400   0.450  54.118  1.00  0.00     0.158 C 
ENDROOT
BRANCH   4   9
HETATM    9  C5  UNL     1      20.443   0.229  51.292  1.00  0.00    -0.016 C 
HETATM   10  C6  UNL     1      19.122   0.690  51.779  1.00  0.00     0.037 C 
ENDBRANCH   4   9
BRANCH   5  11
HETATM   11  C8  UNL     1      22.068   2.613  50.317  1.00  0.00     0.273 C 
HETATM   12  O1  UNL     1      22.197   2.339  49.096  1.00  0.00    -0.301 OA
ENDBRANCH   5  11
BRANCH   6  13
HETATM   13  S1  UNL     1      24.776   3.015  52.018  1.00  0.00    -0.033 SA
BRANCH  13  14
HETATM   14  S2  UNL     1      26.487   2.113  51.190  1.00  0.00    -0.051 SA
BRANCH  14  15
HETATM   15  C10 UNL     1      27.535   1.533  52.507  1.00  0.00     0.011 A 
HETATM   16  C11 UNL     1      28.327   2.229  53.395  1.00  0.00     0.019 A 
HETATM   17  C12 UNL     1      29.061   1.538  54.333  1.00  0.00     0.001 A 
HETATM   18  C13 UNL     1      29.050   0.164  54.441  1.00  0.00     0.000 A 
HETATM   19  C14 UNL     1      28.259  -0.535  53.555  1.00  0.00     0.001 A 
HETATM   20  C15 UNL     1      27.501   0.134  52.588  1.00  0.00     0.019 A 
ENDBRANCH  14  15
ENDBRANCH  13  14
ENDBRANCH   6  13
TORSDOF 5
ENDMDL
MODEL 9
REMARK VINA RESULT:      -6.2      3.041      4.863
REMARK  5 active torsions:
REMARK  status: ('A' for Active; 'I' for Inactive)
REMARK    1  A    between atoms: C4_4  and  C5_5 
REMARK    2  A    between atoms: C7_7  and  C8_8 
REMARK    3  A    between atoms: C9_10  and  S1_11 
REMARK    4  A    between atoms: S1_11  and  S2_12 
REMARK    5  A    between atoms: S2_12  and  C10_13 
ROOT
HETATM    1  C1  UNL     1      26.341  -1.032  53.162  1.00  0.00     0.099 C 
HETATM    2  C2  UNL     1      25.319  -0.255  53.011  1.00  0.00    -0.125 C 
HETATM    3  C3  UNL     1      24.331   0.568  52.822  1.00  0.00     0.088 A 
HETATM    4  C4  UNL     1      24.469   1.850  52.412  1.00  0.00     0.011 A 
HETATM    5  C7  UNL     1      23.141   2.302  52.361  1.00  0.00     0.049 A 
HETATM    6  C9  UNL     1      22.289   1.255  52.748  1.00  0.00     0.098 A 
HETATM    7  N1  UNL     1      23.082   0.203  53.022  1.00  0.00    -0.338 N 
HETATM    8  C16 UNL     1      22.565  -1.056  53.455  1.00  0.00     0.158 C 
ENDROOT
BRANCH   4   9
HETATM    9  C5  UNL     1      25.567   2.535  52.121  1.00  0.00    -0.016 C 
HETATM   10  C6  UNL     1      26.177   2.579  50.771  1.00  0.00     0.037 C 
ENDBRANCH   4   9
BRANCH   5  11
HETATM   11  C8  UNL     1      22.745   3.666  51.962  1.00  0.00     0.273 C 
HETATM   12  O1  UNL     1      22.707   4.085  50.777  1.00  0.00    -0.301 OA
ENDBRANCH   5  11
BRANCH   6  13
HETATM   13  S1  UNL     1      20.516   1.493  52.798  1.00  0.00    -0.033 SA
BRANCH  13  14
HETATM   14  S2  UNL     1      19.702   0.735  51.013  1.00  0.00    -0.051 SA
BRANCH  14  15
HETATM   15  C10 UNL     1      20.317   1.689  49.640  1.00  0.00     0.011 A 
HETATM   16  C11 UNL     1      19.822   2.831  49.050  1.00  0.00     0.019 A 
HETATM   17  C12 UNL     1      20.489   3.384  47.980  1.00  0.00     0.001 A 
HETATM   18  C13 UNL     1      21.646   2.851  47.453  1.00  0.00     0.000 A 
HETATM   19  C14 UNL     1      22.144   1.709  48.041  1.00  0.00     0.001 A 
HETATM   20  C15 UNL     1      21.492   1.120  49.130  1.00  0.00     0.019 A 
ENDBRANCH  14  15
ENDBRANCH  13  14
ENDBRANCH   6  13
TORSDOF 5
ENDMDL
