MODEL 1
REMARK VINA RESULT:      -7.8      0.000      0.000
REMARK  7 active torsions:
REMARK  status: ('A' for Active; 'I' for Inactive)
REMARK    1  A    between atoms: C2_2  and  N2_15 
REMARK    2  A    between atoms: C3_3  and  C4_4 
REMARK    3  A    between atoms: C4_4  and  N1_5 
REMARK       I    between atoms: N1_5  and  C5_6 
REMARK    4  A    between atoms: C5_6  and  C6_8 
REMARK    5  A    between atoms: C6_8  and  C7_9 
REMARK    6  A    between atoms: N2_15  and  C13_16 
REMARK    7  A    between atoms: C13_16  and  N3_17 
ROOT
HETATM    1  C1  UNL     1      26.665   5.068  48.980  1.00  0.00     0.067 C 
HETATM    2  C2  UNL     1      25.604   4.736  49.981  1.00  0.00    -0.000 C 
HETATM    3  C3  UNL     1      24.346   5.189  49.879  1.00  0.00     0.017 C 
ENDROOT
BRANCH   2   4
HETATM    4  N2  UNL     1      25.981   3.903  51.072  1.00  0.00    -0.376 N 
HETATM    5  H15 UNL     1      25.547   4.196  51.979  1.00  0.00     0.161 HD
BRANCH   4   6
HETATM    6  C13 UNL     1      26.883   2.762  50.923  1.00  0.00     0.270 C 
BRANCH   6   7
HETATM    7  N3  UNL     1      26.385   1.661  51.662  1.00  0.00    -0.278 NA
HETATM    8  C14 UNL     1      26.956   1.387  52.779  1.00  0.00     0.019 C 
HETATM    9  C15 UNL     1      28.115   2.082  53.445  1.00  0.00     0.101 C 
HETATM   10  C18 UNL     1      26.423   0.227  53.545  1.00  0.00     0.049 C 
HETATM   11  C16 UNL     1      29.107   1.056  53.926  1.00  0.00     0.089 C 
HETATM   12  N4  UNL     1      28.543   0.132  54.640  1.00  0.00    -0.305 NA
HETATM   13  C17 UNL     1      27.124   0.192  54.874  1.00  0.00     0.158 C 
HETATM   14  C19 UNL     1      26.736  -1.046  52.790  1.00  0.00     0.018 C 
ENDBRANCH   6   7
ENDBRANCH   4   6
ENDBRANCH   2   4
BRANCH   3  15
HETATM   15  C4  UNL     1      23.126   5.037  50.684  1.00  0.00     0.151 C 
BRANCH  15  16
HETATM   16  N1  UNL     1      22.602   3.697  50.420  1.00  0.00    -0.357 N 
HETATM   17  C5  UNL     1      22.698   2.646  51.383  1.00  0.00     0.222 C 
HETATM   18  O1  UNL     1      23.276   2.999  52.465  1.00  0.00    -0.273 OA
HETATM   19  H7  UNL     1      22.126   3.436  49.507  1.00  0.00     0.162 HD
BRANCH  17  20
HETATM   20  C6  UNL     1      22.151   1.285  51.076  1.00  0.00     0.141 C 
BRANCH  20  21
HETATM   21  C7  UNL     1      21.921   0.598  52.375  1.00  0.00    -0.050 A 
HETATM   22  C8  UNL     1      20.727   0.732  53.049  1.00  0.00     0.007 A 
HETATM   23  C9  UNL     1      20.571   0.070  54.249  1.00  0.00     0.001 A 
HETATM   24  C10 UNL     1      21.604  -0.719  54.765  1.00  0.00     0.000 A 
HETATM   25  C11 UNL     1      22.809  -0.847  54.067  1.00  0.00     0.001 A 
HETATM   26  C12 UNL     1      22.971  -0.183  52.862  1.00  0.00     0.007 A 
ENDBRANCH  20  21
ENDBRANCH  17  20
ENDBRANCH  15  16
ENDBRANCH   3  15
TORSDOF 7
ENDMDL
MODEL 2
REMARK VINA RESULT:      -7.1      1.799      6.934
REMARK  7 active torsions:
REMARK  status: ('A' for Active; 'I' for Inactive)
REMARK    1  A    between atoms: C2_2  and  N2_15 
REMARK    2  A    between atoms: C3_3  and  C4_4 
REMARK    3  A    between atoms: C4_4  and  N1_5 
REMARK       I    between atoms: N1_5  and  C5_6 
REMARK    4  A    between atoms: C5_6  and  C6_8 
REMARK    5  A    between atoms: C6_8  and  C7_9 
REMARK    6  A    between atoms: N2_15  and  C13_16 
REMARK    7  A    between atoms: C13_16  and  N3_17 
ROOT
HETATM    1  C1  UNL     1      26.804  -2.041  52.572  1.00  0.00     0.067 C 
HETATM    2  C2  UNL     1      26.571  -0.606  52.924  1.00  0.00    -0.000 C 
HETATM    3  C3  UNL     1      27.125   0.407  52.242  1.00  0.00     0.017 C 
ENDROOT
BRANCH   2   4
HETATM    4  N2  UNL     1      25.719  -0.342  54.034  1.00  0.00    -0.376 N 
HETATM    5  H15 UNL     1      26.232   0.056  54.857  1.00  0.00     0.161 HD
BRANCH   4   6
HETATM    6  C13 UNL     1      24.282  -0.608  54.011  1.00  0.00     0.270 C 
BRANCH   6   7
HETATM    7  N3  UNL     1      23.647   0.279  53.108  1.00  0.00    -0.278 NA
HETATM    8  C14 UNL     1      22.386   0.474  53.252  1.00  0.00     0.019 C 
HETATM    9  C15 UNL     1      21.448  -0.117  54.272  1.00  0.00     0.101 C 
HETATM   10  C18 UNL     1      21.732   1.408  52.296  1.00  0.00     0.049 C 
HETATM   11  C16 UNL     1      20.196  -0.595  53.584  1.00  0.00     0.089 C 
HETATM   12  N4  UNL     1      19.674   0.322  52.832  1.00  0.00    -0.305 NA
HETATM   13  C17 UNL     1      20.313   1.610  52.747  1.00  0.00     0.158 C 
HETATM   14  C19 UNL     1      21.727   0.779  50.920  1.00  0.00     0.018 C 
ENDBRANCH   6   7
ENDBRANCH   4   6
ENDBRANCH   2   4
BRANCH   3  15
HETATM   15  C4  UNL     1      27.081   1.872  52.352  1.00  0.00     0.151 C 
BRANCH  15  16
HETATM   16  N1  UNL     1      26.651   2.387  51.052  1.00  0.00    -0.357 N 
HETATM   17  C5  UNL     1      25.435   3.119  50.895  1.00  0.00     0.222 C 
HETATM   18  O1  UNL     1      24.787   3.267  51.985  1.00  0.00    -0.273 OA
HETATM   19  H7  UNL     1      27.215   2.245  50.163  1.00  0.00     0.162 HD
BRANCH  17  20
HETATM   20  C6  UNL     1      25.026   3.630  49.547  1.00  0.00     0.141 C 
BRANCH  20  21
HETATM   21  C7  UNL     1      26.004   4.680  49.156  1.00  0.00    -0.050 A 
HETATM   22  C8  UNL     1      27.308   4.359  48.851  1.00  0.00     0.007 A 
HETATM   23  C9  UNL     1      28.170   5.375  48.494  1.00  0.00     0.001 A 
HETATM   24  C10 UNL     1      27.725   6.700  48.445  1.00  0.00     0.000 A 
HETATM   25  C11 UNL     1      26.398   7.009  48.757  1.00  0.00     0.001 A 
HETATM   26  C12 UNL     1      25.529   5.992  49.116  1.00  0.00     0.007 A 
ENDBRANCH  20  21
ENDBRANCH  17  20
ENDBRANCH  15  16
ENDBRANCH   3  15
TORSDOF 7
ENDMDL
MODEL 3
REMARK VINA RESULT:      -7.1      1.166      1.763
REMARK  7 active torsions:
REMARK  status: ('A' for Active; 'I' for Inactive)
REMARK    1  A    between atoms: C2_2  and  N2_15 
REMARK    2  A    between atoms: C3_3  and  C4_4 
REMARK    3  A    between atoms: C4_4  and  N1_5 
REMARK       I    between atoms: N1_5  and  C5_6 
REMARK    4  A    between atoms: C5_6  and  C6_8 
REMARK    5  A    between atoms: C6_8  and  C7_9 
REMARK    6  A    between atoms: N2_15  and  C13_16 
REMARK    7  A    between atoms: C13_16  and  N3_17 
ROOT
HETATM    1  C1  UNL     1      27.174   4.872  49.032  1.00  0.00     0.067 C 
HETATM    2  C2  UNL     1      26.059   3.944  49.395  1.00  0.00    -0.000 C 
HETATM    3  C3  UNL     1      24.779   4.193  49.086  1.00  0.00     0.017 C 
ENDROOT
BRANCH   2   4
HETATM    4  N2  UNL     1      26.410   2.755  50.098  1.00  0.00    -0.376 N 
HETATM    5  H15 UNL     1      26.739   1.989  49.464  1.00  0.00     0.161 HD
BRANCH   4   6
HETATM    6  C13 UNL     1      26.313   2.636  51.551  1.00  0.00     0.270 C 
BRANCH   6   7
HETATM    7  N3  UNL     1      27.579   2.296  52.088  1.00  0.00    -0.278 NA
HETATM    8  C14 UNL     1      27.642   1.277  52.867  1.00  0.00     0.019 C 
HETATM    9  C15 UNL     1      26.535   0.357  53.311  1.00  0.00     0.101 C 
HETATM   10  C18 UNL     1      28.978   0.933  53.424  1.00  0.00     0.049 C 
HETATM   11  C16 UNL     1      26.629   0.139  54.798  1.00  0.00     0.089 C 
HETATM   12  N4  UNL     1      27.819  -0.225  55.162  1.00  0.00    -0.305 NA
HETATM   13  C17 UNL     1      28.847  -0.369  54.163  1.00  0.00     0.158 C 
HETATM   14  C19 UNL     1      29.398   2.012  54.397  1.00  0.00     0.018 C 
ENDBRANCH   6   7
ENDBRANCH   4   6
ENDBRANCH   2   4
BRANCH   3  15
HETATM   15  C4  UNL     1      23.507   3.489  49.306  1.00  0.00     0.151 C 
BRANCH  15  16
HETATM   16  N1  UNL     1      23.277   3.461  50.750  1.00  0.00    -0.357 N 
HETATM   17  C5  UNL     1      22.965   2.250  51.440  1.00  0.00     0.222 C 
HETATM   18  O1  UNL     1      22.912   1.228  50.677  1.00  0.00    -0.273 OA
HETATM   19  H7  UNL     1      23.328   4.331  51.357  1.00  0.00     0.162 HD
BRANCH  17  20
HETATM   20  C6  UNL     1      22.734   2.260  52.921  1.00  0.00     0.141 C 
BRANCH  20  21
HETATM   21  C7  UNL     1      22.034   0.995  53.269  1.00  0.00    -0.050 A 
HETATM   22  C8  UNL     1      20.675   0.861  53.090  1.00  0.00     0.007 A 
HETATM   23  C9  UNL     1      20.081  -0.336  53.430  1.00  0.00     0.001 A 
HETATM   24  C10 UNL     1      20.846  -1.389  53.944  1.00  0.00     0.000 A 
HETATM   25  C11 UNL     1      22.224  -1.238  54.118  1.00  0.00     0.001 A 
HETATM   26  C12 UNL     1      22.826  -0.036  53.779  1.00  0.00     0.007 A 
ENDBRANCH  20  21
ENDBRANCH  17  20
ENDBRANCH  15  16
ENDBRANCH   3  15
TORSDOF 7
ENDMDL
MODEL 4
REMARK VINA RESULT:      -7.0      4.328      6.102
REMARK  7 active torsions:
REMARK  status: ('A' for Active; 'I' for Inactive)
REMARK    1  A    between atoms: C2_2  and  N2_15 
REMARK    2  A    between atoms: C3_3  and  C4_4 
REMARK    3  A    between atoms: C4_4  and  N1_5 
REMARK       I    between atoms: N1_5  and  C5_6 
REMARK    4  A    between atoms: C5_6  and  C6_8 
REMARK    5  A    between atoms: C6_8  and  C7_9 
REMARK    6  A    between atoms: N2_15  and  C13_16 
REMARK    7  A    between atoms: C13_16  and  N3_17 
ROOT
HETATM    1  C1  UNL     1      26.871   7.659  48.187  1.00  0.00     0.067 C 
HETATM    2  C2  UNL     1      27.346   6.331  48.684  1.00  0.00    -0.000 C 
HETATM    3  C3  UNL     1      26.513   5.311  48.937  1.00  0.00     0.017 C 
ENDROOT
BRANCH   2   4
HETATM    4  N2  UNL     1      28.748   6.179  48.885  1.00  0.00    -0.376 N 
HETATM    5  H15 UNL     1      29.009   6.092  49.895  1.00  0.00     0.161 HD
BRANCH   4   6
HETATM    6  C13 UNL     1      29.708   6.151  47.782  1.00  0.00     0.270 C 
BRANCH   6   7
HETATM    7  N3  UNL     1      30.481   4.967  47.853  1.00  0.00    -0.278 NA
HETATM    8  C14 UNL     1      31.741   5.064  47.625  1.00  0.00     0.019 C 
HETATM    9  C15 UNL     1      32.549   6.288  47.283  1.00  0.00     0.101 C 
HETATM   10  C18 UNL     1      32.541   3.811  47.702  1.00  0.00     0.049 C 
HETATM   11  C16 UNL     1      33.464   5.980  46.127  1.00  0.00     0.089 C 
HETATM   12  N4  UNL     1      34.162   4.908  46.333  1.00  0.00    -0.305 NA
HETATM   13  C17 UNL     1      33.991   4.182  47.565  1.00  0.00     0.158 C 
HETATM   14  C19 UNL     1      32.153   2.909  46.551  1.00  0.00     0.018 C 
ENDBRANCH   6   7
ENDBRANCH   4   6
ENDBRANCH   2   4
BRANCH   3  15
HETATM   15  C4  UNL     1      26.684   3.933  49.419  1.00  0.00     0.151 C 
BRANCH  15  16
HETATM   16  N1  UNL     1      26.122   3.878  50.768  1.00  0.00    -0.357 N 
HETATM   17  C5  UNL     1      24.848   3.287  51.031  1.00  0.00     0.222 C 
HETATM   18  O1  UNL     1      24.275   2.828  49.987  1.00  0.00    -0.273 OA
HETATM   19  H7  UNL     1      26.626   4.271  51.617  1.00  0.00     0.162 HD
BRANCH  17  20
HETATM   20  C6  UNL     1      24.304   3.250  52.428  1.00  0.00     0.141 C 
BRANCH  20  21
HETATM   21  C7  UNL     1      24.731   1.961  53.035  1.00  0.00    -0.050 A 
HETATM   22  C8  UNL     1      24.019   0.802  52.818  1.00  0.00     0.007 A 
HETATM   23  C9  UNL     1      24.463  -0.363  53.407  1.00  0.00     0.001 A 
HETATM   24  C10 UNL     1      25.612  -0.364  54.205  1.00  0.00     0.000 A 
HETATM   25  C11 UNL     1      26.324   0.821  54.414  1.00  0.00     0.001 A 
HETATM   26  C12 UNL     1      25.881   1.995  53.825  1.00  0.00     0.007 A 
ENDBRANCH  20  21
ENDBRANCH  17  20
ENDBRANCH  15  16
ENDBRANCH   3  15
TORSDOF 7
ENDMDL
MODEL 5
REMARK VINA RESULT:      -7.0      4.289      6.948
REMARK  7 active torsions:
REMARK  status: ('A' for Active; 'I' for Inactive)
REMARK    1  A    between atoms: C2_2  and  N2_15 
REMARK    2  A    between atoms: C3_3  and  C4_4 
REMARK    3  A    between atoms: C4_4  and  N1_5 
REMARK       I    between atoms: N1_5  and  C5_6 
REMARK    4  A    between atoms: C5_6  and  C6_8 
REMARK    5  A    between atoms: C6_8  and  C7_9 
REMARK    6  A    between atoms: N2_15  and  C13_16 
REMARK    7  A    between atoms: C13_16  and  N3_17 
ROOT
HETATM    1  C1  UNL     1      27.010   7.037  48.666  1.00  0.00     0.067 C 
HETATM    2  C2  UNL     1      27.279   5.571  48.789  1.00  0.00    -0.000 C 
HETATM    3  C3  UNL     1      26.414   4.720  49.360  1.00  0.00     0.017 C 
ENDROOT
BRANCH   2   4
HETATM    4  N2  UNL     1      28.515   5.094  48.266  1.00  0.00    -0.376 N 
HETATM    5  H15 UNL     1      28.451   4.116  47.896  1.00  0.00     0.161 HD
BRANCH   4   6
HETATM    6  C13 UNL     1      29.735   5.898  48.257  1.00  0.00     0.270 C 
BRANCH   6   7
HETATM    7  N3  UNL     1      30.865   5.054  48.384  1.00  0.00    -0.278 NA
HETATM    8  C14 UNL     1      31.906   5.344  47.692  1.00  0.00     0.019 C 
HETATM    9  C15 UNL     1      32.116   6.486  46.732  1.00  0.00     0.101 C 
HETATM   10  C18 UNL     1      33.086   4.447  47.834  1.00  0.00     0.049 C 
HETATM   11  C16 UNL     1      32.750   5.970  45.467  1.00  0.00     0.089 C 
HETATM   12  N4  UNL     1      33.807   5.260  45.708  1.00  0.00    -0.305 NA
HETATM   13  C17 UNL     1      34.226   5.061  47.071  1.00  0.00     0.158 C 
HETATM   14  C19 UNL     1      32.756   3.101  47.229  1.00  0.00     0.018 C 
ENDBRANCH   6   7
ENDBRANCH   4   6
ENDBRANCH   2   4
BRANCH   3  15
HETATM   15  C4  UNL     1      26.405   3.273  49.617  1.00  0.00     0.151 C 
BRANCH  15  16
HETATM   16  N1  UNL     1      26.844   3.080  50.999  1.00  0.00    -0.357 N 
HETATM   17  C5  UNL     1      26.101   2.284  51.923  1.00  0.00     0.222 C 
HETATM   18  O1  UNL     1      25.042   1.777  51.420  1.00  0.00    -0.273 OA
HETATM   19  H7  UNL     1      27.732   3.517  51.386  1.00  0.00     0.162 HD
BRANCH  17  20
HETATM   20  C6  UNL     1      26.582   2.110  53.332  1.00  0.00     0.141 C 
BRANCH  20  21
HETATM   21  C7  UNL     1      27.520   0.957  53.340  1.00  0.00    -0.050 A 
HETATM   22  C8  UNL     1      27.078  -0.322  53.081  1.00  0.00     0.007 A 
HETATM   23  C9  UNL     1      27.995  -1.352  53.101  1.00  0.00     0.001 A 
HETATM   24  C10 UNL     1      29.343  -1.099  53.379  1.00  0.00     0.000 A 
HETATM   25  C11 UNL     1      29.775   0.205  53.639  1.00  0.00     0.001 A 
HETATM   26  C12 UNL     1      28.858   1.243  53.620  1.00  0.00     0.007 A 
ENDBRANCH  20  21
ENDBRANCH  17  20
ENDBRANCH  15  16
ENDBRANCH   3  15
TORSDOF 7
ENDMDL
MODEL 6
REMARK VINA RESULT:      -6.9      4.251      5.895
REMARK  7 active torsions:
REMARK  status: ('A' for Active; 'I' for Inactive)
REMARK    1  A    between atoms: C2_2  and  N2_15 
REMARK    2  A    between atoms: C3_3  and  C4_4 
REMARK    3  A    between atoms: C4_4  and  N1_5 
REMARK       I    between atoms: N1_5  and  C5_6 
REMARK    4  A    between atoms: C5_6  and  C6_8 
REMARK    5  A    between atoms: C6_8  and  C7_9 
REMARK    6  A    between atoms: N2_15  and  C13_16 
REMARK    7  A    between atoms: C13_16  and  N3_17 
ROOT
HETATM    1  C1  UNL     1      26.711   7.527  48.309  1.00  0.00     0.067 C 
HETATM    2  C2  UNL     1      27.182   6.191  48.789  1.00  0.00    -0.000 C 
HETATM    3  C3  UNL     1      26.343   5.179  49.055  1.00  0.00     0.017 C 
ENDROOT
BRANCH   2   4
HETATM    4  N2  UNL     1      28.586   6.022  48.957  1.00  0.00    -0.376 N 
HETATM    5  H15 UNL     1      28.860   5.854  49.954  1.00  0.00     0.161 HD
BRANCH   4   6
HETATM    6  C13 UNL     1      29.531   6.082  47.843  1.00  0.00     0.270 C 
BRANCH   6   7
HETATM    7  N3  UNL     1      30.363   4.936  47.861  1.00  0.00    -0.278 NA
HETATM    8  C14 UNL     1      31.630   5.119  47.760  1.00  0.00     0.019 C 
HETATM    9  C15 UNL     1      32.391   6.411  47.620  1.00  0.00     0.101 C 
HETATM   10  C18 UNL     1      32.493   3.906  47.780  1.00  0.00     0.049 C 
HETATM   11  C16 UNL     1      33.418   6.274  46.526  1.00  0.00     0.089 C 
HETATM   12  N4  UNL     1      34.157   5.221  46.683  1.00  0.00    -0.305 NA
HETATM   13  C17 UNL     1      33.925   4.360  47.813  1.00  0.00     0.158 C 
HETATM   14  C19 UNL     1      32.256   3.114  46.513  1.00  0.00     0.018 C 
ENDBRANCH   6   7
ENDBRANCH   4   6
ENDBRANCH   2   4
BRANCH   3  15
HETATM   15  C4  UNL     1      26.508   3.797  49.526  1.00  0.00     0.151 C 
BRANCH  15  16
HETATM   16  N1  UNL     1      25.845   3.705  50.826  1.00  0.00    -0.357 N 
HETATM   17  C5  UNL     1      25.976   2.553  51.660  1.00  0.00     0.222 C 
HETATM   18  O1  UNL     1      26.715   1.642  51.156  1.00  0.00    -0.273 OA
HETATM   19  H7  UNL     1      25.236   4.483  51.217  1.00  0.00     0.162 HD
BRANCH  17  20
HETATM   20  C6  UNL     1      25.281   2.494  52.987  1.00  0.00     0.141 C 
BRANCH  20  21
HETATM   21  C7  UNL     1      24.180   1.502  52.866  1.00  0.00    -0.050 A 
HETATM   22  C8  UNL     1      23.020   1.806  52.186  1.00  0.00     0.007 A 
HETATM   23  C9  UNL     1      22.034   0.845  52.106  1.00  0.00     0.001 A 
HETATM   24  C10 UNL     1      22.211  -0.407  52.703  1.00  0.00     0.000 A 
HETATM   25  C11 UNL     1      23.394  -0.700  53.388  1.00  0.00     0.001 A 
HETATM   26  C12 UNL     1      24.388   0.262  53.472  1.00  0.00     0.007 A 
ENDBRANCH  20  21
ENDBRANCH  17  20
ENDBRANCH  15  16
ENDBRANCH   3  15
TORSDOF 7
ENDMDL
MODEL 7
REMARK VINA RESULT:      -6.9      2.054      6.480
REMARK  7 active torsions:
REMARK  status: ('A' for Active; 'I' for Inactive)
REMARK    1  A    between atoms: C2_2  and  N2_15 
REMARK    2  A    between atoms: C3_3  and  C4_4 
REMARK    3  A    between atoms: C4_4  and  N1_5 
REMARK       I    between atoms: N1_5  and  C5_6 
REMARK    4  A    between atoms: C5_6  and  C6_8 
REMARK    5  A    between atoms: C6_8  and  C7_9 
REMARK    6  A    between atoms: N2_15  and  C13_16 
REMARK    7  A    between atoms: C13_16  and  N3_17 
ROOT
HETATM    1  C1  UNL     1      19.244  -0.345  52.186  1.00  0.00     0.067 C 
HETATM    2  C2  UNL     1      20.414   0.175  52.959  1.00  0.00    -0.000 C 
HETATM    3  C3  UNL     1      21.399  -0.619  53.403  1.00  0.00     0.017 C 
ENDROOT
BRANCH   2   4
HETATM    4  N2  UNL     1      20.451   1.576  53.212  1.00  0.00    -0.376 N 
HETATM    5  H15 UNL     1      20.732   1.805  54.196  1.00  0.00     0.161 HD
BRANCH   4   6
HETATM    6  C13 UNL     1      20.128   2.574  52.196  1.00  0.00     0.270 C 
BRANCH   6   7
HETATM    7  N3  UNL     1      21.016   3.672  52.306  1.00  0.00    -0.278 NA
HETATM    8  C14 UNL     1      22.088   3.644  51.599  1.00  0.00     0.019 C 
HETATM    9  C15 UNL     1      22.560   2.584  50.638  1.00  0.00     0.101 C 
HETATM   10  C18 UNL     1      23.012   4.804  51.725  1.00  0.00     0.049 C 
HETATM   11  C16 UNL     1      24.014   2.285  50.894  1.00  0.00     0.089 C 
HETATM   12  N4  UNL     1      24.735   3.362  50.914  1.00  0.00    -0.305 NA
HETATM   13  C17 UNL     1      24.101   4.638  50.703  1.00  0.00     0.158 C 
HETATM   14  C19 UNL     1      23.628   4.793  53.107  1.00  0.00     0.018 C 
ENDBRANCH   6   7
ENDBRANCH   4   6
ENDBRANCH   2   4
BRANCH   3  15
HETATM   15  C4  UNL     1      22.637  -0.401  54.165  1.00  0.00     0.151 C 
BRANCH  15  16
HETATM   16  N1  UNL     1      23.740  -0.419  53.206  1.00  0.00    -0.357 N 
HETATM   17  C5  UNL     1      25.071  -0.767  53.592  1.00  0.00     0.222 C 
HETATM   18  O1  UNL     1      25.182  -1.051  54.832  1.00  0.00    -0.273 OA
HETATM   19  H7  UNL     1      23.613  -0.176  52.179  1.00  0.00     0.162 HD
BRANCH  17  20
HETATM   20  C6  UNL     1      26.177  -0.773  52.580  1.00  0.00     0.141 C 
BRANCH  20  21
HETATM   21  C7  UNL     1      27.228   0.159  53.068  1.00  0.00    -0.050 A 
HETATM   22  C8  UNL     1      27.030   1.522  53.062  1.00  0.00     0.007 A 
HETATM   23  C9  UNL     1      28.041   2.337  53.527  1.00  0.00     0.001 A 
HETATM   24  C10 UNL     1      29.239   1.786  53.995  1.00  0.00     0.000 A 
HETATM   25  C11 UNL     1      29.424   0.401  53.996  1.00  0.00     0.001 A 
HETATM   26  C12 UNL     1      28.412  -0.422  53.528  1.00  0.00     0.007 A 
ENDBRANCH  20  21
ENDBRANCH  17  20
ENDBRANCH  15  16
ENDBRANCH   3  15
TORSDOF 7
ENDMDL
MODEL 8
REMARK VINA RESULT:      -6.9      1.979      5.520
REMARK  7 active torsions:
REMARK  status: ('A' for Active; 'I' for Inactive)
REMARK    1  A    between atoms: C2_2  and  N2_15 
REMARK    2  A    between atoms: C3_3  and  C4_4 
REMARK    3  A    between atoms: C4_4  and  N1_5 
REMARK       I    between atoms: N1_5  and  C5_6 
REMARK    4  A    between atoms: C5_6  and  C6_8 
REMARK    5  A    between atoms: C6_8  and  C7_9 
REMARK    6  A    between atoms: N2_15  and  C13_16 
REMARK    7  A    between atoms: C13_16  and  N3_17 
ROOT
HETATM    1  C1  UNL     1      22.504   2.488  48.484  1.00  0.00     0.067 C 
HETATM    2  C2  UNL     1      23.194   3.347  49.496  1.00  0.00    -0.000 C 
HETATM    3  C3  UNL     1      24.502   3.237  49.767  1.00  0.00     0.017 C 
ENDROOT
BRANCH   2   4
HETATM    4  N2  UNL     1      22.398   4.311  50.178  1.00  0.00    -0.376 N 
HETATM    5  H15 UNL     1      22.114   5.112  49.566  1.00  0.00     0.161 HD
BRANCH   4   6
HETATM    6  C13 UNL     1      22.026   4.179  51.585  1.00  0.00     0.270 C 
BRANCH   6   7
HETATM    7  N3  UNL     1      21.002   3.210  51.719  1.00  0.00    -0.278 NA
HETATM    8  C14 UNL     1      21.290   2.120  52.333  1.00  0.00     0.019 C 
HETATM    9  C15 UNL     1      22.597   1.701  52.954  1.00  0.00     0.101 C 
HETATM   10  C18 UNL     1      20.205   1.110  52.466  1.00  0.00     0.049 C 
HETATM   11  C16 UNL     1      22.915   0.285  52.549  1.00  0.00     0.089 C 
HETATM   12  N4  UNL     1      21.924  -0.519  52.773  1.00  0.00    -0.305 NA
HETATM   13  C17 UNL     1      20.711   0.003  53.348  1.00  0.00     0.158 C 
HETATM   14  C19 UNL     1      19.888   0.545  51.099  1.00  0.00     0.018 C 
ENDBRANCH   6   7
ENDBRANCH   4   6
ENDBRANCH   2   4
BRANCH   3  15
HETATM   15  C4  UNL     1      25.428   3.920  50.682  1.00  0.00     0.151 C 
BRANCH  15  16
HETATM   16  N1  UNL     1      25.417   3.174  51.940  1.00  0.00    -0.357 N 
HETATM   17  C5  UNL     1      26.550   2.427  52.384  1.00  0.00     0.222 C 
HETATM   18  O1  UNL     1      27.542   2.483  51.583  1.00  0.00    -0.273 OA
HETATM   19  H7  UNL     1      24.573   3.148  52.585  1.00  0.00     0.162 HD
BRANCH  17  20
HETATM   20  C6  UNL     1      26.501   1.674  53.680  1.00  0.00     0.141 C 
BRANCH  20  21
HETATM   21  C7  UNL     1      27.264   0.413  53.488  1.00  0.00    -0.050 A 
HETATM   22  C8  UNL     1      28.574   0.303  53.902  1.00  0.00     0.007 A 
HETATM   23  C9  UNL     1      29.231  -0.892  53.698  1.00  0.00     0.001 A 
HETATM   24  C10 UNL     1      28.578  -1.967  53.084  1.00  0.00     0.000 A 
HETATM   25  C11 UNL     1      27.249  -1.840  52.671  1.00  0.00     0.001 A 
HETATM   26  C12 UNL     1      26.585  -0.640  52.873  1.00  0.00     0.007 A 
ENDBRANCH  20  21
ENDBRANCH  17  20
ENDBRANCH  15  16
ENDBRANCH   3  15
TORSDOF 7
ENDMDL
MODEL 9
REMARK VINA RESULT:      -6.7      3.594      7.612
REMARK  7 active torsions:
REMARK  status: ('A' for Active; 'I' for Inactive)
REMARK    1  A    between atoms: C2_2  and  N2_15 
REMARK    2  A    between atoms: C3_3  and  C4_4 
REMARK    3  A    between atoms: C4_4  and  N1_5 
REMARK       I    between atoms: N1_5  and  C5_6 
REMARK    4  A    between atoms: C5_6  and  C6_8 
REMARK    5  A    between atoms: C6_8  and  C7_9 
REMARK    6  A    between atoms: N2_15  and  C13_16 
REMARK    7  A    between atoms: C13_16  and  N3_17 
ROOT
HETATM    1  C1  UNL     1      24.274   3.380  49.399  1.00  0.00     0.067 C 
HETATM    2  C2  UNL     1      25.393   4.321  49.714  1.00  0.00    -0.000 C 
HETATM    3  C3  UNL     1      25.415   5.590  49.283  1.00  0.00     0.017 C 
ENDROOT
BRANCH   2   4
HETATM    4  N2  UNL     1      26.461   3.814  50.508  1.00  0.00    -0.376 N 
HETATM    5  H15 UNL     1      27.353   4.348  50.381  1.00  0.00     0.161 HD
BRANCH   4   6
HETATM    6  C13 UNL     1      26.310   2.665  51.399  1.00  0.00     0.270 C 
BRANCH   6   7
HETATM    7  N3  UNL     1      27.554   2.367  52.007  1.00  0.00    -0.278 NA
HETATM    8  C14 UNL     1      27.620   1.317  52.744  1.00  0.00     0.019 C 
HETATM    9  C15 UNL     1      26.538   0.321  53.071  1.00  0.00     0.101 C 
HETATM   10  C18 UNL     1      28.932   1.016  53.378  1.00  0.00     0.049 C 
HETATM   11  C16 UNL     1      26.544   0.040  54.551  1.00  0.00     0.089 C 
HETATM   12  N4  UNL     1      27.724  -0.279  54.980  1.00  0.00    -0.305 NA
HETATM   13  C17 UNL     1      28.823  -0.323  54.050  1.00  0.00     0.158 C 
HETATM   14  C19 UNL     1      29.226   2.070  54.424  1.00  0.00     0.018 C 
ENDBRANCH   6   7
ENDBRANCH   4   6
ENDBRANCH   2   4
BRANCH   3  15
HETATM   15  C4  UNL     1      26.351   6.714  49.427  1.00  0.00     0.151 C 
BRANCH  15  16
HETATM   16  N1  UNL     1      27.333   6.595  48.350  1.00  0.00    -0.357 N 
HETATM   17  C5  UNL     1      28.387   7.544  48.181  1.00  0.00     0.222 C 
HETATM   18  O1  UNL     1      28.374   8.478  49.051  1.00  0.00    -0.273 OA
HETATM   19  H7  UNL     1      27.316   5.804  47.641  1.00  0.00     0.162 HD
BRANCH  17  20
HETATM   20  C6  UNL     1      29.375   7.389  47.065  1.00  0.00     0.141 C 
BRANCH  20  21
HETATM   21  C7  UNL     1      30.622   6.830  47.651  1.00  0.00    -0.050 A 
HETATM   22  C8  UNL     1      30.835   5.470  47.706  1.00  0.00     0.007 A 
HETATM   23  C9  UNL     1      32.011   5.010  48.260  1.00  0.00     0.001 A 
HETATM   24  C10 UNL     1      32.964   5.907  48.753  1.00  0.00     0.000 A 
HETATM   25  C11 UNL     1      32.733   7.285  48.688  1.00  0.00     0.001 A 
HETATM   26  C12 UNL     1      31.553   7.752  48.133  1.00  0.00     0.007 A 
ENDBRANCH  20  21
ENDBRANCH  17  20
ENDBRANCH  15  16
ENDBRANCH   3  15
TORSDOF 7
ENDMDL
