MODEL 1
REMARK VINA RESULT:      -9.8      0.000      0.000
REMARK  1 active torsions:
REMARK  status: ('A' for Active; 'I' for Inactive)
REMARK    1  A    between atoms: C18_21  and  O2_22 
ROOT
HETATM    1  O1  UNL     1      23.358   0.662  52.357  1.00  0.00    -0.272 OA
HETATM    2  C1  UNL     1      24.022  -0.114  53.093  1.00  0.00     0.231 C 
HETATM    3  N1  UNL     1      22.739  -0.446  53.575  1.00  0.00    -0.327 N 
HETATM    4  C2  UNL     1      21.731   0.325  52.876  1.00  0.00     0.034 A 
HETATM    5  C3  UNL     1      21.287   1.524  53.391  1.00  0.00     0.030 A 
HETATM    6  C4  UNL     1      20.339   2.252  52.709  1.00  0.00     0.011 A 
HETATM    7  C5  UNL     1      19.840   1.781  51.518  1.00  0.00    -0.030 A 
HETATM    8  C6  UNL     1      20.307   0.564  51.021  1.00  0.00     0.011 A 
HETATM    9  C7  UNL     1      21.255  -0.185  51.684  1.00  0.00     0.030 A 
HETATM   10  C8  UNL     1      18.829   2.482  50.699  1.00  0.00     0.308 C 
HETATM   11  N2  UNL     1      18.902   3.907  50.754  1.00  0.00     0.091 N 
HETATM   12  C9  UNL     1      20.157   4.468  50.385  1.00  0.00     0.309 C 
HETATM   13  C10 UNL     1      20.633   4.181  49.029  1.00  0.00    -0.024 A 
HETATM   14  C11 UNL     1      19.925   3.800  47.912  1.00  0.00     0.009 A 
HETATM   15  C12 UNL     1      20.462   3.538  46.671  1.00  0.00     0.001 A 
HETATM   16  C13 UNL     1      21.826   3.662  46.511  1.00  0.00     0.001 A 
HETATM   17  C14 UNL     1      22.574   4.042  47.606  1.00  0.00     0.008 A 
HETATM   18  C15 UNL     1      22.023   4.309  48.867  1.00  0.00    -0.047 A 
HETATM   19  C16 UNL     1      23.006   4.726  49.856  1.00  0.00     0.068 C 
HETATM   20  C17 UNL     1      23.884   3.735  50.440  1.00  0.00     0.012 C 
HETATM   21  C18 UNL     1      25.211   3.787  50.282  1.00  0.00     0.063 C 
HETATM   22  C19 UNL     1      26.553   3.261  50.518  1.00  0.00     0.231 C 
HETATM   23  O3  UNL     1      26.575   2.093  51.321  1.00  0.00    -0.384 OA
HETATM   24  C20 UNL     1      26.060   2.342  52.569  1.00  0.00     0.175 C 
HETATM   25  C21 UNL     1      26.077   1.144  53.503  1.00  0.00     0.047 C 
HETATM   26  C22 UNL     1      27.413   1.086  54.125  1.00  0.00     0.158 C 
HETATM   27  N3  UNL     1      28.464   0.454  53.395  1.00  0.00    -0.282 NA
HETATM   28  C23 UNL     1      28.464  -0.810  53.042  1.00  0.00     0.225 C 
HETATM   29  N4  UNL     1      27.373  -1.663  53.376  1.00  0.00    -0.258 NA
HETATM   30  C24 UNL     1      26.119  -1.361  53.315  1.00  0.00     0.105 C 
HETATM   31  C25 UNL     1      25.515  -0.069  52.889  1.00  0.00     0.126 C 
HETATM   32  H1  UNL     1      22.578  -1.151  54.329  1.00  0.00     0.169 HD
HETATM   33  H8  UNL     1      18.067   4.367  50.349  1.00  0.00     0.316 HD
ENDROOT
BRANCH  21  34
HETATM   34  O2  UNL     1      25.392   4.941  49.487  1.00  0.00    -0.363 OA
HETATM   35  H18 UNL     1      26.315   5.192  49.148  1.00  0.00     0.217 HD
ENDBRANCH  21  34
TORSDOF 1
ENDMDL
MODEL 2
REMARK VINA RESULT:      -9.1      3.125      7.829
REMARK  1 active torsions:
REMARK  status: ('A' for Active; 'I' for Inactive)
REMARK    1  A    between atoms: C18_21  and  O2_22 
ROOT
HETATM    1  O1  UNL     1      19.595   1.229  50.199  1.00  0.00    -0.272 OA
HETATM    2  C1  UNL     1      18.459   1.110  49.671  1.00  0.00     0.231 C 
HETATM    3  N1  UNL     1      18.914   2.199  48.899  1.00  0.00    -0.327 N 
HETATM    4  C2  UNL     1      20.255   2.567  49.304  1.00  0.00     0.034 A 
HETATM    5  C3  UNL     1      20.453   3.544  50.256  1.00  0.00     0.030 A 
HETATM    6  C4  UNL     1      21.732   3.875  50.641  1.00  0.00     0.011 A 
HETATM    7  C5  UNL     1      22.807   3.229  50.075  1.00  0.00    -0.030 A 
HETATM    8  C6  UNL     1      22.575   2.245  49.112  1.00  0.00     0.011 A 
HETATM    9  C7  UNL     1      21.304   1.896  48.709  1.00  0.00     0.030 A 
HETATM   10  C8  UNL     1      24.219   3.496  50.417  1.00  0.00     0.308 C 
HETATM   11  N2  UNL     1      24.441   3.870  51.777  1.00  0.00     0.091 N 
HETATM   12  C9  UNL     1      23.975   2.941  52.749  1.00  0.00     0.309 C 
HETATM   13  C10 UNL     1      24.545   1.593  52.697  1.00  0.00    -0.024 A 
HETATM   14  C11 UNL     1      25.727   1.159  52.141  1.00  0.00     0.009 A 
HETATM   15  C12 UNL     1      26.181  -0.140  52.128  1.00  0.00     0.001 A 
HETATM   16  C13 UNL     1      25.399  -1.111  52.720  1.00  0.00     0.001 A 
HETATM   17  C14 UNL     1      24.205  -0.720  53.290  1.00  0.00     0.008 A 
HETATM   18  C15 UNL     1      23.747   0.605  53.301  1.00  0.00    -0.047 A 
HETATM   19  C16 UNL     1      22.478   0.777  53.991  1.00  0.00     0.068 C 
HETATM   20  C17 UNL     1      21.258   0.352  53.339  1.00  0.00     0.012 C 
HETATM   21  C18 UNL     1      20.483  -0.611  53.851  1.00  0.00     0.063 C 
HETATM   22  C19 UNL     1      19.295  -1.460  53.808  1.00  0.00     0.231 C 
HETATM   23  O3  UNL     1      18.461  -1.219  52.688  1.00  0.00    -0.384 OA
HETATM   24  C20 UNL     1      17.985   0.069  52.696  1.00  0.00     0.175 C 
HETATM   25  C21 UNL     1      17.055   0.398  51.541  1.00  0.00     0.047 C 
HETATM   26  C22 UNL     1      15.702  -0.048  51.920  1.00  0.00     0.158 C 
HETATM   27  N3  UNL     1      15.367  -1.420  51.717  1.00  0.00    -0.282 NA
HETATM   28  C23 UNL     1      15.340  -2.011  50.545  1.00  0.00     0.225 C 
HETATM   29  N4  UNL     1      15.657  -1.291  49.356  1.00  0.00    -0.258 NA
HETATM   30  C24 UNL     1      16.613  -0.436  49.211  1.00  0.00     0.105 C 
HETATM   31  C25 UNL     1      17.603   0.003  50.233  1.00  0.00     0.126 C 
HETATM   32  H1  UNL     1      18.338   2.649  48.153  1.00  0.00     0.169 HD
HETATM   33  H8  UNL     1      25.390   4.251  51.938  1.00  0.00     0.316 HD
ENDROOT
BRANCH  21  34
HETATM   34  O2  UNL     1      21.172  -0.982  55.027  1.00  0.00    -0.363 OA
HETATM   35  H18 UNL     1      22.141  -1.281  54.982  1.00  0.00     0.217 HD
ENDBRANCH  21  34
TORSDOF 1
ENDMDL
MODEL 3
REMARK VINA RESULT:      -9.1      1.909      4.649
REMARK  1 active torsions:
REMARK  status: ('A' for Active; 'I' for Inactive)
REMARK    1  A    between atoms: C18_21  and  O2_22 
ROOT
HETATM    1  O1  UNL     1      23.827   2.698  51.323  1.00  0.00    -0.272 OA
HETATM    2  C1  UNL     1      24.984   2.550  51.795  1.00  0.00     0.231 C 
HETATM    3  N1  UNL     1      25.317   3.439  50.753  1.00  0.00    -0.327 N 
HETATM    4  C2  UNL     1      24.127   3.799  50.009  1.00  0.00     0.034 A 
HETATM    5  C3  UNL     1      23.765   3.088  48.885  1.00  0.00     0.030 A 
HETATM    6  C4  UNL     1      22.624   3.433  48.196  1.00  0.00     0.011 A 
HETATM    7  C5  UNL     1      21.851   4.484  48.633  1.00  0.00    -0.030 A 
HETATM    8  C6  UNL     1      22.244   5.186  49.773  1.00  0.00     0.011 A 
HETATM    9  C7  UNL     1      23.382   4.861  50.480  1.00  0.00     0.030 A 
HETATM   10  C8  UNL     1      20.606   4.935  47.978  1.00  0.00     0.308 C 
HETATM   11  N2  UNL     1      19.845   3.894  47.366  1.00  0.00     0.091 N 
HETATM   12  C9  UNL     1      19.465   2.828  48.229  1.00  0.00     0.309 C 
HETATM   13  C10 UNL     1      18.641   3.180  49.387  1.00  0.00    -0.024 A 
HETATM   14  C11 UNL     1      17.836   4.278  49.592  1.00  0.00     0.009 A 
HETATM   15  C12 UNL     1      17.101   4.535  50.727  1.00  0.00     0.001 A 
HETATM   16  C13 UNL     1      17.159   3.627  51.763  1.00  0.00     0.001 A 
HETATM   17  C14 UNL     1      17.954   2.511  51.600  1.00  0.00     0.008 A 
HETATM   18  C15 UNL     1      18.700   2.252  50.442  1.00  0.00    -0.047 A 
HETATM   19  C16 UNL     1      19.434   0.997  50.489  1.00  0.00     0.068 C 
HETATM   20  C17 UNL     1      20.634   0.910  51.293  1.00  0.00     0.012 C 
HETATM   21  C18 UNL     1      20.729   0.073  52.332  1.00  0.00     0.063 C 
HETATM   22  C19 UNL     1      21.473  -0.512  53.444  1.00  0.00     0.231 C 
HETATM   23  O3  UNL     1      22.788  -0.001  53.583  1.00  0.00    -0.384 OA
HETATM   24  C20 UNL     1      23.540  -0.265  52.466  1.00  0.00     0.175 C 
HETATM   25  C21 UNL     1      24.976   0.225  52.550  1.00  0.00     0.047 C 
HETATM   26  C22 UNL     1      25.757  -0.808  53.255  1.00  0.00     0.158 C 
HETATM   27  N3  UNL     1      25.738  -0.804  54.682  1.00  0.00    -0.282 NA
HETATM   28  C23 UNL     1      26.184   0.182  55.426  1.00  0.00     0.225 C 
HETATM   29  N4  UNL     1      26.733   1.355  54.832  1.00  0.00    -0.258 NA
HETATM   30  C24 UNL     1      26.275   1.977  53.798  1.00  0.00     0.105 C 
HETATM   31  C25 UNL     1      25.079   1.627  52.984  1.00  0.00     0.126 C 
HETATM   32  H1  UNL     1      26.292   3.767  50.573  1.00  0.00     0.169 HD
HETATM   33  H8  UNL     1      19.100   4.255  46.743  1.00  0.00     0.316 HD
ENDROOT
BRANCH  21  34
HETATM   34  O2  UNL     1      19.467  -0.562  52.345  1.00  0.00    -0.363 OA
HETATM   35  H18 UNL     1      18.895  -0.585  51.507  1.00  0.00     0.217 HD
ENDBRANCH  21  34
TORSDOF 1
ENDMDL
MODEL 4
REMARK VINA RESULT:      -8.3     22.519     26.096
REMARK  1 active torsions:
REMARK  status: ('A' for Active; 'I' for Inactive)
REMARK    1  A    between atoms: C18_21  and  O2_22 
ROOT
HETATM    1  O1  UNL     1      39.037   2.192  70.054  1.00  0.00    -0.272 OA
HETATM    2  C1  UNL     1      38.237   1.273  69.738  1.00  0.00     0.231 C 
HETATM    3  N1  UNL     1      37.453   1.868  70.747  1.00  0.00    -0.327 N 
HETATM    4  C2  UNL     1      38.151   3.004  71.312  1.00  0.00     0.034 A 
HETATM    5  C3  UNL     1      38.940   2.852  72.432  1.00  0.00     0.030 A 
HETATM    6  C4  UNL     1      39.609   3.938  72.950  1.00  0.00     0.011 A 
HETATM    7  C5  UNL     1      39.486   5.169  72.349  1.00  0.00    -0.030 A 
HETATM    8  C6  UNL     1      38.678   5.293  71.218  1.00  0.00     0.011 A 
HETATM    9  C7  UNL     1      37.999   4.221  70.679  1.00  0.00     0.030 A 
HETATM   10  C8  UNL     1      40.162   6.397  72.813  1.00  0.00     0.308 C 
HETATM   11  N2  UNL     1      41.446   6.184  73.401  1.00  0.00     0.091 N 
HETATM   12  C9  UNL     1      42.390   5.510  72.576  1.00  0.00     0.309 C 
HETATM   13  C10 UNL     1      42.730   6.151  71.304  1.00  0.00    -0.024 A 
HETATM   14  C11 UNL     1      42.611   7.469  70.925  1.00  0.00     0.009 A 
HETATM   15  C12 UNL     1      42.947   7.985  69.693  1.00  0.00     0.001 A 
HETATM   16  C13 UNL     1      43.449   7.124  68.740  1.00  0.00     0.001 A 
HETATM   17  C14 UNL     1      43.585   5.793  69.078  1.00  0.00     0.008 A 
HETATM   18  C15 UNL     1      43.243   5.272  70.334  1.00  0.00    -0.047 A 
HETATM   19  C16 UNL     1      43.506   3.848  70.466  1.00  0.00     0.068 C 
HETATM   20  C17 UNL     1      42.619   2.903  69.822  1.00  0.00     0.012 C 
HETATM   21  C18 UNL     1      43.047   2.072  68.865  1.00  0.00     0.063 C 
HETATM   22  C19 UNL     1      42.815   1.004  67.896  1.00  0.00     0.231 C 
HETATM   23  O3  UNL     1      41.482   0.525  67.882  1.00  0.00    -0.384 OA
HETATM   24  C20 UNL     1      41.137  -0.010  69.098  1.00  0.00     0.175 C 
HETATM   25  C21 UNL     1      39.728  -0.575  69.156  1.00  0.00     0.047 C 
HETATM   26  C22 UNL     1      39.781  -1.950  68.626  1.00  0.00     0.158 C 
HETATM   27  N3  UNL     1      39.726  -2.126  67.211  1.00  0.00    -0.282 NA
HETATM   28  C23 UNL     1      38.712  -1.768  66.459  1.00  0.00     0.225 C 
HETATM   29  N4  UNL     1      37.557  -1.159  67.029  1.00  0.00    -0.258 NA
HETATM   30  C24 UNL     1      37.545  -0.257  67.953  1.00  0.00     0.105 C 
HETATM   31  C25 UNL     1      38.714   0.358  68.638  1.00  0.00     0.126 C 
HETATM   32  H1  UNL     1      36.510   1.512  71.020  1.00  0.00     0.169 HD
HETATM   33  H8  UNL     1      41.801   7.019  73.901  1.00  0.00     0.316 HD
ENDROOT
BRANCH  21  34
HETATM   34  O2  UNL     1      44.415   2.404  68.744  1.00  0.00    -0.363 OA
HETATM   35  H18 UNL     1      45.103   1.981  69.358  1.00  0.00     0.217 HD
ENDBRANCH  21  34
TORSDOF 1
ENDMDL
MODEL 5
REMARK VINA RESULT:      -8.0      4.116      7.810
REMARK  1 active torsions:
REMARK  status: ('A' for Active; 'I' for Inactive)
REMARK    1  A    between atoms: C18_21  and  O2_22 
ROOT
HETATM    1  O1  UNL     1      19.662   5.376  49.397  1.00  0.00    -0.272 OA
HETATM    2  C1  UNL     1      18.436   5.204  49.171  1.00  0.00     0.231 C 
HETATM    3  N1  UNL     1      18.532   6.527  48.694  1.00  0.00    -0.327 N 
HETATM    4  C2  UNL     1      19.892   7.006  48.832  1.00  0.00     0.034 A 
HETATM    5  C3  UNL     1      20.277   7.701  49.958  1.00  0.00     0.030 A 
HETATM    6  C4  UNL     1      21.576   8.138  50.081  1.00  0.00     0.011 A 
HETATM    7  C5  UNL     1      22.484   7.879  49.081  1.00  0.00    -0.030 A 
HETATM    8  C6  UNL     1      22.066   7.175  47.952  1.00  0.00     0.011 A 
HETATM    9  C7  UNL     1      20.771   6.726  47.804  1.00  0.00     0.030 A 
HETATM   10  C8  UNL     1      23.902   8.292  49.111  1.00  0.00     0.308 C 
HETATM   11  N2  UNL     1      24.490   8.310  50.413  1.00  0.00     0.091 N 
HETATM   12  C9  UNL     1      24.428   7.081  51.127  1.00  0.00     0.309 C 
HETATM   13  C10 UNL     1      25.080   5.925  50.504  1.00  0.00    -0.024 A 
HETATM   14  C11 UNL     1      26.073   5.884  49.553  1.00  0.00     0.009 A 
HETATM   15  C12 UNL     1      26.621   4.742  49.012  1.00  0.00     0.001 A 
HETATM   16  C13 UNL     1      26.149   3.522  49.447  1.00  0.00     0.001 A 
HETATM   17  C14 UNL     1      25.153   3.517  50.401  1.00  0.00     0.008 A 
HETATM   18  C15 UNL     1      24.598   4.682  50.950  1.00  0.00    -0.047 A 
HETATM   19  C16 UNL     1      23.586   4.425  51.963  1.00  0.00     0.068 C 
HETATM   20  C17 UNL     1      22.272   3.983  51.551  1.00  0.00     0.012 C 
HETATM   21  C18 UNL     1      21.781   2.792  51.915  1.00  0.00     0.063 C 
HETATM   22  C19 UNL     1      20.721   1.788  51.916  1.00  0.00     0.231 C 
HETATM   23  O3  UNL     1      19.568   2.173  51.187  1.00  0.00    -0.384 OA
HETATM   24  C20 UNL     1      18.999   3.300  51.725  1.00  0.00     0.175 C 
HETATM   25  C21 UNL     1      17.736   3.761  51.017  1.00  0.00     0.047 C 
HETATM   26  C22 UNL     1      16.609   2.991  51.574  1.00  0.00     0.158 C 
HETATM   27  N3  UNL     1      16.358   1.691  51.041  1.00  0.00    -0.282 NA
HETATM   28  C23 UNL     1      16.034   1.453  49.791  1.00  0.00     0.225 C 
HETATM   29  N4  UNL     1      15.908   2.517  48.853  1.00  0.00    -0.258 NA
HETATM   30  C24 UNL     1      16.690   3.537  48.743  1.00  0.00     0.105 C 
HETATM   31  C25 UNL     1      17.897   3.849  49.557  1.00  0.00     0.126 C 
HETATM   32  H1  UNL     1      17.719   7.053  48.305  1.00  0.00     0.169 HD
HETATM   33  H8  UNL     1      25.403   8.797  50.434  1.00  0.00     0.316 HD
ENDROOT
BRANCH  21  34
HETATM   34  O2  UNL     1      22.825   2.241  52.691  1.00  0.00    -0.363 OA
HETATM   35  H18 UNL     1      23.780   2.565  52.571  1.00  0.00     0.217 HD
ENDBRANCH  21  34
TORSDOF 1
ENDMDL
MODEL 6
REMARK VINA RESULT:      -8.0      3.977      6.526
REMARK  1 active torsions:
REMARK  status: ('A' for Active; 'I' for Inactive)
REMARK    1  A    between atoms: C18_21  and  O2_22 
ROOT
HETATM    1  O1  UNL     1      23.664   4.957  50.553  1.00  0.00    -0.272 OA
HETATM    2  C1  UNL     1      24.141   3.945  51.128  1.00  0.00     0.231 C 
HETATM    3  N1  UNL     1      25.362   4.565  50.793  1.00  0.00    -0.327 N 
HETATM    4  C2  UNL     1      25.111   5.809  50.094  1.00  0.00     0.034 A 
HETATM    5  C3  UNL     1      25.061   5.838  48.717  1.00  0.00     0.030 A 
HETATM    6  C4  UNL     1      24.808   7.025  48.067  1.00  0.00     0.011 A 
HETATM    7  C5  UNL     1      24.605   8.174  48.793  1.00  0.00    -0.030 A 
HETATM    8  C6  UNL     1      24.663   8.115  50.186  1.00  0.00     0.011 A 
HETATM    9  C7  UNL     1      24.915   6.940  50.861  1.00  0.00     0.030 A 
HETATM   10  C8  UNL     1      24.318   9.498  48.203  1.00  0.00     0.308 C 
HETATM   11  N2  UNL     1      23.563   9.457  46.991  1.00  0.00     0.091 N 
HETATM   12  C9  UNL     1      22.308   8.790  47.076  1.00  0.00     0.309 C 
HETATM   13  C10 UNL     1      21.339   9.330  48.033  1.00  0.00    -0.024 A 
HETATM   14  C11 UNL     1      21.256  10.588  48.584  1.00  0.00     0.009 A 
HETATM   15  C12 UNL     1      20.310  11.008  49.493  1.00  0.00     0.001 A 
HETATM   16  C13 UNL     1      19.351  10.104  49.900  1.00  0.00     0.001 A 
HETATM   17  C14 UNL     1      19.397   8.830  49.372  1.00  0.00     0.008 A 
HETATM   18  C15 UNL     1      20.361   8.408  48.446  1.00  0.00    -0.047 A 
HETATM   19  C16 UNL     1      20.185   7.032  48.007  1.00  0.00     0.068 C 
HETATM   20  C17 UNL     1      20.556   5.955  48.898  1.00  0.00     0.012 C 
HETATM   21  C18 UNL     1      19.658   5.074  49.353  1.00  0.00     0.063 C 
HETATM   22  C19 UNL     1      19.299   3.899  50.143  1.00  0.00     0.231 C 
HETATM   23  O3  UNL     1      20.397   3.305  50.815  1.00  0.00    -0.384 OA
HETATM   24  C20 UNL     1      21.342   2.865  49.922  1.00  0.00     0.175 C 
HETATM   25  C21 UNL     1      22.540   2.187  50.563  1.00  0.00     0.047 C 
HETATM   26  C22 UNL     1      22.179   0.776  50.794  1.00  0.00     0.158 C 
HETATM   27  N3  UNL     1      21.445   0.458  51.976  1.00  0.00    -0.282 NA
HETATM   28  C23 UNL     1      21.888   0.648  53.197  1.00  0.00     0.225 C 
HETATM   29  N4  UNL     1      23.178   1.207  53.428  1.00  0.00    -0.258 NA
HETATM   30  C24 UNL     1      23.712   2.191  52.786  1.00  0.00     0.105 C 
HETATM   31  C25 UNL     1      23.122   2.971  51.664  1.00  0.00     0.126 C 
HETATM   32  H1  UNL     1      26.294   4.157  51.031  1.00  0.00     0.169 HD
HETATM   33  H8  UNL     1      23.556  10.365  46.493  1.00  0.00     0.316 HD
ENDROOT
BRANCH  21  34
HETATM   34  O2  UNL     1      18.454   5.511  48.757  1.00  0.00    -0.363 OA
HETATM   35  H18 UNL     1      17.571   5.072  49.000  1.00  0.00     0.217 HD
ENDBRANCH  21  34
TORSDOF 1
ENDMDL
MODEL 7
REMARK VINA RESULT:      -8.0      3.374      6.137
REMARK  1 active torsions:
REMARK  status: ('A' for Active; 'I' for Inactive)
REMARK    1  A    between atoms: C18_21  and  O2_22 
ROOT
HETATM    1  O1  UNL     1      21.448   3.763  48.679  1.00  0.00    -0.272 OA
HETATM    2  C1  UNL     1      20.861   2.703  49.020  1.00  0.00     0.231 C 
HETATM    3  N1  UNL     1      20.191   2.906  47.796  1.00  0.00    -0.327 N 
HETATM    4  C2  UNL     1      20.686   4.105  47.152  1.00  0.00     0.034 A 
HETATM    5  C3  UNL     1      20.059   5.316  47.354  1.00  0.00     0.030 A 
HETATM    6  C4  UNL     1      20.549   6.450  46.746  1.00  0.00     0.011 A 
HETATM    7  C5  UNL     1      21.662   6.370  45.942  1.00  0.00    -0.030 A 
HETATM    8  C6  UNL     1      22.275   5.130  45.755  1.00  0.00     0.011 A 
HETATM    9  C7  UNL     1      21.804   3.981  46.352  1.00  0.00     0.030 A 
HETATM   10  C8  UNL     1      22.277   7.520  45.249  1.00  0.00     0.308 C 
HETATM   11  N2  UNL     1      22.178   8.760  45.951  1.00  0.00     0.091 N 
HETATM   12  C9  UNL     1      22.723   8.762  47.266  1.00  0.00     0.309 C 
HETATM   13  C10 UNL     1      24.148   8.445  47.388  1.00  0.00    -0.024 A 
HETATM   14  C11 UNL     1      25.151   8.527  46.448  1.00  0.00     0.009 A 
HETATM   15  C12 UNL     1      26.471   8.194  46.650  1.00  0.00     0.001 A 
HETATM   16  C13 UNL     1      26.845   7.735  47.896  1.00  0.00     0.001 A 
HETATM   17  C14 UNL     1      25.872   7.637  48.868  1.00  0.00     0.008 A 
HETATM   18  C15 UNL     1      24.528   7.978  48.658  1.00  0.00    -0.047 A 
HETATM   19  C16 UNL     1      23.696   7.823  49.842  1.00  0.00     0.068 C 
HETATM   20  C17 UNL     1      23.302   6.495  50.258  1.00  0.00     0.012 C 
HETATM   21  C18 UNL     1      23.670   5.988  51.440  1.00  0.00     0.063 C 
HETATM   22  C19 UNL     1      23.675   4.913  52.429  1.00  0.00     0.231 C 
HETATM   23  O3  UNL     1      22.933   3.771  52.035  1.00  0.00    -0.384 OA
HETATM   24  C20 UNL     1      21.610   4.083  51.848  1.00  0.00     0.175 C 
HETATM   25  C21 UNL     1      20.739   2.902  51.453  1.00  0.00     0.047 C 
HETATM   26  C22 UNL     1      20.345   2.209  52.693  1.00  0.00     0.158 C 
HETATM   27  N3  UNL     1      21.259   1.267  53.254  1.00  0.00    -0.282 NA
HETATM   28  C23 UNL     1      21.658   0.172  52.651  1.00  0.00     0.225 C 
HETATM   29  N4  UNL     1      21.186  -0.158  51.347  1.00  0.00    -0.258 NA
HETATM   30  C24 UNL     1      21.031   0.658  50.360  1.00  0.00     0.105 C 
HETATM   31  C25 UNL     1      21.302   2.122  50.340  1.00  0.00     0.126 C 
HETATM   32  H1  UNL     1      19.449   2.263  47.439  1.00  0.00     0.169 HD
HETATM   33  H8  UNL     1      22.424   9.575  45.361  1.00  0.00     0.316 HD
ENDROOT
BRANCH  21  34
HETATM   34  O2  UNL     1      24.437   7.029  52.008  1.00  0.00    -0.363 OA
HETATM   35  H18 UNL     1      25.284   6.818  52.527  1.00  0.00     0.217 HD
ENDBRANCH  21  34
TORSDOF 1
ENDMDL
MODEL 8
REMARK VINA RESULT:      -7.9      3.899      5.994
REMARK  1 active torsions:
REMARK  status: ('A' for Active; 'I' for Inactive)
REMARK    1  A    between atoms: C18_21  and  O2_22 
ROOT
HETATM    1  O1  UNL     1      24.777   5.154  49.906  1.00  0.00    -0.272 OA
HETATM    2  C1  UNL     1      26.002   5.428  49.816  1.00  0.00     0.231 C 
HETATM    3  N1  UNL     1      26.133   4.179  50.457  1.00  0.00    -0.327 N 
HETATM    4  C2  UNL     1      24.825   3.603  50.695  1.00  0.00     0.034 A 
HETATM    5  C3  UNL     1      24.176   3.815  51.893  1.00  0.00     0.030 A 
HETATM    6  C4  UNL     1      22.928   3.273  52.099  1.00  0.00     0.011 A 
HETATM    7  C5  UNL     1      22.334   2.524  51.110  1.00  0.00    -0.030 A 
HETATM    8  C6  UNL     1      23.015   2.326  49.909  1.00  0.00     0.011 A 
HETATM    9  C7  UNL     1      24.266   2.857  49.677  1.00  0.00     0.030 A 
HETATM   10  C8  UNL     1      20.998   1.904  51.219  1.00  0.00     0.308 C 
HETATM   11  N2  UNL     1      20.061   2.642  52.005  1.00  0.00     0.091 N 
HETATM   12  C9  UNL     1      19.833   3.982  51.583  1.00  0.00     0.309 C 
HETATM   13  C10 UNL     1      19.317   4.166  50.224  1.00  0.00    -0.024 A 
HETATM   14  C11 UNL     1      18.642   3.282  49.414  1.00  0.00     0.009 A 
HETATM   15  C12 UNL     1      18.201   3.539  48.135  1.00  0.00     0.001 A 
HETATM   16  C13 UNL     1      18.448   4.785  47.597  1.00  0.00     0.001 A 
HETATM   17  C14 UNL     1      19.123   5.702  48.376  1.00  0.00     0.008 A 
HETATM   18  C15 UNL     1      19.568   5.437  49.678  1.00  0.00    -0.047 A 
HETATM   19  C16 UNL     1      20.225   6.570  50.312  1.00  0.00     0.068 C 
HETATM   20  C17 UNL     1      21.571   6.919  49.913  1.00  0.00     0.012 C 
HETATM   21  C18 UNL     1      21.857   8.100  49.353  1.00  0.00     0.063 C 
HETATM   22  C19 UNL     1      22.805   9.050  48.776  1.00  0.00     0.231 C 
HETATM   23  O3  UNL     1      24.142   8.580  48.752  1.00  0.00    -0.384 OA
HETATM   24  C20 UNL     1      24.602   8.336  50.021  1.00  0.00     0.175 C 
HETATM   25  C21 UNL     1      26.043   7.857  50.083  1.00  0.00     0.047 C 
HETATM   26  C22 UNL     1      26.908   9.050  50.055  1.00  0.00     0.158 C 
HETATM   27  N3  UNL     1      27.218   9.624  48.786  1.00  0.00    -0.282 NA
HETATM   28  C23 UNL     1      27.875   9.003  47.833  1.00  0.00     0.225 C 
HETATM   29  N4  UNL     1      28.335   7.667  48.013  1.00  0.00    -0.258 NA
HETATM   30  C24 UNL     1      27.685   6.702  48.572  1.00  0.00     0.105 C 
HETATM   31  C25 UNL     1      26.317   6.747  49.157  1.00  0.00     0.126 C 
HETATM   32  H1  UNL     1      27.057   3.762  50.710  1.00  0.00     0.169 HD
HETATM   33  H8  UNL     1      19.214   2.095  52.238  1.00  0.00     0.316 HD
ENDROOT
BRANCH  21  34
HETATM   34  O2  UNL     1      20.600   8.742  49.304  1.00  0.00    -0.363 OA
HETATM   35  H18 UNL     1      20.147   8.918  48.413  1.00  0.00     0.217 HD
ENDBRANCH  21  34
TORSDOF 1
ENDMDL
MODEL 9
REMARK VINA RESULT:      -7.8     18.505     22.289
REMARK  1 active torsions:
REMARK  status: ('A' for Active; 'I' for Inactive)
REMARK    1  A    between atoms: C18_21  and  O2_22 
ROOT
HETATM    1  O1  UNL     1      44.247   9.591  51.445  1.00  0.00    -0.272 OA
HETATM    2  C1  UNL     1      44.413  10.128  50.319  1.00  0.00     0.231 C 
HETATM    3  N1  UNL     1      45.524  10.704  50.969  1.00  0.00    -0.327 N 
HETATM    4  C2  UNL     1      45.590  10.243  52.340  1.00  0.00     0.034 A 
HETATM    5  C3  UNL     1      44.999  10.971  53.351  1.00  0.00     0.030 A 
HETATM    6  C4  UNL     1      45.058  10.513  54.648  1.00  0.00     0.011 A 
HETATM    7  C5  UNL     1      45.705   9.333  54.930  1.00  0.00    -0.030 A 
HETATM    8  C6  UNL     1      46.295   8.618  53.886  1.00  0.00     0.011 A 
HETATM    9  C7  UNL     1      46.250   9.054  52.580  1.00  0.00     0.030 A 
HETATM   10  C8  UNL     1      45.822   8.745  56.279  1.00  0.00     0.308 C 
HETATM   11  N2  UNL     1      44.706   8.992  57.135  1.00  0.00     0.091 N 
HETATM   12  C9  UNL     1      43.445   8.564  56.633  1.00  0.00     0.309 C 
HETATM   13  C10 UNL     1      43.305   7.135  56.340  1.00  0.00    -0.024 A 
HETATM   14  C11 UNL     1      44.024   6.065  56.821  1.00  0.00     0.009 A 
HETATM   15  C12 UNL     1      43.828   4.746  56.477  1.00  0.00     0.001 A 
HETATM   16  C13 UNL     1      42.829   4.447  55.574  1.00  0.00     0.001 A 
HETATM   17  C14 UNL     1      42.083   5.491  55.067  1.00  0.00     0.008 A 
HETATM   18  C15 UNL     1      42.285   6.833  55.420  1.00  0.00    -0.047 A 
HETATM   19  C16 UNL     1      41.354   7.750  54.781  1.00  0.00     0.068 C 
HETATM   20  C17 UNL     1      41.536   8.082  53.385  1.00  0.00     0.012 C 
HETATM   21  C18 UNL     1      40.615   7.781  52.462  1.00  0.00     0.063 C 
HETATM   22  C19 UNL     1      40.131   7.783  51.084  1.00  0.00     0.231 C 
HETATM   23  O3  UNL     1      41.017   8.404  50.169  1.00  0.00    -0.384 OA
HETATM   24  C20 UNL     1      41.209   9.725  50.487  1.00  0.00     0.175 C 
HETATM   25  C21 UNL     1      42.125  10.472  49.532  1.00  0.00     0.047 C 
HETATM   26  C22 UNL     1      41.305  10.920  48.391  1.00  0.00     0.158 C 
HETATM   27  N3  UNL     1      41.063   9.992  47.334  1.00  0.00    -0.282 NA
HETATM   28  C23 UNL     1      42.001   9.465  46.582  1.00  0.00     0.225 C 
HETATM   29  N4  UNL     1      43.372   9.799  46.781  1.00  0.00    -0.258 NA
HETATM   30  C24 UNL     1      43.971   9.927  47.917  1.00  0.00     0.105 C 
HETATM   31  C25 UNL     1      43.388   9.761  49.276  1.00  0.00     0.126 C 
HETATM   32  H1  UNL     1      46.182  11.363  50.497  1.00  0.00     0.169 HD
HETATM   33  H8  UNL     1      44.899   8.756  58.125  1.00  0.00     0.316 HD
ENDROOT
BRANCH  21  34
HETATM   34  O2  UNL     1      39.606   7.142  53.217  1.00  0.00    -0.363 OA
HETATM   35  H18 UNL     1      39.350   6.179  53.021  1.00  0.00     0.217 HD
ENDBRANCH  21  34
TORSDOF 1
ENDMDL
