MODEL 1
REMARK VINA RESULT:      -7.4      0.000      0.000
REMARK  7 active torsions:
REMARK  status: ('A' for Active; 'I' for Inactive)
REMARK    1  A    between atoms: C1_2  and  O2_3 
REMARK    2  A    between atoms: C1_2  and  C2_4 
REMARK    3  A    between atoms: C3_6  and  C4_7 
REMARK    4  A    between atoms: C5_8  and  P1_9 
REMARK    5  A    between atoms: P1_9  and  C6_10 
REMARK    6  A    between atoms: C6_10  and  C7_11 
REMARK    7  A    between atoms: C15_19  and  O4_20 
ROOT
HETATM    1  C2  UNL     1      27.436  -0.920  53.182  1.00  0.00     0.248 C 
HETATM    2  O3  UNL     1      26.383  -1.514  53.855  1.00  0.00    -0.363 OA
HETATM    3  C3  UNL     1      25.663  -0.521  54.487  1.00  0.00     0.148 C 
HETATM    4  C14 UNL     1      26.406   0.778  54.356  1.00  0.00     0.071 C 
HETATM    5  C15 UNL     1      27.804   0.289  54.011  1.00  0.00     0.160 C 
ENDROOT
BRANCH   3   6
HETATM    6  C4  UNL     1      24.309  -0.463  53.873  1.00  0.00     0.007 C 
HETATM    7  C5  UNL     1      23.081  -0.805  54.294  1.00  0.00     0.023 C 
BRANCH   7   8
HETATM    8  P1  UNL     1      21.611  -0.567  53.188  1.00  0.00     0.024 P 
BRANCH   8   9
HETATM    9  C6  UNL     1      21.794   0.519  51.939  1.00  0.00    -0.103 C 
BRANCH   9  10
HETATM   10  C7  UNL     1      22.211   1.185  50.868  1.00  0.00     0.010 A 
HETATM   11  C8  UNL     1      21.416   0.836  49.699  1.00  0.00     0.020 A 
HETATM   12  C9  UNL     1      21.632   1.416  48.511  1.00  0.00     0.001 A 
HETATM   13  C10 UNL     1      22.622   2.442  48.143  1.00  0.00     0.000 A 
HETATM   14  C11 UNL     1      23.551   3.036  48.872  1.00  0.00     0.000 A 
HETATM   15  C12 UNL     1      23.888   2.857  50.299  1.00  0.00     0.001 A 
HETATM   16  C13 UNL     1      23.325   2.054  51.216  1.00  0.00     0.020 A 
ENDBRANCH   9  10
ENDBRANCH   8   9
ENDBRANCH   7   8
ENDBRANCH   3   6
BRANCH   1  17
HETATM   17  C1  UNL     1      28.541  -1.902  53.082  1.00  0.00     0.172 C 
HETATM   18  O1  UNL     1      29.772  -1.638  53.203  1.00  0.00    -0.648 OA
BRANCH  17  19
HETATM   19  O2  UNL     1      28.223  -3.248  52.832  1.00  0.00    -0.774 OA
HETATM   20  H1  UNL     1      27.714  -3.524  51.992  1.00  0.00     0.167 HD
ENDBRANCH  17  19
ENDBRANCH   1  17
BRANCH   5  21
HETATM   21  O4  UNL     1      28.430  -0.012  55.198  1.00  0.00    -0.392 OA
HETATM   22  H15 UNL     1      29.228  -0.588  55.128  1.00  0.00     0.210 HD
ENDBRANCH   5  21
TORSDOF 7
ENDMDL
MODEL 2
REMARK VINA RESULT:      -7.2      3.188      4.427
REMARK  7 active torsions:
REMARK  status: ('A' for Active; 'I' for Inactive)
REMARK    1  A    between atoms: C1_2  and  O2_3 
REMARK    2  A    between atoms: C1_2  and  C2_4 
REMARK    3  A    between atoms: C3_6  and  C4_7 
REMARK    4  A    between atoms: C5_8  and  P1_9 
REMARK    5  A    between atoms: P1_9  and  C6_10 
REMARK    6  A    between atoms: C6_10  and  C7_11 
REMARK    7  A    between atoms: C15_19  and  O4_20 
ROOT
HETATM    1  C2  UNL     1      27.739   1.469  53.856  1.00  0.00     0.248 C 
HETATM    2  O3  UNL     1      27.629   1.314  52.485  1.00  0.00    -0.363 OA
HETATM    3  C3  UNL     1      26.454   0.641  52.223  1.00  0.00     0.148 C 
HETATM    4  C14 UNL     1      25.858   0.177  53.521  1.00  0.00     0.071 C 
HETATM    5  C15 UNL     1      27.060   0.255  54.447  1.00  0.00     0.160 C 
ENDROOT
BRANCH   3   6
HETATM    6  C4  UNL     1      25.548   1.556  51.477  1.00  0.00     0.007 C 
HETATM    7  C5  UNL     1      24.226   1.787  51.510  1.00  0.00     0.023 C 
BRANCH   7   8
HETATM    8  P1  UNL     1      23.468   3.049  50.381  1.00  0.00     0.024 P 
BRANCH   8   9
HETATM    9  C6  UNL     1      24.471   4.271  49.859  1.00  0.00    -0.103 C 
BRANCH   9  10
HETATM   10  C7  UNL     1      25.425   4.987  49.274  1.00  0.00     0.010 A 
HETATM   11  C8  UNL     1      24.922   6.296  48.881  1.00  0.00     0.020 A 
HETATM   12  C9  UNL     1      25.721   7.206  48.307  1.00  0.00     0.001 A 
HETATM   13  C10 UNL     1      27.152   7.109  47.972  1.00  0.00     0.000 A 
HETATM   14  C11 UNL     1      28.003   6.110  48.135  1.00  0.00     0.000 A 
HETATM   15  C12 UNL     1      27.784   4.768  48.709  1.00  0.00     0.001 A 
HETATM   16  C13 UNL     1      26.666   4.230  49.223  1.00  0.00     0.020 A 
ENDBRANCH   9  10
ENDBRANCH   8   9
ENDBRANCH   7   8
ENDBRANCH   3   6
BRANCH   1  17
HETATM   17  C1  UNL     1      29.177   1.546  54.205  1.00  0.00     0.172 C 
HETATM   18  O1  UNL     1      29.689   2.348  55.037  1.00  0.00    -0.648 OA
BRANCH  17  19
HETATM   19  O2  UNL     1      30.070   0.665  53.572  1.00  0.00    -0.774 OA
HETATM   20  H1  UNL     1      30.505  -0.105  54.081  1.00  0.00     0.167 HD
ENDBRANCH  17  19
ENDBRANCH   1  17
BRANCH   5  21
HETATM   21  O4  UNL     1      27.766  -0.916  54.291  1.00  0.00    -0.392 OA
HETATM   22  H15 UNL     1      28.583  -1.000  54.836  1.00  0.00     0.210 HD
ENDBRANCH   5  21
TORSDOF 7
ENDMDL
MODEL 3
REMARK VINA RESULT:      -7.0      2.765      3.886
REMARK  7 active torsions:
REMARK  status: ('A' for Active; 'I' for Inactive)
REMARK    1  A    between atoms: C1_2  and  O2_3 
REMARK    2  A    between atoms: C1_2  and  C2_4 
REMARK    3  A    between atoms: C3_6  and  C4_7 
REMARK    4  A    between atoms: C5_8  and  P1_9 
REMARK    5  A    between atoms: P1_9  and  C6_10 
REMARK    6  A    between atoms: C6_10  and  C7_11 
REMARK    7  A    between atoms: C15_19  and  O4_20 
ROOT
HETATM    1  C2  UNL     1      28.235   0.258  53.043  1.00  0.00     0.248 C 
HETATM    2  O3  UNL     1      26.891   0.298  53.373  1.00  0.00    -0.363 OA
HETATM    3  C3  UNL     1      26.554   1.609  53.636  1.00  0.00     0.148 C 
HETATM    4  C14 UNL     1      27.805   2.441  53.649  1.00  0.00     0.071 C 
HETATM    5  C15 UNL     1      28.871   1.375  53.837  1.00  0.00     0.160 C 
ENDROOT
BRANCH   3   6
HETATM    6  C4  UNL     1      25.585   2.059  52.600  1.00  0.00     0.007 C 
HETATM    7  C5  UNL     1      24.558   1.469  51.968  1.00  0.00     0.023 C 
BRANCH   7   8
HETATM    8  P1  UNL     1      23.573   2.404  50.705  1.00  0.00     0.024 P 
BRANCH   8   9
HETATM    9  C6  UNL     1      24.419   3.478  49.755  1.00  0.00    -0.103 C 
BRANCH   9  10
HETATM   10  C7  UNL     1      25.232   4.426  49.300  1.00  0.00     0.010 A 
HETATM   11  C8  UNL     1      26.613   3.961  49.289  1.00  0.00     0.020 A 
HETATM   12  C9  UNL     1      27.605   4.736  48.831  1.00  0.00     0.001 A 
HETATM   13  C10 UNL     1      27.542   6.102  48.286  1.00  0.00     0.000 A 
HETATM   14  C11 UNL     1      26.510   6.912  48.121  1.00  0.00     0.000 A 
HETATM   15  C12 UNL     1      25.084   6.697  48.436  1.00  0.00     0.001 A 
HETATM   16  C13 UNL     1      24.475   5.618  48.955  1.00  0.00     0.020 A 
ENDBRANCH   9  10
ENDBRANCH   8   9
ENDBRANCH   7   8
ENDBRANCH   3   6
BRANCH   1  17
HETATM   17  C1  UNL     1      28.767  -1.077  53.407  1.00  0.00     0.172 C 
HETATM   18  O1  UNL     1      28.118  -2.161  53.371  1.00  0.00    -0.648 OA
BRANCH  17  19
HETATM   19  O2  UNL     1      30.103  -1.174  53.833  1.00  0.00    -0.774 OA
HETATM   20  H1  UNL     1      30.656  -2.012  53.652  1.00  0.00     0.167 HD
ENDBRANCH  17  19
ENDBRANCH   1  17
BRANCH   5  21
HETATM   21  O4  UNL     1      28.958   1.126  55.188  1.00  0.00    -0.392 OA
HETATM   22  H15 UNL     1      28.724   1.881  55.779  1.00  0.00     0.210 HD
ENDBRANCH   5  21
TORSDOF 7
ENDMDL
MODEL 4
REMARK VINA RESULT:      -6.9      3.491      6.493
REMARK  7 active torsions:
REMARK  status: ('A' for Active; 'I' for Inactive)
REMARK    1  A    between atoms: C1_2  and  O2_3 
REMARK    2  A    between atoms: C1_2  and  C2_4 
REMARK    3  A    between atoms: C3_6  and  C4_7 
REMARK    4  A    between atoms: C5_8  and  P1_9 
REMARK    5  A    between atoms: P1_9  and  C6_10 
REMARK    6  A    between atoms: C6_10  and  C7_11 
REMARK    7  A    between atoms: C15_19  and  O4_20 
ROOT
HETATM    1  C2  UNL     1      21.876   0.081  53.909  1.00  0.00     0.248 C 
HETATM    2  O3  UNL     1      22.458  -0.158  52.676  1.00  0.00    -0.363 OA
HETATM    3  C3  UNL     1      22.143   0.896  51.843  1.00  0.00     0.148 C 
HETATM    4  C14 UNL     1      21.146   1.781  52.533  1.00  0.00     0.071 C 
HETATM    5  C15 UNL     1      20.610   0.849  53.607  1.00  0.00     0.160 C 
ENDROOT
BRANCH   3   6
HETATM    6  C4  UNL     1      23.401   1.614  51.504  1.00  0.00     0.007 C 
HETATM    7  C5  UNL     1      23.696   2.639  50.689  1.00  0.00     0.023 C 
BRANCH   7   8
HETATM    8  P1  UNL     1      25.442   3.250  50.547  1.00  0.00     0.024 P 
BRANCH   8   9
HETATM    9  C6  UNL     1      26.574   2.480  51.494  1.00  0.00    -0.103 C 
BRANCH   9  10
HETATM   10  C7  UNL     1      27.224   1.632  52.284  1.00  0.00     0.010 A 
HETATM   11  C8  UNL     1      26.800   0.262  52.034  1.00  0.00     0.020 A 
HETATM   12  C9  UNL     1      27.351  -0.769  52.689  1.00  0.00     0.001 A 
HETATM   13  C10 UNL     1      28.409  -0.762  53.713  1.00  0.00     0.000 A 
HETATM   14  C11 UNL     1      29.070   0.247  54.254  1.00  0.00     0.000 A 
HETATM   15  C12 UNL     1      28.953   1.697  53.998  1.00  0.00     0.001 A 
HETATM   16  C13 UNL     1      28.155   2.352  53.140  1.00  0.00     0.020 A 
ENDBRANCH   9  10
ENDBRANCH   8   9
ENDBRANCH   7   8
ENDBRANCH   3   6
BRANCH   1  17
HETATM   17  C1  UNL     1      21.611  -1.224  54.562  1.00  0.00     0.172 C 
HETATM   18  O1  UNL     1      20.644  -1.994  54.298  1.00  0.00    -0.648 OA
BRANCH  17  19
HETATM   19  O2  UNL     1      22.493  -1.665  55.563  1.00  0.00    -0.774 OA
HETATM   20  H1  UNL     1      23.134  -2.442  55.398  1.00  0.00     0.167 HD
ENDBRANCH  17  19
ENDBRANCH   1  17
BRANCH   5  21
HETATM   21  O4  UNL     1      19.618   0.093  53.026  1.00  0.00    -0.392 OA
HETATM   22  H15 UNL     1      19.349   0.364  52.117  1.00  0.00     0.210 HD
ENDBRANCH   5  21
TORSDOF 7
ENDMDL
MODEL 5
REMARK VINA RESULT:      -6.8      2.633      3.837
REMARK  7 active torsions:
REMARK  status: ('A' for Active; 'I' for Inactive)
REMARK    1  A    between atoms: C1_2  and  O2_3 
REMARK    2  A    between atoms: C1_2  and  C2_4 
REMARK    3  A    between atoms: C3_6  and  C4_7 
REMARK    4  A    between atoms: C5_8  and  P1_9 
REMARK    5  A    between atoms: P1_9  and  C6_10 
REMARK    6  A    between atoms: C6_10  and  C7_11 
REMARK    7  A    between atoms: C15_19  and  O4_20 
ROOT
HETATM    1  C2  UNL     1      27.651  -0.795  53.095  1.00  0.00     0.248 C 
HETATM    2  O3  UNL     1      26.412  -1.313  53.431  1.00  0.00    -0.363 OA
HETATM    3  C3  UNL     1      25.651  -0.291  53.960  1.00  0.00     0.148 C 
HETATM    4  C14 UNL     1      26.519   0.921  54.140  1.00  0.00     0.071 C 
HETATM    5  C15 UNL     1      27.907   0.303  54.100  1.00  0.00     0.160 C 
ENDROOT
BRANCH   3   6
HETATM    6  C4  UNL     1      24.507  -0.038  53.043  1.00  0.00     0.007 C 
HETATM    7  C5  UNL     1      23.338   0.609  53.170  1.00  0.00     0.023 C 
BRANCH   7   8
HETATM    8  P1  UNL     1      22.154   0.694  51.745  1.00  0.00     0.024 P 
BRANCH   8   9
HETATM    9  C6  UNL     1      20.557   0.375  52.090  1.00  0.00    -0.103 C 
BRANCH   9  10
HETATM   10  C7  UNL     1      19.308  -0.077  52.083  1.00  0.00     0.010 A 
HETATM   11  C8  UNL     1      18.601   0.373  50.892  1.00  0.00     0.020 A 
HETATM   12  C9  UNL     1      17.335   0.005  50.651  1.00  0.00     0.001 A 
HETATM   13  C10 UNL     1      16.449  -0.856  51.452  1.00  0.00     0.000 A 
HETATM   14  C11 UNL     1      16.662  -1.468  52.604  1.00  0.00     0.000 A 
HETATM   15  C12 UNL     1      17.868  -1.480  53.457  1.00  0.00     0.001 A 
HETATM   16  C13 UNL     1      19.056  -0.883  53.267  1.00  0.00     0.020 A 
ENDBRANCH   9  10
ENDBRANCH   8   9
ENDBRANCH   7   8
ENDBRANCH   3   6
BRANCH   1  17
HETATM   17  C1  UNL     1      28.651  -1.887  53.173  1.00  0.00     0.172 C 
HETATM   18  O1  UNL     1      29.869  -1.746  53.480  1.00  0.00    -0.648 OA
BRANCH  17  19
HETATM   19  O2  UNL     1      28.237  -3.199  52.888  1.00  0.00    -0.774 OA
HETATM   20  H1  UNL     1      28.114  -3.518  51.926  1.00  0.00     0.167 HD
ENDBRANCH  17  19
ENDBRANCH   1  17
BRANCH   5  21
HETATM   21  O4  UNL     1      28.183  -0.150  55.370  1.00  0.00    -0.392 OA
HETATM   22  H15 UNL     1      29.138  -0.265  55.586  1.00  0.00     0.210 HD
ENDBRANCH   5  21
TORSDOF 7
ENDMDL
MODEL 6
REMARK VINA RESULT:      -6.8      2.689      4.312
REMARK  7 active torsions:
REMARK  status: ('A' for Active; 'I' for Inactive)
REMARK    1  A    between atoms: C1_2  and  O2_3 
REMARK    2  A    between atoms: C1_2  and  C2_4 
REMARK    3  A    between atoms: C3_6  and  C4_7 
REMARK    4  A    between atoms: C5_8  and  P1_9 
REMARK    5  A    between atoms: P1_9  and  C6_10 
REMARK    6  A    between atoms: C6_10  and  C7_11 
REMARK    7  A    between atoms: C15_19  and  O4_20 
ROOT
HETATM    1  C2  UNL     1      27.130   1.602  53.961  1.00  0.00     0.248 C 
HETATM    2  O3  UNL     1      26.717   1.410  52.654  1.00  0.00    -0.363 OA
HETATM    3  C3  UNL     1      25.764   0.413  52.648  1.00  0.00     0.148 C 
HETATM    4  C14 UNL     1      25.689  -0.199  54.018  1.00  0.00     0.071 C 
HETATM    5  C15 UNL     1      27.014   0.245  54.616  1.00  0.00     0.160 C 
ENDROOT
BRANCH   3   6
HETATM    6  C4  UNL     1      24.468   1.008  52.221  1.00  0.00     0.007 C 
HETATM    7  C5  UNL     1      23.697   1.998  52.697  1.00  0.00     0.023 C 
BRANCH   7   8
HETATM    8  P1  UNL     1      22.109   2.440  51.847  1.00  0.00     0.024 P 
BRANCH   8   9
HETATM    9  C6  UNL     1      20.879   1.323  51.952  1.00  0.00    -0.103 C 
BRANCH   9  10
HETATM   10  C7  UNL     1      20.009   0.405  52.362  1.00  0.00     0.010 A 
HETATM   11  C8  UNL     1      18.749   0.529  51.643  1.00  0.00     0.020 A 
HETATM   12  C9  UNL     1      17.735  -0.318  51.863  1.00  0.00     0.001 A 
HETATM   13  C10 UNL     1      17.661  -1.461  52.789  1.00  0.00     0.000 A 
HETATM   14  C11 UNL     1      18.556  -1.931  53.641  1.00  0.00     0.000 A 
HETATM   15  C12 UNL     1      19.923  -1.454  53.932  1.00  0.00     0.001 A 
HETATM   16  C13 UNL     1      20.605  -0.430  53.394  1.00  0.00     0.020 A 
ENDBRANCH   9  10
ENDBRANCH   8   9
ENDBRANCH   7   8
ENDBRANCH   3   6
BRANCH   1  17
HETATM   17  C1  UNL     1      28.522   2.111  53.942  1.00  0.00     0.172 C 
HETATM   18  O1  UNL     1      29.379   1.938  54.854  1.00  0.00    -0.648 OA
BRANCH  17  19
HETATM   19  O2  UNL     1      28.950   2.853  52.828  1.00  0.00    -0.774 OA
HETATM   20  H1  UNL     1      28.586   3.788  52.643  1.00  0.00     0.167 HD
ENDBRANCH  17  19
ENDBRANCH   1  17
BRANCH   5  21
HETATM   21  O4  UNL     1      27.965  -0.661  54.204  1.00  0.00    -0.392 OA
HETATM   22  H15 UNL     1      28.806  -0.665  54.720  1.00  0.00     0.210 HD
ENDBRANCH   5  21
TORSDOF 7
ENDMDL
MODEL 7
REMARK VINA RESULT:      -6.6      3.807      5.272
REMARK  7 active torsions:
REMARK  status: ('A' for Active; 'I' for Inactive)
REMARK    1  A    between atoms: C1_2  and  O2_3 
REMARK    2  A    between atoms: C1_2  and  C2_4 
REMARK    3  A    between atoms: C3_6  and  C4_7 
REMARK    4  A    between atoms: C5_8  and  P1_9 
REMARK    5  A    between atoms: P1_9  and  C6_10 
REMARK    6  A    between atoms: C6_10  and  C7_11 
REMARK    7  A    between atoms: C15_19  and  O4_20 
ROOT
HETATM    1  C2  UNL     1      25.232  -0.383  53.564  1.00  0.00     0.248 C 
HETATM    2  O3  UNL     1      25.693   0.922  53.610  1.00  0.00    -0.363 OA
HETATM    3  C3  UNL     1      26.552   1.110  52.547  1.00  0.00     0.148 C 
HETATM    4  C14 UNL     1      26.797  -0.212  51.877  1.00  0.00     0.071 C 
HETATM    5  C15 UNL     1      26.367  -1.183  52.965  1.00  0.00     0.160 C 
ENDROOT
BRANCH   3   6
HETATM    6  C4  UNL     1      25.943   2.108  51.626  1.00  0.00     0.007 C 
HETATM    7  C5  UNL     1      24.713   2.630  51.501  1.00  0.00     0.023 C 
BRANCH   7   8
HETATM    8  P1  UNL     1      24.357   3.884  50.182  1.00  0.00     0.024 P 
BRANCH   8   9
HETATM    9  C6  UNL     1      25.665   4.729  49.593  1.00  0.00    -0.103 C 
BRANCH   9  10
HETATM   10  C7  UNL     1      26.479   5.504  48.884  1.00  0.00     0.010 A 
HETATM   11  C8  UNL     1      25.797   6.718  48.458  1.00  0.00     0.020 A 
HETATM   12  C9  UNL     1      26.435   7.668  47.762  1.00  0.00     0.001 A 
HETATM   13  C10 UNL     1      27.836   7.709  47.311  1.00  0.00     0.000 A 
HETATM   14  C11 UNL     1      28.809   6.826  47.459  1.00  0.00     0.000 A 
HETATM   15  C12 UNL     1      28.795   5.511  48.131  1.00  0.00     0.001 A 
HETATM   16  C13 UNL     1      27.792   4.889  48.772  1.00  0.00     0.020 A 
ENDBRANCH   9  10
ENDBRANCH   8   9
ENDBRANCH   7   8
ENDBRANCH   3   6
BRANCH   1  17
HETATM   17  C1  UNL     1      24.898  -0.810  54.943  1.00  0.00     0.172 C 
HETATM   18  O1  UNL     1      23.790  -1.291  55.315  1.00  0.00    -0.648 OA
BRANCH  17  19
HETATM   19  O2  UNL     1      25.877  -0.679  55.942  1.00  0.00    -0.774 OA
HETATM   20  H1  UNL     1      25.642  -0.325  56.870  1.00  0.00     0.167 HD
ENDBRANCH  17  19
ENDBRANCH   1  17
BRANCH   5  21
HETATM   21  O4  UNL     1      27.444  -1.348  53.806  1.00  0.00    -0.392 OA
HETATM   22  H15 UNL     1      28.323  -1.426  53.366  1.00  0.00     0.210 HD
ENDBRANCH   5  21
TORSDOF 7
ENDMDL
MODEL 8
REMARK VINA RESULT:      -6.6      6.097      8.890
REMARK  7 active torsions:
REMARK  status: ('A' for Active; 'I' for Inactive)
REMARK    1  A    between atoms: C1_2  and  O2_3 
REMARK    2  A    between atoms: C1_2  and  C2_4 
REMARK    3  A    between atoms: C3_6  and  C4_7 
REMARK    4  A    between atoms: C5_8  and  P1_9 
REMARK    5  A    between atoms: P1_9  and  C6_10 
REMARK    6  A    between atoms: C6_10  and  C7_11 
REMARK    7  A    between atoms: C15_19  and  O4_20 
ROOT
HETATM    1  C2  UNL     1      27.123   8.118  49.332  1.00  0.00     0.248 C 
HETATM    2  O3  UNL     1      26.113   7.806  50.226  1.00  0.00    -0.363 OA
HETATM    3  C3  UNL     1      25.111   7.159  49.532  1.00  0.00     0.148 C 
HETATM    4  C14 UNL     1      25.419   7.218  48.063  1.00  0.00     0.071 C 
HETATM    5  C15 UNL     1      26.424   8.357  48.013  1.00  0.00     0.160 C 
ENDROOT
BRANCH   3   6
HETATM    6  C4  UNL     1      25.020   5.763  50.038  1.00  0.00     0.007 C 
HETATM    7  C5  UNL     1      25.792   4.673  49.905  1.00  0.00     0.023 C 
BRANCH   7   8
HETATM    8  P1  UNL     1      25.308   3.078  50.718  1.00  0.00     0.024 P 
BRANCH   8   9
HETATM    9  C6  UNL     1      26.455   2.367  51.694  1.00  0.00    -0.103 C 
BRANCH   9  10
HETATM   10  C7  UNL     1      27.179   1.518  52.415  1.00  0.00     0.010 A 
HETATM   11  C8  UNL     1      26.764   0.144  52.167  1.00  0.00     0.020 A 
HETATM   12  C9  UNL     1      27.382  -0.888  52.756  1.00  0.00     0.001 A 
HETATM   13  C10 UNL     1      28.514  -0.880  53.699  1.00  0.00     0.000 A 
HETATM   14  C11 UNL     1      29.194   0.132  54.211  1.00  0.00     0.000 A 
HETATM   15  C12 UNL     1      29.030   1.583  53.996  1.00  0.00     0.001 A 
HETATM   16  C13 UNL     1      28.157   2.240  53.214  1.00  0.00     0.020 A 
ENDBRANCH   9  10
ENDBRANCH   8   9
ENDBRANCH   7   8
ENDBRANCH   3   6
BRANCH   1  17
HETATM   17  C1  UNL     1      27.833   9.320  49.828  1.00  0.00     0.172 C 
HETATM   18  O1  UNL     1      28.591  10.062  49.141  1.00  0.00    -0.648 OA
BRANCH  17  19
HETATM   19  O2  UNL     1      27.668   9.689  51.174  1.00  0.00    -0.774 OA
HETATM   20  H1  UNL     1      27.496   8.990  51.897  1.00  0.00     0.167 HD
ENDBRANCH  17  19
ENDBRANCH   1  17
BRANCH   5  21
HETATM   21  O4  UNL     1      25.702   9.528  47.963  1.00  0.00    -0.392 OA
HETATM   22  H15 UNL     1      25.643  10.031  48.809  1.00  0.00     0.210 HD
ENDBRANCH   5  21
TORSDOF 7
ENDMDL
MODEL 9
REMARK VINA RESULT:      -6.5      3.628      4.716
REMARK  7 active torsions:
REMARK  status: ('A' for Active; 'I' for Inactive)
REMARK    1  A    between atoms: C1_2  and  O2_3 
REMARK    2  A    between atoms: C1_2  and  C2_4 
REMARK    3  A    between atoms: C3_6  and  C4_7 
REMARK    4  A    between atoms: C5_8  and  P1_9 
REMARK    5  A    between atoms: P1_9  and  C6_10 
REMARK    6  A    between atoms: C6_10  and  C7_11 
REMARK    7  A    between atoms: C15_19  and  O4_20 
ROOT
HETATM    1  C2  UNL     1      27.177  -0.081  52.883  1.00  0.00     0.248 C 
HETATM    2  O3  UNL     1      25.890  -0.090  52.374  1.00  0.00    -0.363 OA
HETATM    3  C3  UNL     1      25.223   1.007  52.878  1.00  0.00     0.148 C 
HETATM    4  C14 UNL     1      26.083   1.665  53.919  1.00  0.00     0.071 C 
HETATM    5  C15 UNL     1      27.057   0.547  54.252  1.00  0.00     0.160 C 
ENDROOT
BRANCH   3   6
HETATM    6  C4  UNL     1      24.903   1.920  51.747  1.00  0.00     0.007 C 
HETATM    7  C5  UNL     1      24.013   2.909  51.572  1.00  0.00     0.023 C 
BRANCH   7   8
HETATM    8  P1  UNL     1      23.935   3.825  49.961  1.00  0.00     0.024 P 
BRANCH   8   9
HETATM    9  C6  UNL     1      25.353   4.526  49.440  1.00  0.00    -0.103 C 
BRANCH   9  10
HETATM   10  C7  UNL     1      26.327   5.374  49.129  1.00  0.00     0.010 A 
HETATM   11  C8  UNL     1      27.527   4.657  48.722  1.00  0.00     0.020 A 
HETATM   12  C9  UNL     1      28.628   5.309  48.325  1.00  0.00     0.001 A 
HETATM   13  C10 UNL     1      28.862   6.759  48.216  1.00  0.00     0.000 A 
HETATM   14  C11 UNL     1      28.065   7.778  48.491  1.00  0.00     0.000 A 
HETATM   15  C12 UNL     1      26.678   7.780  48.997  1.00  0.00     0.001 A 
HETATM   16  C13 UNL     1      25.873   6.746  49.292  1.00  0.00     0.020 A 
ENDBRANCH   9  10
ENDBRANCH   8   9
ENDBRANCH   7   8
ENDBRANCH   3   6
BRANCH   1  17
HETATM   17  C1  UNL     1      27.669  -1.479  52.936  1.00  0.00     0.172 C 
HETATM   18  O1  UNL     1      28.691  -1.874  53.566  1.00  0.00    -0.648 OA
BRANCH  17  19
HETATM   19  O2  UNL     1      26.958  -2.468  52.236  1.00  0.00    -0.774 OA
HETATM   20  H1  UNL     1      27.441  -3.163  51.665  1.00  0.00     0.167 HD
ENDBRANCH  17  19
ENDBRANCH   1  17
BRANCH   5  21
HETATM   21  O4  UNL     1      26.445  -0.256  55.187  1.00  0.00    -0.392 OA
HETATM   22  H15 UNL     1      25.746  -0.860  54.842  1.00  0.00     0.210 HD
ENDBRANCH   5  21
TORSDOF 7
ENDMDL
