MODEL 1
REMARK VINA RESULT:      -9.1      0.000      0.000
REMARK  5 active torsions:
REMARK  status: ('A' for Active; 'I' for Inactive)
REMARK       I    between atoms: C1_2  and  N1_3 
REMARK    1  A    between atoms: C1_2  and  C15_18 
REMARK    2  A    between atoms: N1_3  and  C2_4 
REMARK    3  A    between atoms: C5_7  and  C6_8 
REMARK    4  A    between atoms: C6_8  and  O2_9 
REMARK    5  A    between atoms: C6_8  and  C7_10 
ROOT
HETATM    1  C2  UNL     1      26.243   2.370  51.696  1.00  0.00     0.035 A 
HETATM    2  C3  UNL     1      25.133   2.632  52.480  1.00  0.00     0.030 A 
HETATM    3  C4  UNL     1      24.532   1.551  53.094  1.00  0.00     0.012 A 
HETATM    4  C5  UNL     1      24.963   0.228  52.979  1.00  0.00    -0.025 A 
HETATM    5  C13 UNL     1      26.059   0.051  52.192  1.00  0.00     0.012 A 
HETATM    6  C14 UNL     1      26.712   1.086  51.546  1.00  0.00     0.030 A 
ENDROOT
BRANCH   1   7
HETATM    7  N1  UNL     1      26.868   3.500  51.056  1.00  0.00    -0.322 N 
HETATM    8  C1  UNL     1      26.327   3.908  49.807  1.00  0.00     0.273 C 
HETATM    9  O1  UNL     1      25.350   3.309  49.289  1.00  0.00    -0.266 OA
HETATM   10  H1  UNL     1      27.680   4.056  51.412  1.00  0.00     0.169 HD
BRANCH   8  11
HETATM   11  C15 UNL     1      26.873   5.033  49.071  1.00  0.00     0.113 A 
HETATM   12  C16 UNL     1      26.300   6.078  48.536  1.00  0.00     0.018 A 
HETATM   13  C17 UNL     1      27.095   6.917  47.933  1.00  0.00    -0.014 A 
HETATM   14  C18 UNL     1      26.747   8.180  47.240  1.00  0.00     0.069 A 
HETATM   15  C22 UNL     1      28.457   6.408  48.044  1.00  0.00     0.040 A 
HETATM   16  C19 UNL     1      27.948   8.840  46.687  1.00  0.00    -0.022 A 
HETATM   17  C20 UNL     1      29.172   8.349  46.805  1.00  0.00    -0.001 A 
HETATM   18  C21 UNL     1      29.453   7.094  47.504  1.00  0.00     0.030 A 
HETATM   19  N2  UNL     1      28.269   5.188  48.787  1.00  0.00    -0.351 N 
HETATM   20  H18 UNL     1      29.092   4.562  49.041  1.00  0.00     0.166 HD
ENDBRANCH   8  11
ENDBRANCH   1   7
BRANCH   4  21
HETATM   21  C6  UNL     1      24.251  -0.855  53.676  1.00  0.00     0.184 C 
BRANCH  21  22
HETATM   22  O2  UNL     1      24.615  -0.820  55.021  1.00  0.00    -0.386 OA
HETATM   23  H5  UNL     1      23.794  -0.783  55.581  1.00  0.00     0.210 HD
ENDBRANCH  21  22
BRANCH  21  24
HETATM   24  C7  UNL     1      22.776  -0.739  53.609  1.00  0.00    -0.025 A 
HETATM   25  C8  UNL     1      21.915  -1.119  54.635  1.00  0.00     0.010 A 
HETATM   26  C9  UNL     1      20.552  -0.969  54.472  1.00  0.00     0.001 A 
HETATM   27  C10 UNL     1      20.005  -0.451  53.314  1.00  0.00     0.000 A 
HETATM   28  C11 UNL     1      20.851  -0.072  52.292  1.00  0.00     0.001 A 
HETATM   29  C12 UNL     1      22.224  -0.221  52.454  1.00  0.00     0.010 A 
ENDBRANCH  21  24
ENDBRANCH   4  21
TORSDOF 5
ENDMDL
MODEL 2
REMARK VINA RESULT:      -8.9      1.847      2.992
REMARK  5 active torsions:
REMARK  status: ('A' for Active; 'I' for Inactive)
REMARK       I    between atoms: C1_2  and  N1_3 
REMARK    1  A    between atoms: C1_2  and  C15_18 
REMARK    2  A    between atoms: N1_3  and  C2_4 
REMARK    3  A    between atoms: C5_7  and  C6_8 
REMARK    4  A    between atoms: C6_8  and  O2_9 
REMARK    5  A    between atoms: C6_8  and  C7_10 
ROOT
HETATM    1  C2  UNL     1      23.891   2.594  51.981  1.00  0.00     0.035 A 
HETATM    2  C3  UNL     1      24.251   1.274  52.192  1.00  0.00     0.030 A 
HETATM    3  C4  UNL     1      23.276   0.432  52.688  1.00  0.00     0.012 A 
HETATM    4  C5  UNL     1      21.967   0.817  52.988  1.00  0.00    -0.025 A 
HETATM    5  C13 UNL     1      21.690   2.129  52.753  1.00  0.00     0.012 A 
HETATM    6  C14 UNL     1      22.617   3.029  52.258  1.00  0.00     0.030 A 
ENDROOT
BRANCH   1   7
HETATM    7  N1  UNL     1      24.911   3.471  51.463  1.00  0.00    -0.322 N 
HETATM    8  C1  UNL     1      24.934   3.665  50.056  1.00  0.00     0.273 C 
HETATM    9  O1  UNL     1      24.102   3.098  49.302  1.00  0.00    -0.266 OA
HETATM   10  H1  UNL     1      25.641   3.982  52.012  1.00  0.00     0.169 HD
BRANCH   8  11
HETATM   11  C15 UNL     1      25.914   4.526  49.420  1.00  0.00     0.113 A 
HETATM   12  C16 UNL     1      27.173   4.338  49.130  1.00  0.00     0.018 A 
HETATM   13  C17 UNL     1      27.778   5.334  48.548  1.00  0.00    -0.014 A 
HETATM   14  C18 UNL     1      29.189   5.422  48.101  1.00  0.00     0.069 A 
HETATM   15  C22 UNL     1      26.814   6.417  48.387  1.00  0.00     0.040 A 
HETATM   16  C19 UNL     1      29.479   6.732  47.482  1.00  0.00    -0.022 A 
HETATM   17  C20 UNL     1      28.578   7.695  47.353  1.00  0.00    -0.001 A 
HETATM   18  C21 UNL     1      27.197   7.548  47.815  1.00  0.00     0.030 A 
HETATM   19  N2  UNL     1      25.621   5.853  48.965  1.00  0.00    -0.351 N 
HETATM   20  H18 UNL     1      24.711   6.404  49.005  1.00  0.00     0.166 HD
ENDBRANCH   8  11
ENDBRANCH   1   7
BRANCH   4  21
HETATM   21  C6  UNL     1      21.001  -0.161  53.513  1.00  0.00     0.184 C 
BRANCH  21  22
HETATM   22  O2  UNL     1      20.663   0.217  54.812  1.00  0.00    -0.386 OA
HETATM   23  H5  UNL     1      21.477   0.546  55.278  1.00  0.00     0.210 HD
ENDBRANCH  21  22
BRANCH  21  24
HETATM   24  C7  UNL     1      19.748  -0.243  52.730  1.00  0.00    -0.025 A 
HETATM   25  C8  UNL     1      19.579   0.315  51.465  1.00  0.00     0.010 A 
HETATM   26  C9  UNL     1      18.367   0.182  50.817  1.00  0.00     0.001 A 
HETATM   27  C10 UNL     1      17.303  -0.494  51.384  1.00  0.00     0.000 A 
HETATM   28  C11 UNL     1      17.462  -1.050  52.636  1.00  0.00     0.001 A 
HETATM   29  C12 UNL     1      18.681  -0.917  53.291  1.00  0.00     0.010 A 
ENDBRANCH  21  24
ENDBRANCH   4  21
TORSDOF 5
ENDMDL
MODEL 3
REMARK VINA RESULT:      -8.7      2.184      9.997
REMARK  5 active torsions:
REMARK  status: ('A' for Active; 'I' for Inactive)
REMARK       I    between atoms: C1_2  and  N1_3 
REMARK    1  A    between atoms: C1_2  and  C15_18 
REMARK    2  A    between atoms: N1_3  and  C2_4 
REMARK    3  A    between atoms: C5_7  and  C6_8 
REMARK    4  A    between atoms: C6_8  and  O2_9 
REMARK    5  A    between atoms: C6_8  and  C7_10 
ROOT
HETATM    1  C2  UNL     1      25.686   4.364  50.339  1.00  0.00     0.035 A 
HETATM    2  C3  UNL     1      26.759   3.848  49.633  1.00  0.00     0.030 A 
HETATM    3  C4  UNL     1      27.409   4.708  48.770  1.00  0.00     0.012 A 
HETATM    4  C5  UNL     1      27.063   6.045  48.564  1.00  0.00    -0.025 A 
HETATM    5  C13 UNL     1      25.998   6.477  49.294  1.00  0.00     0.012 A 
HETATM    6  C14 UNL     1      25.299   5.673  50.176  1.00  0.00     0.030 A 
ENDROOT
BRANCH   1   7
HETATM    7  N1  UNL     1      25.008   3.464  51.239  1.00  0.00    -0.322 N 
HETATM    8  C1  UNL     1      23.934   2.706  50.699  1.00  0.00     0.273 C 
HETATM    9  O1  UNL     1      23.596   2.818  49.493  1.00  0.00    -0.266 OA
HETATM   10  H1  UNL     1      25.220   3.308  52.252  1.00  0.00     0.169 HD
BRANCH   8  11
HETATM   11  C15 UNL     1      23.179   1.769  51.508  1.00  0.00     0.113 A 
HETATM   12  C16 UNL     1      23.550   0.938  52.445  1.00  0.00     0.018 A 
HETATM   13  C17 UNL     1      22.602   0.225  52.982  1.00  0.00    -0.014 A 
HETATM   14  C18 UNL     1      22.708  -0.792  54.055  1.00  0.00     0.069 A 
HETATM   15  C22 UNL     1      21.343   0.590  52.341  1.00  0.00     0.040 A 
HETATM   16  C19 UNL     1      21.390  -1.374  54.380  1.00  0.00    -0.022 A 
HETATM   17  C20 UNL     1      20.265  -1.020  53.776  1.00  0.00    -0.001 A 
HETATM   18  C21 UNL     1      20.224  -0.006  52.721  1.00  0.00     0.030 A 
HETATM   19  N2  UNL     1      21.761   1.592  51.393  1.00  0.00    -0.351 N 
HETATM   20  H18 UNL     1      21.062   2.072  50.750  1.00  0.00     0.166 HD
ENDBRANCH   8  11
ENDBRANCH   1   7
BRANCH   4  21
HETATM   21  C6  UNL     1      27.823   6.878  47.619  1.00  0.00     0.184 C 
BRANCH  21  22
HETATM   22  O2  UNL     1      27.010   7.938  47.222  1.00  0.00    -0.386 OA
HETATM   23  H5  UNL     1      26.356   8.135  47.944  1.00  0.00     0.210 HD
ENDBRANCH  21  22
BRANCH  21  24
HETATM   24  C7  UNL     1      29.060   7.454  48.193  1.00  0.00    -0.025 A 
HETATM   25  C8  UNL     1      30.300   6.820  48.172  1.00  0.00     0.010 A 
HETATM   26  C9  UNL     1      31.396   7.445  48.736  1.00  0.00     0.001 A 
HETATM   27  C10 UNL     1      31.304   8.690  49.327  1.00  0.00     0.000 A 
HETATM   28  C11 UNL     1      30.080   9.325  49.353  1.00  0.00     0.001 A 
HETATM   29  C12 UNL     1      28.976   8.699  48.785  1.00  0.00     0.010 A 
ENDBRANCH  21  24
ENDBRANCH   4  21
TORSDOF 5
ENDMDL
MODEL 4
REMARK VINA RESULT:      -8.6      2.125      9.945
REMARK  5 active torsions:
REMARK  status: ('A' for Active; 'I' for Inactive)
REMARK       I    between atoms: C1_2  and  N1_3 
REMARK    1  A    between atoms: C1_2  and  C15_18 
REMARK    2  A    between atoms: N1_3  and  C2_4 
REMARK    3  A    between atoms: C5_7  and  C6_8 
REMARK    4  A    between atoms: C6_8  and  O2_9 
REMARK    5  A    between atoms: C6_8  and  C7_10 
ROOT
HETATM    1  C2  UNL     1      26.082   4.742  49.632  1.00  0.00     0.035 A 
HETATM    2  C3  UNL     1      25.761   6.085  49.535  1.00  0.00     0.030 A 
HETATM    3  C4  UNL     1      26.639   6.888  48.835  1.00  0.00     0.012 A 
HETATM    4  C5  UNL     1      27.815   6.444  48.226  1.00  0.00    -0.025 A 
HETATM    5  C13 UNL     1      28.061   5.113  48.366  1.00  0.00     0.012 A 
HETATM    6  C14 UNL     1      27.227   4.248  49.053  1.00  0.00     0.030 A 
ENDROOT
BRANCH   1   7
HETATM    7  N1  UNL     1      25.164   3.905  50.363  1.00  0.00    -0.322 N 
HETATM    8  C1  UNL     1      25.734   2.905  51.196  1.00  0.00     0.273 C 
HETATM    9  O1  UNL     1      26.980   2.761  51.289  1.00  0.00    -0.266 OA
HETATM   10  H1  UNL     1      24.119   3.953  50.347  1.00  0.00     0.169 HD
BRANCH   8  11
HETATM   11  C15 UNL     1      24.910   2.005  51.980  1.00  0.00     0.113 A 
HETATM   12  C16 UNL     1      23.616   1.935  52.143  1.00  0.00     0.018 A 
HETATM   13  C17 UNL     1      23.191   0.988  52.930  1.00  0.00    -0.014 A 
HETATM   14  C18 UNL     1      21.796   0.659  53.307  1.00  0.00     0.069 A 
HETATM   15  C22 UNL     1      24.351   0.250  53.417  1.00  0.00     0.040 A 
HETATM   16  C19 UNL     1      21.743  -0.496  54.227  1.00  0.00    -0.022 A 
HETATM   17  C20 UNL     1      22.819  -1.143  54.651  1.00  0.00    -0.001 A 
HETATM   18  C21 UNL     1      24.173  -0.770  54.242  1.00  0.00     0.030 A 
HETATM   19  N2  UNL     1      25.443   0.941  52.779  1.00  0.00    -0.351 N 
HETATM   20  H18 UNL     1      26.453   0.641  52.932  1.00  0.00     0.166 HD
ENDBRANCH   8  11
ENDBRANCH   1   7
BRANCH   4  21
HETATM   21  C6  UNL     1      28.685   7.384  47.502  1.00  0.00     0.184 C 
BRANCH  21  22
HETATM   22  O2  UNL     1      28.242   8.679  47.769  1.00  0.00    -0.386 OA
HETATM   23  H5  UNL     1      28.024   9.132  46.912  1.00  0.00     0.210 HD
ENDBRANCH  21  22
BRANCH  21  24
HETATM   24  C7  UNL     1      30.109   7.307  47.899  1.00  0.00    -0.025 A 
HETATM   25  C8  UNL     1      31.071   6.567  47.217  1.00  0.00     0.010 A 
HETATM   26  C9  UNL     1      32.376   6.561  47.670  1.00  0.00     0.001 A 
HETATM   27  C10 UNL     1      32.765   7.272  48.789  1.00  0.00     0.000 A 
HETATM   28  C11 UNL     1      31.819   8.008  49.471  1.00  0.00     0.001 A 
HETATM   29  C12 UNL     1      30.505   8.016  49.016  1.00  0.00     0.010 A 
ENDBRANCH  21  24
ENDBRANCH   4  21
TORSDOF 5
ENDMDL
MODEL 5
REMARK VINA RESULT:      -8.5      1.998      2.836
REMARK  5 active torsions:
REMARK  status: ('A' for Active; 'I' for Inactive)
REMARK       I    between atoms: C1_2  and  N1_3 
REMARK    1  A    between atoms: C1_2  and  C15_18 
REMARK    2  A    between atoms: N1_3  and  C2_4 
REMARK    3  A    between atoms: C5_7  and  C6_8 
REMARK    4  A    between atoms: C6_8  and  O2_9 
REMARK    5  A    between atoms: C6_8  and  C7_10 
ROOT
HETATM    1  C2  UNL     1      23.898   4.034  50.046  1.00  0.00     0.035 A 
HETATM    2  C3  UNL     1      23.474   2.935  49.319  1.00  0.00     0.030 A 
HETATM    3  C4  UNL     1      22.654   2.034  49.968  1.00  0.00     0.012 A 
HETATM    4  C5  UNL     1      22.228   2.154  51.293  1.00  0.00    -0.025 A 
HETATM    5  C13 UNL     1      22.687   3.259  51.941  1.00  0.00     0.012 A 
HETATM    6  C14 UNL     1      23.511   4.203  51.354  1.00  0.00     0.030 A 
ENDROOT
BRANCH   1   7
HETATM    7  N1  UNL     1      24.754   4.973  49.366  1.00  0.00    -0.322 N 
HETATM    8  C1  UNL     1      26.151   4.711  49.406  1.00  0.00     0.273 C 
HETATM    9  O1  UNL     1      26.612   3.707  50.006  1.00  0.00    -0.266 OA
HETATM   10  H1  UNL     1      24.460   5.830  48.844  1.00  0.00     0.169 HD
BRANCH   8  11
HETATM   11  C15 UNL     1      27.109   5.585  48.757  1.00  0.00     0.113 A 
HETATM   12  C16 UNL     1      26.954   6.691  48.080  1.00  0.00     0.018 A 
HETATM   13  C17 UNL     1      28.045   7.237  47.623  1.00  0.00    -0.014 A 
HETATM   14  C18 UNL     1      28.190   8.480  46.829  1.00  0.00     0.069 A 
HETATM   15  C22 UNL     1      29.172   6.404  48.027  1.00  0.00     0.040 A 
HETATM   16  C19 UNL     1      29.607   8.754  46.509  1.00  0.00    -0.022 A 
HETATM   17  C20 UNL     1      30.607   7.974  46.892  1.00  0.00    -0.001 A 
HETATM   18  C21 UNL     1      30.399   6.757  47.677  1.00  0.00     0.030 A 
HETATM   19  N2  UNL     1      28.523   5.345  48.759  1.00  0.00    -0.351 N 
HETATM   20  H18 UNL     1      29.081   4.552  49.197  1.00  0.00     0.166 HD
ENDBRANCH   8  11
ENDBRANCH   1   7
BRANCH   4  21
HETATM   21  C6  UNL     1      21.352   1.135  51.892  1.00  0.00     0.184 C 
BRANCH  21  22
HETATM   22  O2  UNL     1      20.966   0.249  50.889  1.00  0.00    -0.386 OA
HETATM   23  H5  UNL     1      21.609   0.311  50.133  1.00  0.00     0.210 HD
ENDBRANCH  21  22
BRANCH  21  24
HETATM   24  C7  UNL     1      22.001   0.345  52.963  1.00  0.00    -0.025 A 
HETATM   25  C8  UNL     1      23.365   0.066  53.011  1.00  0.00     0.010 A 
HETATM   26  C9  UNL     1      23.872  -0.682  54.056  1.00  0.00     0.001 A 
HETATM   27  C10 UNL     1      23.065  -1.169  55.066  1.00  0.00     0.000 A 
HETATM   28  C11 UNL     1      21.714  -0.898  55.026  1.00  0.00     0.001 A 
HETATM   29  C12 UNL     1      21.201  -0.145  53.976  1.00  0.00     0.010 A 
ENDBRANCH  21  24
ENDBRANCH   4  21
TORSDOF 5
ENDMDL
MODEL 6
REMARK VINA RESULT:      -8.4      4.958      9.503
REMARK  5 active torsions:
REMARK  status: ('A' for Active; 'I' for Inactive)
REMARK       I    between atoms: C1_2  and  N1_3 
REMARK    1  A    between atoms: C1_2  and  C15_18 
REMARK    2  A    between atoms: N1_3  and  C2_4 
REMARK    3  A    between atoms: C5_7  and  C6_8 
REMARK    4  A    between atoms: C6_8  and  O2_9 
REMARK    5  A    between atoms: C6_8  and  C7_10 
ROOT
HETATM    1  C2  UNL     1      22.692   0.584  52.001  1.00  0.00     0.035 A 
HETATM    2  C3  UNL     1      23.310   1.492  51.158  1.00  0.00     0.030 A 
HETATM    3  C4  UNL     1      24.590   1.885  51.493  1.00  0.00     0.012 A 
HETATM    4  C5  UNL     1      25.296   1.435  52.611  1.00  0.00    -0.025 A 
HETATM    5  C13 UNL     1      24.623   0.545  53.390  1.00  0.00     0.012 A 
HETATM    6  C14 UNL     1      23.339   0.107  53.116  1.00  0.00     0.030 A 
ENDROOT
BRANCH   1   7
HETATM    7  N1  UNL     1      21.356   0.175  51.649  1.00  0.00    -0.322 N 
HETATM    8  C1  UNL     1      20.292   0.761  52.387  1.00  0.00     0.273 C 
HETATM    9  O1  UNL     1      20.511   1.596  53.302  1.00  0.00    -0.266 OA
HETATM   10  H1  UNL     1      21.081  -0.509  50.907  1.00  0.00     0.169 HD
BRANCH   8  11
HETATM   11  C15 UNL     1      18.905   0.428  52.122  1.00  0.00     0.113 A 
HETATM   12  C16 UNL     1      18.199  -0.633  52.410  1.00  0.00     0.018 A 
HETATM   13  C17 UNL     1      16.956  -0.612  52.021  1.00  0.00    -0.014 A 
HETATM   14  C18 UNL     1      15.917  -1.653  52.198  1.00  0.00     0.069 A 
HETATM   15  C22 UNL     1      16.714   0.659  51.345  1.00  0.00     0.040 A 
HETATM   16  C19 UNL     1      14.628  -1.236  51.608  1.00  0.00    -0.022 A 
HETATM   17  C20 UNL     1      14.444  -0.074  51.000  1.00  0.00    -0.001 A 
HETATM   18  C21 UNL     1      15.512   0.916  50.856  1.00  0.00     0.030 A 
HETATM   19  N2  UNL     1      18.002   1.301  51.433  1.00  0.00    -0.351 N 
HETATM   20  H18 UNL     1      18.166   2.270  51.023  1.00  0.00     0.166 HD
ENDBRANCH   8  11
ENDBRANCH   1   7
BRANCH   4  21
HETATM   21  C6  UNL     1      26.660   1.918  52.879  1.00  0.00     0.184 C 
BRANCH  21  22
HETATM   22  O2  UNL     1      26.631   2.677  54.047  1.00  0.00    -0.386 OA
HETATM   23  H5  UNL     1      25.741   2.575  54.480  1.00  0.00     0.210 HD
ENDBRANCH  21  22
BRANCH  21  24
HETATM   24  C7  UNL     1      27.649   0.834  53.073  1.00  0.00    -0.025 A 
HETATM   25  C8  UNL     1      28.937   1.030  53.564  1.00  0.00     0.010 A 
HETATM   26  C9  UNL     1      29.785  -0.051  53.708  1.00  0.00     0.001 A 
HETATM   27  C10 UNL     1      29.396  -1.335  53.379  1.00  0.00     0.000 A 
HETATM   28  C11 UNL     1      28.122  -1.539  52.892  1.00  0.00     0.001 A 
HETATM   29  C12 UNL     1      27.266  -0.452  52.747  1.00  0.00     0.010 A 
ENDBRANCH  21  24
ENDBRANCH   4  21
TORSDOF 5
ENDMDL
MODEL 7
REMARK VINA RESULT:      -8.4      5.459      9.598
REMARK  5 active torsions:
REMARK  status: ('A' for Active; 'I' for Inactive)
REMARK       I    between atoms: C1_2  and  N1_3 
REMARK    1  A    between atoms: C1_2  and  C15_18 
REMARK    2  A    between atoms: N1_3  and  C2_4 
REMARK    3  A    between atoms: C5_7  and  C6_8 
REMARK    4  A    between atoms: C6_8  and  O2_9 
REMARK    5  A    between atoms: C6_8  and  C7_10 
ROOT
HETATM    1  C2  UNL     1      22.673  -0.031  52.513  1.00  0.00     0.035 A 
HETATM    2  C3  UNL     1      23.202  -0.713  53.595  1.00  0.00     0.030 A 
HETATM    3  C4  UNL     1      24.475  -0.360  53.995  1.00  0.00     0.012 A 
HETATM    4  C5  UNL     1      25.256   0.626  53.389  1.00  0.00    -0.025 A 
HETATM    5  C13 UNL     1      24.668   1.251  52.333  1.00  0.00     0.012 A 
HETATM    6  C14 UNL     1      23.397   0.950  51.877  1.00  0.00     0.030 A 
ENDROOT
BRANCH   1   7
HETATM    7  N1  UNL     1      21.343  -0.401  52.097  1.00  0.00    -0.322 N 
HETATM    8  C1  UNL     1      20.268   0.339  52.659  1.00  0.00     0.273 C 
HETATM    9  O1  UNL     1      20.471   1.272  53.478  1.00  0.00    -0.266 OA
HETATM   10  H1  UNL     1      21.081  -1.159  51.425  1.00  0.00     0.169 HD
BRANCH   8  11
HETATM   11  C15 UNL     1      18.887   0.058  52.315  1.00  0.00     0.113 A 
HETATM   12  C16 UNL     1      18.082   0.605  51.445  1.00  0.00     0.018 A 
HETATM   13  C17 UNL     1      16.880   0.104  51.386  1.00  0.00    -0.014 A 
HETATM   14  C18 UNL     1      15.755   0.508  50.510  1.00  0.00     0.069 A 
HETATM   15  C22 UNL     1      16.792  -0.975  52.363  1.00  0.00     0.040 A 
HETATM   16  C19 UNL     1      14.555  -0.318  50.758  1.00  0.00    -0.022 A 
HETATM   17  C20 UNL     1      14.510  -1.291  51.655  1.00  0.00    -0.001 A 
HETATM   18  C21 UNL     1      15.657  -1.644  52.492  1.00  0.00     0.030 A 
HETATM   19  N2  UNL     1      18.112  -0.972  52.943  1.00  0.00    -0.351 N 
HETATM   20  H18 UNL     1      18.382  -1.660  53.709  1.00  0.00     0.166 HD
ENDBRANCH   8  11
ENDBRANCH   1   7
BRANCH   4  21
HETATM   21  C6  UNL     1      26.606   0.926  53.894  1.00  0.00     0.184 C 
BRANCH  21  22
HETATM   22  O2  UNL     1      26.524   1.104  55.274  1.00  0.00    -0.386 OA
HETATM   23  H5  UNL     1      26.885   0.296  55.728  1.00  0.00     0.210 HD
ENDBRANCH  21  22
BRANCH  21  24
HETATM   24  C7  UNL     1      27.592  -0.148  53.638  1.00  0.00    -0.025 A 
HETATM   25  C8  UNL     1      27.287  -1.356  53.015  1.00  0.00     0.010 A 
HETATM   26  C9  UNL     1      28.283  -2.294  52.823  1.00  0.00     0.001 A 
HETATM   27  C10 UNL     1      29.584  -2.074  53.230  1.00  0.00     0.000 A 
HETATM   28  C11 UNL     1      29.895  -0.881  53.848  1.00  0.00     0.001 A 
HETATM   29  C12 UNL     1      28.895   0.066  54.042  1.00  0.00     0.010 A 
ENDBRANCH  21  24
ENDBRANCH   4  21
TORSDOF 5
ENDMDL
MODEL 8
REMARK VINA RESULT:      -8.2      2.807      4.033
REMARK  5 active torsions:
REMARK  status: ('A' for Active; 'I' for Inactive)
REMARK       I    between atoms: C1_2  and  N1_3 
REMARK    1  A    between atoms: C1_2  and  C15_18 
REMARK    2  A    between atoms: N1_3  and  C2_4 
REMARK    3  A    between atoms: C5_7  and  C6_8 
REMARK    4  A    between atoms: C6_8  and  O2_9 
REMARK    5  A    between atoms: C6_8  and  C7_10 
ROOT
HETATM    1  C2  UNL     1      25.429   5.509  50.082  1.00  0.00     0.035 A 
HETATM    2  C3  UNL     1      24.277   5.688  50.827  1.00  0.00     0.030 A 
HETATM    3  C4  UNL     1      23.336   4.679  50.774  1.00  0.00     0.012 A 
HETATM    4  C5  UNL     1      23.466   3.505  50.030  1.00  0.00    -0.025 A 
HETATM    5  C13 UNL     1      24.626   3.403  49.324  1.00  0.00     0.012 A 
HETATM    6  C14 UNL     1      25.612   4.373  49.329  1.00  0.00     0.030 A 
ENDROOT
BRANCH   1   7
HETATM    7  N1  UNL     1      26.410   6.564  50.138  1.00  0.00    -0.322 N 
HETATM    8  C1  UNL     1      26.327   7.570  49.138  1.00  0.00     0.273 C 
HETATM    9  O1  UNL     1      25.438   7.537  48.248  1.00  0.00    -0.266 OA
HETATM   10  H1  UNL     1      27.181   6.671  50.838  1.00  0.00     0.169 HD
BRANCH   8  11
HETATM   11  C15 UNL     1      27.258   8.681  49.094  1.00  0.00     0.113 A 
HETATM   12  C16 UNL     1      27.081   9.950  48.841  1.00  0.00     0.018 A 
HETATM   13  C17 UNL     1      28.150  10.694  48.885  1.00  0.00    -0.014 A 
HETATM   14  C18 UNL     1      28.269  12.152  48.648  1.00  0.00     0.069 A 
HETATM   15  C22 UNL     1      29.283   9.838  49.221  1.00  0.00     0.040 A 
HETATM   16  C19 UNL     1      29.666  12.611  48.795  1.00  0.00    -0.022 A 
HETATM   17  C20 UNL     1      30.672  11.805  49.101  1.00  0.00    -0.001 A 
HETATM   18  C21 UNL     1      30.491  10.370  49.325  1.00  0.00     0.030 A 
HETATM   19  N2  UNL     1      28.662   8.544  49.348  1.00  0.00    -0.351 N 
HETATM   20  H18 UNL     1      29.231   7.678  49.593  1.00  0.00     0.166 HD
ENDBRANCH   8  11
ENDBRANCH   1   7
BRANCH   4  21
HETATM   21  C6  UNL     1      22.402   2.489  50.042  1.00  0.00     0.184 C 
BRANCH  21  22
HETATM   22  O2  UNL     1      22.438   1.806  48.827  1.00  0.00    -0.386 OA
HETATM   23  H5  UNL     1      22.012   2.366  48.125  1.00  0.00     0.210 HD
ENDBRANCH  21  22
BRANCH  21  24
HETATM   24  C7  UNL     1      22.545   1.488  51.123  1.00  0.00    -0.025 A 
HETATM   25  C8  UNL     1      23.668   1.372  51.938  1.00  0.00     0.010 A 
HETATM   26  C9  UNL     1      23.701   0.402  52.920  1.00  0.00     0.001 A 
HETATM   27  C10 UNL     1      22.648  -0.468  53.126  1.00  0.00     0.000 A 
HETATM   28  C11 UNL     1      21.531  -0.361  52.324  1.00  0.00     0.001 A 
HETATM   29  C12 UNL     1      21.495   0.615  51.335  1.00  0.00     0.010 A 
ENDBRANCH  21  24
ENDBRANCH   4  21
TORSDOF 5
ENDMDL
MODEL 9
REMARK VINA RESULT:      -8.0      4.497      8.461
REMARK  5 active torsions:
REMARK  status: ('A' for Active; 'I' for Inactive)
REMARK       I    between atoms: C1_2  and  N1_3 
REMARK    1  A    between atoms: C1_2  and  C15_18 
REMARK    2  A    between atoms: N1_3  and  C2_4 
REMARK    3  A    between atoms: C5_7  and  C6_8 
REMARK    4  A    between atoms: C6_8  and  O2_9 
REMARK    5  A    between atoms: C6_8  and  C7_10 
ROOT
HETATM    1  C2  UNL     1      23.640   4.785  50.740  1.00  0.00     0.035 A 
HETATM    2  C3  UNL     1      23.469   4.789  49.366  1.00  0.00     0.030 A 
HETATM    3  C4  UNL     1      22.355   5.440  48.876  1.00  0.00     0.012 A 
HETATM    4  C5  UNL     1      21.400   6.088  49.662  1.00  0.00    -0.025 A 
HETATM    5  C13 UNL     1      21.637   6.041  51.002  1.00  0.00     0.012 A 
HETATM    6  C14 UNL     1      22.731   5.407  51.563  1.00  0.00     0.030 A 
ENDROOT
BRANCH   1   7
HETATM    7  N1  UNL     1      24.804   4.104  51.249  1.00  0.00    -0.322 N 
HETATM    8  C1  UNL     1      24.673   2.711  51.496  1.00  0.00     0.273 C 
HETATM    9  O1  UNL     1      23.592   2.106  51.280  1.00  0.00    -0.266 OA
HETATM   10  H1  UNL     1      25.739   4.525  51.457  1.00  0.00     0.169 HD
BRANCH   8  11
HETATM   11  C15 UNL     1      25.776   1.921  52.008  1.00  0.00     0.113 A 
HETATM   12  C16 UNL     1      25.957   0.629  52.080  1.00  0.00     0.018 A 
HETATM   13  C17 UNL     1      27.083   0.240  52.606  1.00  0.00    -0.014 A 
HETATM   14  C18 UNL     1      27.570  -1.144  52.822  1.00  0.00     0.069 A 
HETATM   15  C22 UNL     1      27.845   1.428  52.975  1.00  0.00     0.040 A 
HETATM   16  C19 UNL     1      28.908  -1.153  53.450  1.00  0.00    -0.022 A 
HETATM   17  C20 UNL     1      29.572  -0.053  53.773  1.00  0.00    -0.001 A 
HETATM   18  C21 UNL     1      29.037   1.288  53.533  1.00  0.00     0.030 A 
HETATM   19  N2  UNL     1      26.964   2.494  52.571  1.00  0.00    -0.351 N 
HETATM   20  H18 UNL     1      27.232   3.515  52.706  1.00  0.00     0.166 HD
ENDBRANCH   8  11
ENDBRANCH   1   7
BRANCH   4  21
HETATM   21  C6  UNL     1      20.245   6.755  49.040  1.00  0.00     0.184 C 
BRANCH  21  22
HETATM   22  O2  UNL     1      19.093   6.342  49.707  1.00  0.00    -0.386 OA
HETATM   23  H5  UNL     1      19.104   5.352  49.794  1.00  0.00     0.210 HD
ENDBRANCH  21  22
BRANCH  21  24
HETATM   24  C7  UNL     1      20.299   8.232  49.111  1.00  0.00    -0.025 A 
HETATM   25  C8  UNL     1      19.348   9.019  49.754  1.00  0.00     0.010 A 
HETATM   26  C9  UNL     1      19.491  10.393  49.763  1.00  0.00     0.001 A 
HETATM   27  C10 UNL     1      20.557  11.022  49.149  1.00  0.00     0.000 A 
HETATM   28  C11 UNL     1      21.505  10.250  48.510  1.00  0.00     0.001 A 
HETATM   29  C12 UNL     1      21.363   8.867  48.500  1.00  0.00     0.010 A 
ENDBRANCH  21  24
ENDBRANCH   4  21
TORSDOF 5
ENDMDL
