MODEL 1
REMARK VINA RESULT:      -7.8      0.000      0.000
REMARK  4 active torsions:
REMARK  status: ('A' for Active; 'I' for Inactive)
REMARK    1  A    between atoms: N1_1  and  C1_2 
REMARK    2  A    between atoms: N2_3  and  C2_4 
REMARK    3  A    between atoms: N3_5  and  C3_6 
REMARK    4  A    between atoms: C14_18  and  C15_19 
ROOT
HETATM    1  C3  UNL     1      25.060   2.057  51.772  1.00  0.00     0.154 C 
HETATM    2  C4  UNL     1      23.636   2.387  51.863  1.00  0.00     0.016 A 
HETATM    3  C5  UNL     1      23.315   3.222  52.728  1.00  0.00     0.020 A 
HETATM    4  C6  UNL     1      22.545   2.104  52.099  1.00  0.00    -0.001 A 
HETATM    5  C7  UNL     1      23.160   1.345  51.129  1.00  0.00    -0.029 A 
HETATM    6  C8  UNL     1      21.289   1.478  52.579  1.00  0.00    -0.003 A 
HETATM    7  C9  UNL     1      20.906   0.373  53.362  1.00  0.00     0.027 A 
HETATM    8  C10 UNL     1      21.333  -0.681  54.190  1.00  0.00    -0.022 A 
HETATM    9  C11 UNL     1      22.682  -0.866  54.470  1.00  0.00     0.002 A 
HETATM   10  C12 UNL     1      23.503   0.099  53.842  1.00  0.00     0.066 A 
HETATM   11  C13 UNL     1      22.446   0.817  53.196  1.00  0.00     0.124 A 
HETATM   12  O1  UNL     1      24.879   0.498  53.682  1.00  0.00    -0.371 OA
HETATM   13  C14 UNL     1      25.344   0.659  52.331  1.00  0.00     0.177 C 
ENDROOT
BRANCH   1  14
HETATM   14  N3  UNL     1      25.508   2.145  50.430  1.00  0.00    -0.274 NA
HETATM   15  C2  UNL     1      25.855   3.286  49.937  1.00  0.00     0.228 C 
BRANCH  15  16
HETATM   16  N2  UNL     1      26.050   4.709  50.062  1.00  0.00    -0.238 NA
HETATM   17  C1  UNL     1      26.761   5.241  49.098  1.00  0.00     0.201 C 
BRANCH  17  18
HETATM   18  N1  UNL     1      26.806   6.619  49.447  1.00  0.00    -0.394 N 
HETATM   19  H1  UNL     1      26.546   6.775  50.440  1.00  0.00     0.156 HD
HETATM   20  H2  UNL     1      27.086   7.329  48.707  1.00  0.00     0.156 HD
ENDBRANCH  17  18
ENDBRANCH  15  16
ENDBRANCH   1  14
BRANCH  13  21
HETATM   21  C15 UNL     1      26.777   0.310  52.184  1.00  0.00     0.152 C 
HETATM   22  C16 UNL     1      27.047  -1.069  52.685  1.00  0.00     0.036 C 
HETATM   23  C17 UNL     1      28.456  -0.928  53.242  1.00  0.00     0.029 C 
HETATM   24  C18 UNL     1      28.643   0.543  53.423  1.00  0.00     0.168 C 
HETATM   25  O2  UNL     1      27.490   1.174  53.032  1.00  0.00    -0.383 OA
ENDBRANCH  13  21
TORSDOF 4
ENDMDL
MODEL 2
REMARK VINA RESULT:      -7.7      2.378      4.642
REMARK  4 active torsions:
REMARK  status: ('A' for Active; 'I' for Inactive)
REMARK    1  A    between atoms: N1_1  and  C1_2 
REMARK    2  A    between atoms: N2_3  and  C2_4 
REMARK    3  A    between atoms: N3_5  and  C3_6 
REMARK    4  A    between atoms: C14_18  and  C15_19 
ROOT
HETATM    1  C3  UNL     1      26.416   1.534  52.327  1.00  0.00     0.154 C 
HETATM    2  C4  UNL     1      25.809   0.406  53.038  1.00  0.00     0.016 A 
HETATM    3  C5  UNL     1      25.860  -0.699  52.468  1.00  0.00     0.020 A 
HETATM    4  C6  UNL     1      24.894  -0.145  53.467  1.00  0.00    -0.001 A 
HETATM    5  C7  UNL     1      25.107   1.124  53.956  1.00  0.00    -0.029 A 
HETATM    6  C8  UNL     1      23.539  -0.647  53.802  1.00  0.00    -0.003 A 
HETATM    7  C9  UNL     1      22.209  -0.398  53.417  1.00  0.00     0.027 A 
HETATM    8  C10 UNL     1      21.353   0.289  52.536  1.00  0.00    -0.022 A 
HETATM    9  C11 UNL     1      21.864   1.130  51.555  1.00  0.00     0.002 A 
HETATM   10  C12 UNL     1      23.277   1.186  51.573  1.00  0.00     0.066 A 
HETATM   11  C13 UNL     1      23.463   0.286  52.670  1.00  0.00     0.124 A 
HETATM   12  O1  UNL     1      24.404   1.799  50.916  1.00  0.00    -0.371 OA
HETATM   13  C14 UNL     1      25.347   2.477  51.764  1.00  0.00     0.177 C 
ENDROOT
BRANCH   1  14
HETATM   14  N3  UNL     1      27.293   2.248  53.181  1.00  0.00    -0.274 NA
HETATM   15  C2  UNL     1      28.439   1.745  53.498  1.00  0.00     0.228 C 
BRANCH  15  16
HETATM   16  N2  UNL     1      29.421   0.692  53.423  1.00  0.00    -0.238 NA
HETATM   17  C1  UNL     1      29.130  -0.366  54.140  1.00  0.00     0.201 C 
BRANCH  17  18
HETATM   18  N1  UNL     1      30.229  -1.236  53.899  1.00  0.00    -0.394 N 
HETATM   19  H1  UNL     1      29.949  -2.071  53.350  1.00  0.00     0.156 HD
HETATM   20  H2  UNL     1      31.187  -0.974  54.278  1.00  0.00     0.156 HD
ENDBRANCH  17  18
ENDBRANCH  15  16
ENDBRANCH   1  14
BRANCH  13  21
HETATM   21  C15 UNL     1      25.969   3.645  51.096  1.00  0.00     0.152 C 
HETATM   22  C16 UNL     1      24.947   4.450  50.366  1.00  0.00     0.036 C 
HETATM   23  C17 UNL     1      25.745   4.961  49.175  1.00  0.00     0.029 C 
HETATM   24  C18 UNL     1      26.931   4.055  49.101  1.00  0.00     0.168 C 
HETATM   25  O2  UNL     1      26.830   3.132  50.111  1.00  0.00    -0.383 OA
ENDBRANCH  13  21
TORSDOF 4
ENDMDL
MODEL 3
REMARK VINA RESULT:      -7.6      2.632      6.124
REMARK  4 active torsions:
REMARK  status: ('A' for Active; 'I' for Inactive)
REMARK    1  A    between atoms: N1_1  and  C1_2 
REMARK    2  A    between atoms: N2_3  and  C2_4 
REMARK    3  A    between atoms: N3_5  and  C3_6 
REMARK    4  A    between atoms: C14_18  and  C15_19 
ROOT
HETATM    1  C3  UNL     1      24.279   0.789  53.004  1.00  0.00     0.154 C 
HETATM    2  C4  UNL     1      25.248  -0.257  53.337  1.00  0.00     0.016 A 
HETATM    3  C5  UNL     1      25.327  -0.577  54.538  1.00  0.00     0.020 A 
HETATM    4  C6  UNL     1      26.329  -0.642  53.429  1.00  0.00    -0.001 A 
HETATM    5  C7  UNL     1      25.946  -0.237  52.170  1.00  0.00    -0.029 A 
HETATM    6  C8  UNL     1      27.801  -0.799  53.536  1.00  0.00    -0.003 A 
HETATM    7  C9  UNL     1      28.938   0.028  53.580  1.00  0.00     0.027 A 
HETATM    8  C10 UNL     1      29.427   1.345  53.649  1.00  0.00    -0.022 A 
HETATM    9  C11 UNL     1      28.557   2.427  53.708  1.00  0.00     0.002 A 
HETATM   10  C12 UNL     1      27.199   2.032  53.691  1.00  0.00     0.066 A 
HETATM   11  C13 UNL     1      27.440   0.623  53.615  1.00  0.00     0.124 A 
HETATM   12  O1  UNL     1      25.856   2.555  53.714  1.00  0.00    -0.371 OA
HETATM   13  C14 UNL     1      24.979   2.109  52.665  1.00  0.00     0.177 C 
ENDROOT
BRANCH   1  14
HETATM   14  N3  UNL     1      23.457   0.382  51.924  1.00  0.00    -0.274 NA
HETATM   15  C2  UNL     1      22.264  -0.057  52.148  1.00  0.00     0.228 C 
BRANCH  15  16
HETATM   16  N2  UNL     1      21.190  -0.394  53.049  1.00  0.00    -0.238 NA
HETATM   17  C1  UNL     1      21.415  -1.457  53.781  1.00  0.00     0.201 C 
BRANCH  17  18
HETATM   18  N1  UNL     1      20.234  -1.571  54.564  1.00  0.00    -0.394 N 
HETATM   19  H1  UNL     1      19.447  -1.029  54.158  1.00  0.00     0.156 HD
HETATM   20  H2  UNL     1      20.255  -2.165  55.445  1.00  0.00     0.156 HD
ENDBRANCH  17  18
ENDBRANCH  15  16
ENDBRANCH   1  14
BRANCH  13  21
HETATM   21  C15 UNL     1      23.995   3.147  52.275  1.00  0.00     0.152 C 
HETATM   22  C16 UNL     1      24.470   3.916  51.088  1.00  0.00     0.036 C 
HETATM   23  C17 UNL     1      23.900   5.300  51.365  1.00  0.00     0.029 C 
HETATM   24  C18 UNL     1      23.589   5.292  52.826  1.00  0.00     0.168 C 
HETATM   25  O2  UNL     1      23.942   4.068  53.334  1.00  0.00    -0.383 OA
ENDBRANCH  13  21
TORSDOF 4
ENDMDL
MODEL 4
REMARK VINA RESULT:      -7.5      1.996      4.917
REMARK  4 active torsions:
REMARK  status: ('A' for Active; 'I' for Inactive)
REMARK    1  A    between atoms: N1_1  and  C1_2 
REMARK    2  A    between atoms: N2_3  and  C2_4 
REMARK    3  A    between atoms: N3_5  and  C3_6 
REMARK    4  A    between atoms: C14_18  and  C15_19 
ROOT
HETATM    1  C3  UNL     1      24.808   2.340  52.581  1.00  0.00     0.154 C 
HETATM    2  C4  UNL     1      26.267   2.463  52.537  1.00  0.00     0.016 A 
HETATM    3  C5  UNL     1      26.788   2.465  51.407  1.00  0.00     0.020 A 
HETATM    4  C6  UNL     1      27.323   2.052  52.742  1.00  0.00    -0.001 A 
HETATM    5  C7  UNL     1      26.513   2.189  53.847  1.00  0.00    -0.029 A 
HETATM    6  C8  UNL     1      28.516   1.219  53.030  1.00  0.00    -0.003 A 
HETATM    7  C9  UNL     1      28.810  -0.135  53.271  1.00  0.00     0.027 A 
HETATM    8  C10 UNL     1      28.318  -1.452  53.307  1.00  0.00    -0.022 A 
HETATM    9  C11 UNL     1      26.991  -1.726  52.999  1.00  0.00     0.002 A 
HETATM   10  C12 UNL     1      26.260  -0.562  52.665  1.00  0.00     0.066 A 
HETATM   11  C13 UNL     1      27.341   0.361  52.831  1.00  0.00     0.124 A 
HETATM   12  O1  UNL     1      24.948  -0.109  52.278  1.00  0.00    -0.371 OA
HETATM   13  C14 UNL     1      24.380   0.951  53.067  1.00  0.00     0.177 C 
ENDROOT
BRANCH   1  14
HETATM   14  N3  UNL     1      24.248   3.341  53.414  1.00  0.00    -0.274 NA
HETATM   15  C2  UNL     1      23.715   4.394  52.892  1.00  0.00     0.228 C 
BRANCH  15  16
HETATM   16  N2  UNL     1      23.344   5.186  51.747  1.00  0.00    -0.238 NA
HETATM   17  C1  UNL     1      22.052   5.359  51.608  1.00  0.00     0.201 C 
BRANCH  17  18
HETATM   18  N1  UNL     1      21.953   6.154  50.432  1.00  0.00    -0.394 N 
HETATM   19  H1  UNL     1      21.627   5.600  49.618  1.00  0.00     0.156 HD
HETATM   20  H2  UNL     1      22.206   7.185  50.485  1.00  0.00     0.156 HD
ENDBRANCH  17  18
ENDBRANCH  15  16
ENDBRANCH   1  14
BRANCH  13  21
HETATM   21  C15 UNL     1      22.904   0.854  53.162  1.00  0.00     0.152 C 
HETATM   22  C16 UNL     1      22.495  -0.395  53.869  1.00  0.00     0.036 C 
HETATM   23  C17 UNL     1      21.192  -0.740  53.161  1.00  0.00     0.029 C 
HETATM   24  C18 UNL     1      21.243   0.032  51.883  1.00  0.00     0.168 C 
HETATM   25  O2  UNL     1      22.425   0.727  51.847  1.00  0.00    -0.383 OA
ENDBRANCH  13  21
TORSDOF 4
ENDMDL
MODEL 5
REMARK VINA RESULT:      -7.3      2.501      4.668
REMARK  4 active torsions:
REMARK  status: ('A' for Active; 'I' for Inactive)
REMARK    1  A    between atoms: N1_1  and  C1_2 
REMARK    2  A    between atoms: N2_3  and  C2_4 
REMARK    3  A    between atoms: N3_5  and  C3_6 
REMARK    4  A    between atoms: C14_18  and  C15_19 
ROOT
HETATM    1  C3  UNL     1      24.622   1.888  52.292  1.00  0.00     0.154 C 
HETATM    2  C4  UNL     1      23.585   0.926  52.674  1.00  0.00     0.016 A 
HETATM    3  C5  UNL     1      23.768  -0.254  52.323  1.00  0.00     0.020 A 
HETATM    4  C6  UNL     1      22.513   0.512  52.600  1.00  0.00    -0.001 A 
HETATM    5  C7  UNL     1      22.617   1.823  53.007  1.00  0.00    -0.029 A 
HETATM    6  C8  UNL     1      21.126   0.162  52.209  1.00  0.00    -0.003 A 
HETATM    7  C9  UNL     1      20.236   0.440  51.155  1.00  0.00     0.027 A 
HETATM    8  C10 UNL     1      20.065   1.042  49.895  1.00  0.00    -0.022 A 
HETATM    9  C11 UNL     1      21.121   1.686  49.262  1.00  0.00     0.002 A 
HETATM   10  C12 UNL     1      22.313   1.647  50.022  1.00  0.00     0.066 A 
HETATM   11  C13 UNL     1      21.777   0.914  51.129  1.00  0.00     0.124 A 
HETATM   12  O1  UNL     1      23.690   2.073  50.010  1.00  0.00    -0.371 OA
HETATM   13  C14 UNL     1      24.142   2.805  51.163  1.00  0.00     0.177 C 
ENDROOT
BRANCH   1  14
HETATM   14  N3  UNL     1      25.021   2.661  53.411  1.00  0.00    -0.274 NA
HETATM   15  C2  UNL     1      26.082   2.342  54.073  1.00  0.00     0.228 C 
BRANCH  15  16
HETATM   16  N2  UNL     1      27.225   1.492  54.294  1.00  0.00    -0.238 NA
HETATM   17  C1  UNL     1      26.929   0.298  54.742  1.00  0.00     0.201 C 
BRANCH  17  18
HETATM   18  N1  UNL     1      28.200  -0.327  54.873  1.00  0.00    -0.394 N 
HETATM   19  H1  UNL     1      28.322  -1.101  54.193  1.00  0.00     0.156 HD
HETATM   20  H2  UNL     1      28.876   0.030  55.612  1.00  0.00     0.156 HD
ENDBRANCH  17  18
ENDBRANCH  15  16
ENDBRANCH   1  14
BRANCH  13  21
HETATM   21  C15 UNL     1      25.175   3.811  50.821  1.00  0.00     0.152 C 
HETATM   22  C16 UNL     1      24.655   4.796  49.828  1.00  0.00     0.036 C 
HETATM   23  C17 UNL     1      25.906   5.115  49.022  1.00  0.00     0.029 C 
HETATM   24  C18 UNL     1      26.839   3.986  49.314  1.00  0.00     0.168 C 
HETATM   25  O2  UNL     1      26.210   3.118  50.170  1.00  0.00    -0.383 OA
ENDBRANCH  13  21
TORSDOF 4
ENDMDL
MODEL 6
REMARK VINA RESULT:      -7.3      7.357      9.536
REMARK  4 active torsions:
REMARK  status: ('A' for Active; 'I' for Inactive)
REMARK    1  A    between atoms: N1_1  and  C1_2 
REMARK    2  A    between atoms: N2_3  and  C2_4 
REMARK    3  A    between atoms: N3_5  and  C3_6 
REMARK    4  A    between atoms: C14_18  and  C15_19 
ROOT
HETATM    1  C3  UNL     1      31.854   6.921  47.442  1.00  0.00     0.154 C 
HETATM    2  C4  UNL     1      30.809   7.886  47.792  1.00  0.00     0.016 A 
HETATM    3  C5  UNL     1      30.781   8.267  48.977  1.00  0.00     0.020 A 
HETATM    4  C6  UNL     1      29.703   8.169  47.943  1.00  0.00    -0.001 A 
HETATM    5  C7  UNL     1      30.038   7.731  46.682  1.00  0.00    -0.029 A 
HETATM    6  C8  UNL     1      28.235   8.189  48.151  1.00  0.00    -0.003 A 
HETATM    7  C9  UNL     1      27.192   7.260  48.321  1.00  0.00     0.027 A 
HETATM    8  C10 UNL     1      26.844   5.908  48.494  1.00  0.00    -0.022 A 
HETATM    9  C11 UNL     1      27.821   4.921  48.543  1.00  0.00     0.002 A 
HETATM   10  C12 UNL     1      29.128   5.444  48.406  1.00  0.00     0.066 A 
HETATM   11  C13 UNL     1      28.741   6.816  48.275  1.00  0.00     0.124 A 
HETATM   12  O1  UNL     1      30.515   5.055  48.356  1.00  0.00    -0.371 OA
HETATM   13  C14 UNL     1      31.269   5.522  47.224  1.00  0.00     0.177 C 
ENDROOT
BRANCH   1  14
HETATM   14  N3  UNL     1      32.555   7.342  46.285  1.00  0.00    -0.274 NA
HETATM   15  C2  UNL     1      33.738   7.847  46.392  1.00  0.00     0.228 C 
BRANCH  15  16
HETATM   16  N2  UNL     1      34.867   8.261  47.186  1.00  0.00    -0.238 NA
HETATM   17  C1  UNL     1      35.160   7.446  48.169  1.00  0.00     0.201 C 
BRANCH  17  18
HETATM   18  N1  UNL     1      36.284   8.065  48.784  1.00  0.00    -0.394 N 
HETATM   19  H1  UNL     1      36.899   8.528  48.088  1.00  0.00     0.156 HD
HETATM   20  H2  UNL     1      36.391   8.006  49.840  1.00  0.00     0.156 HD
ENDBRANCH  17  18
ENDBRANCH  15  16
ENDBRANCH   1  14
BRANCH  13  21
HETATM   21  C15 UNL     1      32.323   4.564  46.816  1.00  0.00     0.152 C 
HETATM   22  C16 UNL     1      31.755   3.201  46.602  1.00  0.00     0.036 C 
HETATM   23  C17 UNL     1      32.907   2.310  47.043  1.00  0.00     0.029 C 
HETATM   24  C18 UNL     1      33.778   3.202  47.866  1.00  0.00     0.168 C 
HETATM   25  O2  UNL     1      33.203   4.447  47.906  1.00  0.00    -0.383 OA
ENDBRANCH  13  21
TORSDOF 4
ENDMDL
MODEL 7
REMARK VINA RESULT:      -7.2      2.954      5.111
REMARK  4 active torsions:
REMARK  status: ('A' for Active; 'I' for Inactive)
REMARK    1  A    between atoms: N1_1  and  C1_2 
REMARK    2  A    between atoms: N2_3  and  C2_4 
REMARK    3  A    between atoms: N3_5  and  C3_6 
REMARK    4  A    between atoms: C14_18  and  C15_19 
ROOT
HETATM    1  C3  UNL     1      23.306   0.936  52.306  1.00  0.00     0.154 C 
HETATM    2  C4  UNL     1      22.540   0.026  53.161  1.00  0.00     0.016 A 
HETATM    3  C5  UNL     1      22.633  -1.188  52.902  1.00  0.00     0.020 A 
HETATM    4  C6  UNL     1      21.542  -0.395  53.551  1.00  0.00    -0.001 A 
HETATM    5  C7  UNL     1      21.730   0.956  53.737  1.00  0.00    -0.029 A 
HETATM    6  C8  UNL     1      20.129  -0.793  53.764  1.00  0.00    -0.003 A 
HETATM    7  C9  UNL     1      18.893  -0.647  53.108  1.00  0.00     0.027 A 
HETATM    8  C10 UNL     1      18.226  -0.204  51.951  1.00  0.00    -0.022 A 
HETATM    9  C11 UNL     1      18.930   0.360  50.894  1.00  0.00     0.002 A 
HETATM   10  C12 UNL     1      20.322   0.415  51.138  1.00  0.00     0.066 A 
HETATM   11  C13 UNL     1      20.283  -0.177  52.440  1.00  0.00     0.124 A 
HETATM   12  O1  UNL     1      21.568   0.839  50.551  1.00  0.00    -0.371 OA
HETATM   13  C14 UNL     1      22.389   1.707  51.352  1.00  0.00     0.177 C 
ENDROOT
BRANCH   1  14
HETATM   14  N3  UNL     1      24.063   1.840  53.091  1.00  0.00    -0.274 NA
HETATM   15  C2  UNL     1      25.258   1.529  53.467  1.00  0.00     0.228 C 
BRANCH  15  16
HETATM   16  N2  UNL     1      26.372   0.614  53.506  1.00  0.00    -0.238 NA
HETATM   17  C1  UNL     1      26.806   0.347  54.712  1.00  0.00     0.201 C 
BRANCH  17  18
HETATM   18  N1  UNL     1      27.881  -0.555  54.480  1.00  0.00    -0.394 N 
HETATM   19  H1  UNL     1      27.893  -1.328  55.173  1.00  0.00     0.156 HD
HETATM   20  H2  UNL     1      28.540  -0.373  53.667  1.00  0.00     0.156 HD
ENDBRANCH  17  18
ENDBRANCH  15  16
ENDBRANCH   1  14
BRANCH  13  21
HETATM   21  C15 UNL     1      23.164   2.666  50.529  1.00  0.00     0.152 C 
HETATM   22  C16 UNL     1      22.680   4.062  50.734  1.00  0.00     0.036 C 
HETATM   23  C17 UNL     1      22.900   4.673  49.357  1.00  0.00     0.029 C 
HETATM   24  C18 UNL     1      23.027   3.500  48.442  1.00  0.00     0.168 C 
HETATM   25  O2  UNL     1      22.889   2.356  49.186  1.00  0.00    -0.383 OA
ENDBRANCH  13  21
TORSDOF 4
ENDMDL
MODEL 8
REMARK VINA RESULT:      -7.0      3.047      4.460
REMARK  4 active torsions:
REMARK  status: ('A' for Active; 'I' for Inactive)
REMARK    1  A    between atoms: N1_1  and  C1_2 
REMARK    2  A    between atoms: N2_3  and  C2_4 
REMARK    3  A    between atoms: N3_5  and  C3_6 
REMARK    4  A    between atoms: C14_18  and  C15_19 
ROOT
HETATM    1  C3  UNL     1      22.451   3.045  50.375  1.00  0.00     0.154 C 
HETATM    2  C4  UNL     1      21.659   2.179  51.252  1.00  0.00     0.016 A 
HETATM    3  C5  UNL     1      21.226   2.697  52.298  1.00  0.00     0.020 A 
HETATM    4  C6  UNL     1      21.560   1.278  51.962  1.00  0.00    -0.001 A 
HETATM    5  C7  UNL     1      22.002   0.988  50.691  1.00  0.00    -0.029 A 
HETATM    6  C8  UNL     1      21.779   0.147  52.897  1.00  0.00    -0.003 A 
HETATM    7  C9  UNL     1      22.861  -0.482  53.540  1.00  0.00     0.027 A 
HETATM    8  C10 UNL     1      24.241  -0.452  53.810  1.00  0.00    -0.022 A 
HETATM    9  C11 UNL     1      25.044   0.565  53.308  1.00  0.00     0.002 A 
HETATM   10  C12 UNL     1      24.315   1.503  52.540  1.00  0.00     0.066 A 
HETATM   11  C13 UNL     1      23.037   0.873  52.685  1.00  0.00     0.124 A 
HETATM   12  O1  UNL     1      24.465   2.710  51.768  1.00  0.00    -0.371 OA
HETATM   13  C14 UNL     1      23.938   2.683  50.430  1.00  0.00     0.177 C 
ENDROOT
BRANCH   1  14
HETATM   14  N3  UNL     1      21.980   2.967  49.041  1.00  0.00    -0.274 NA
HETATM   15  C2  UNL     1      21.038   3.753  48.640  1.00  0.00     0.228 C 
BRANCH  15  16
HETATM   16  N2  UNL     1      20.089   4.811  48.878  1.00  0.00    -0.238 NA
HETATM   17  C1  UNL     1      19.018   4.436  49.534  1.00  0.00     0.201 C 
BRANCH  17  18
HETATM   18  N1  UNL     1      18.261   5.636  49.637  1.00  0.00    -0.394 N 
HETATM   19  H1  UNL     1      18.306   6.041  50.592  1.00  0.00     0.156 HD
HETATM   20  H2  UNL     1      17.745   5.995  48.780  1.00  0.00     0.156 HD
ENDBRANCH  17  18
ENDBRANCH  15  16
ENDBRANCH   1  14
BRANCH  13  21
HETATM   21  C15 UNL     1      24.725   3.525  49.498  1.00  0.00     0.152 C 
HETATM   22  C16 UNL     1      26.166   3.142  49.516  1.00  0.00     0.036 C 
HETATM   23  C17 UNL     1      26.848   4.481  49.275  1.00  0.00     0.029 C 
HETATM   24  C18 UNL     1      25.805   5.498  49.607  1.00  0.00     0.168 C 
HETATM   25  O2  UNL     1      24.669   4.837  49.999  1.00  0.00    -0.383 OA
ENDBRANCH  13  21
TORSDOF 4
ENDMDL
MODEL 9
REMARK VINA RESULT:      -6.9      2.462      4.918
REMARK  4 active torsions:
REMARK  status: ('A' for Active; 'I' for Inactive)
REMARK    1  A    between atoms: N1_1  and  C1_2 
REMARK    2  A    between atoms: N2_3  and  C2_4 
REMARK    3  A    between atoms: N3_5  and  C3_6 
REMARK    4  A    between atoms: C14_18  and  C15_19 
ROOT
HETATM    1  C3  UNL     1      22.563   2.485  51.891  1.00  0.00     0.154 C 
HETATM    2  C4  UNL     1      24.004   2.750  51.900  1.00  0.00     0.016 A 
HETATM    3  C5  UNL     1      24.654   2.310  50.934  1.00  0.00     0.020 A 
HETATM    4  C6  UNL     1      25.056   2.606  52.345  1.00  0.00    -0.001 A 
HETATM    5  C7  UNL     1      24.112   3.123  53.204  1.00  0.00    -0.029 A 
HETATM    6  C8  UNL     1      26.266   2.140  53.066  1.00  0.00    -0.003 A 
HETATM    7  C9  UNL     1      26.630   1.083  53.919  1.00  0.00     0.027 A 
HETATM    8  C10 UNL     1      26.237  -0.128  54.518  1.00  0.00    -0.022 A 
HETATM    9  C11 UNL     1      24.981  -0.669  54.275  1.00  0.00     0.002 A 
HETATM   10  C12 UNL     1      24.209   0.125  53.395  1.00  0.00     0.066 A 
HETATM   11  C13 UNL     1      25.190   1.149  53.197  1.00  0.00     0.124 A 
HETATM   12  O1  UNL     1      22.922   0.195  52.751  1.00  0.00    -0.371 OA
HETATM   13  C14 UNL     1      22.186   1.420  52.925  1.00  0.00     0.177 C 
ENDROOT
BRANCH   1  14
HETATM   14  N3  UNL     1      21.835   3.676  52.132  1.00  0.00    -0.274 NA
HETATM   15  C2  UNL     1      21.532   4.460  51.153  1.00  0.00     0.228 C 
BRANCH  15  16
HETATM   16  N2  UNL     1      21.553   4.796  49.751  1.00  0.00    -0.238 NA
HETATM   17  C1  UNL     1      22.719   5.202  49.312  1.00  0.00     0.201 C 
BRANCH  17  18
HETATM   18  N1  UNL     1      22.477   5.463  47.935  1.00  0.00    -0.394 N 
HETATM   19  H1  UNL     1      21.549   5.901  47.782  1.00  0.00     0.156 HD
HETATM   20  H2  UNL     1      23.223   5.205  47.223  1.00  0.00     0.156 HD
ENDBRANCH  17  18
ENDBRANCH  15  16
ENDBRANCH   1  14
BRANCH  13  21
HETATM   21  C15 UNL     1      20.721   1.197  52.949  1.00  0.00     0.152 C 
HETATM   22  C16 UNL     1      20.368   0.053  53.839  1.00  0.00     0.036 C 
HETATM   23  C17 UNL     1      19.156  -0.531  53.127  1.00  0.00     0.029 C 
HETATM   24  C18 UNL     1      19.236   0.014  51.739  1.00  0.00     0.168 C 
HETATM   25  O2  UNL     1      20.354   0.804  51.651  1.00  0.00    -0.383 OA
ENDBRANCH  13  21
TORSDOF 4
ENDMDL
