MODEL 1
REMARK VINA RESULT:      -8.9      0.000      0.000
REMARK  3 active torsions:
REMARK  status: ('A' for Active; 'I' for Inactive)
REMARK    1  A    between atoms: C2_2  and  C3_3 
REMARK    2  A    between atoms: C8_9  and  N2_10 
REMARK    3  A    between atoms: N2_10  and  C9_11 
ROOT
HETATM    1  C3  UNL     1      17.508   0.377  51.148  1.00  0.00     0.056 A 
HETATM    2  C4  UNL     1      18.721   1.104  50.770  1.00  0.00    -0.003 A 
HETATM    3  C5  UNL     1      19.745   0.831  51.562  1.00  0.00    -0.010 A 
HETATM    4  C6  UNL     1      21.094   1.440  51.389  1.00  0.00     0.161 C 
HETATM    5  N1  UNL     1      22.157   0.573  51.863  1.00  0.00    -0.379 N 
HETATM    6  C7  UNL     1      22.297  -0.141  53.078  1.00  0.00     0.129 A 
HETATM    7  C8  UNL     1      23.606  -0.231  53.470  1.00  0.00     0.160 A 
HETATM    8  N3  UNL     1      23.827  -0.906  54.601  1.00  0.00    -0.222 NA
HETATM    9  C15 UNL     1      22.865  -1.466  55.324  1.00  0.00     0.238 A 
HETATM   10  N4  UNL     1      21.564  -1.384  54.949  1.00  0.00    -0.215 NA
HETATM   11  C16 UNL     1      21.267  -0.707  53.801  1.00  0.00     0.202 A 
HETATM   12  O1  UNL     1      19.895  -0.735  53.590  1.00  0.00    -0.290 OA
HETATM   13  C17 UNL     1      19.220  -0.133  52.538  1.00  0.00     0.083 A 
HETATM   14  C18 UNL     1      17.947  -0.408  52.326  1.00  0.00     0.023 A 
HETATM   15  H8  UNL     1      22.991   0.409  51.230  1.00  0.00     0.160 HD
ENDROOT
BRANCH   7  16
HETATM   16  N2  UNL     1      24.679   0.375  52.763  1.00  0.00    -0.339 N 
HETATM   17  H9  UNL     1      24.644   1.083  51.999  1.00  0.00     0.167 HD
BRANCH  16  18
HETATM   18  C9  UNL     1      26.063   0.114  52.996  1.00  0.00     0.035 A 
HETATM   19  C10 UNL     1      26.707  -1.089  52.770  1.00  0.00     0.032 A 
HETATM   20  C11 UNL     1      28.034  -1.333  53.011  1.00  0.00     0.046 A 
HETATM   21  C12 UNL     1      28.821  -0.325  53.518  1.00  0.00     0.138 A 
HETATM   22  F1  UNL     1      30.119  -0.645  53.726  1.00  0.00    -0.204 F 
HETATM   23  C13 UNL     1      28.245   0.897  53.767  1.00  0.00     0.074 A 
HETATM   24 CL1  UNL     1      29.312   2.122  54.409  1.00  0.00    -0.081 Cl
HETATM   25  C14 UNL     1      26.887   1.107  53.509  1.00  0.00     0.056 A 
ENDBRANCH  16  18
ENDBRANCH   7  16
BRANCH   1  26
HETATM   26  C2  UNL     1      17.048  -0.507  50.044  1.00  0.00    -0.024 C 
HETATM   27  C1  UNL     1      15.976  -0.325  49.268  1.00  0.00     0.008 C 
ENDBRANCH   1  26
TORSDOF 3
ENDMDL
MODEL 2
REMARK VINA RESULT:      -8.5      5.299      7.928
REMARK  3 active torsions:
REMARK  status: ('A' for Active; 'I' for Inactive)
REMARK    1  A    between atoms: C2_2  and  C3_3 
REMARK    2  A    between atoms: C8_9  and  N2_10 
REMARK    3  A    between atoms: N2_10  and  C9_11 
ROOT
HETATM    1  C3  UNL     1      26.663   5.972  48.356  1.00  0.00     0.056 A 
HETATM    2  C4  UNL     1      25.301   5.816  48.870  1.00  0.00    -0.003 A 
HETATM    3  C5  UNL     1      25.153   4.720  49.596  1.00  0.00    -0.010 A 
HETATM    4  C6  UNL     1      23.863   4.333  50.233  1.00  0.00     0.161 C 
HETATM    5  N1  UNL     1      24.057   3.558  51.445  1.00  0.00    -0.379 N 
HETATM    6  C7  UNL     1      24.877   2.433  51.704  1.00  0.00     0.129 A 
HETATM    7  C8  UNL     1      24.309   1.586  52.620  1.00  0.00     0.160 A 
HETATM    8  N3  UNL     1      25.028   0.506  52.933  1.00  0.00    -0.222 NA
HETATM    9  C15 UNL     1      26.219   0.237  52.410  1.00  0.00     0.238 A 
HETATM   10  N4  UNL     1      26.792   1.064  51.501  1.00  0.00    -0.215 NA
HETATM   11  C16 UNL     1      26.110   2.189  51.135  1.00  0.00     0.202 A 
HETATM   12  O1  UNL     1      26.855   2.899  50.205  1.00  0.00    -0.290 OA
HETATM   13  C17 UNL     1      26.476   4.082  49.587  1.00  0.00     0.083 A 
HETATM   14  C18 UNL     1      27.355   4.773  48.886  1.00  0.00     0.023 A 
HETATM   15  H8  UNL     1      23.521   3.843  52.315  1.00  0.00     0.160 HD
ENDROOT
BRANCH   7  16
HETATM   16  N2  UNL     1      23.024   1.797  53.190  1.00  0.00    -0.339 N 
HETATM   17  H9  UNL     1      22.601   2.680  53.544  1.00  0.00     0.167 HD
BRANCH  16  18
HETATM   18  C9  UNL     1      22.037   0.782  53.375  1.00  0.00     0.035 A 
HETATM   19  C10 UNL     1      22.097  -0.244  54.301  1.00  0.00     0.032 A 
HETATM   20  C11 UNL     1      21.149  -1.220  54.461  1.00  0.00     0.046 A 
HETATM   21  C12 UNL     1      20.033  -1.212  53.655  1.00  0.00     0.138 A 
HETATM   22  F1  UNL     1      19.145  -2.208  53.876  1.00  0.00    -0.204 F 
HETATM   23  C13 UNL     1      19.910  -0.221  52.712  1.00  0.00     0.074 A 
HETATM   24 CL1  UNL     1      18.467  -0.282  51.731  1.00  0.00    -0.081 Cl
HETATM   25  C14 UNL     1      20.900   0.758  52.579  1.00  0.00     0.056 A 
ENDBRANCH  16  18
ENDBRANCH   7  16
BRANCH   1  26
HETATM   26  C2  UNL     1      27.284   7.227  48.856  1.00  0.00    -0.024 C 
HETATM   27  C1  UNL     1      26.712   8.143  49.643  1.00  0.00     0.008 C 
ENDBRANCH   1  26
TORSDOF 3
ENDMDL
MODEL 3
REMARK VINA RESULT:      -8.4      2.579      3.886
REMARK  3 active torsions:
REMARK  status: ('A' for Active; 'I' for Inactive)
REMARK    1  A    between atoms: C2_2  and  C3_3 
REMARK    2  A    between atoms: C8_9  and  N2_10 
REMARK    3  A    between atoms: N2_10  and  C9_11 
ROOT
HETATM    1  C3  UNL     1      19.372   0.650  50.569  1.00  0.00     0.056 A 
HETATM    2  C4  UNL     1      20.284   0.249  51.642  1.00  0.00    -0.003 A 
HETATM    3  C5  UNL     1      21.503   0.738  51.483  1.00  0.00    -0.010 A 
HETATM    4  C6  UNL     1      22.616   0.477  52.439  1.00  0.00     0.161 C 
HETATM    5  N1  UNL     1      23.581   1.562  52.472  1.00  0.00    -0.379 N 
HETATM    6  C7  UNL     1      24.233   2.254  51.424  1.00  0.00     0.129 A 
HETATM    7  C8  UNL     1      25.497   2.646  51.778  1.00  0.00     0.160 A 
HETATM    8  N3  UNL     1      26.175   3.322  50.849  1.00  0.00    -0.222 NA
HETATM    9  C15 UNL     1      25.689   3.613  49.648  1.00  0.00     0.238 A 
HETATM   10  N4  UNL     1      24.440   3.230  49.282  1.00  0.00    -0.215 NA
HETATM   11  C16 UNL     1      23.690   2.534  50.186  1.00  0.00     0.202 A 
HETATM   12  O1  UNL     1      22.455   2.236  49.630  1.00  0.00    -0.290 OA
HETATM   13  C17 UNL     1      21.437   1.519  50.241  1.00  0.00     0.083 A 
HETATM   14  C18 UNL     1      20.234   1.485  49.698  1.00  0.00     0.023 A 
HETATM   15  H8  UNL     1      23.878   1.940  53.418  1.00  0.00     0.160 HD
ENDROOT
BRANCH   7  16
HETATM   16  N2  UNL     1      26.090   2.337  53.032  1.00  0.00    -0.339 N 
HETATM   17  H9  UNL     1      25.872   2.725  53.974  1.00  0.00     0.167 HD
BRANCH  16  18
HETATM   18  C9  UNL     1      27.134   1.383  53.229  1.00  0.00     0.035 A 
HETATM   19  C10 UNL     1      28.402   1.660  53.705  1.00  0.00     0.032 A 
HETATM   20  C11 UNL     1      29.401   0.737  53.878  1.00  0.00     0.046 A 
HETATM   21  C12 UNL     1      29.160  -0.581  53.562  1.00  0.00     0.138 A 
HETATM   22  F1  UNL     1      30.196  -1.428  53.762  1.00  0.00    -0.204 F 
HETATM   23  C13 UNL     1      27.920  -0.926  53.083  1.00  0.00     0.074 A 
HETATM   24 CL1  UNL     1      27.697  -2.617  52.707  1.00  0.00    -0.081 Cl
HETATM   25  C14 UNL     1      26.927   0.044  52.920  1.00  0.00     0.056 A 
ENDBRANCH  16  18
ENDBRANCH   7  16
BRANCH   1  26
HETATM   26  C2  UNL     1      18.224   1.428  51.107  1.00  0.00    -0.024 C 
HETATM   27  C1  UNL     1      17.460   2.294  50.434  1.00  0.00     0.008 C 
ENDBRANCH   1  26
TORSDOF 3
ENDMDL
MODEL 4
REMARK VINA RESULT:      -8.4      5.132      6.828
REMARK  3 active torsions:
REMARK  status: ('A' for Active; 'I' for Inactive)
REMARK    1  A    between atoms: C2_2  and  C3_3 
REMARK    2  A    between atoms: C8_9  and  N2_10 
REMARK    3  A    between atoms: N2_10  and  C9_11 
ROOT
HETATM    1  C3  UNL     1      22.754  -0.753  53.340  1.00  0.00     0.056 A 
HETATM    2  C4  UNL     1      23.950   0.061  53.115  1.00  0.00    -0.003 A 
HETATM    3  C5  UNL     1      23.672   1.234  52.570  1.00  0.00    -0.010 A 
HETATM    4  C6  UNL     1      24.714   2.246  52.242  1.00  0.00     0.161 C 
HETATM    5  N1  UNL     1      24.204   3.604  52.303  1.00  0.00    -0.379 N 
HETATM    6  C7  UNL     1      23.033   4.179  51.753  1.00  0.00     0.129 A 
HETATM    7  C8  UNL     1      23.226   5.488  51.395  1.00  0.00     0.160 A 
HETATM    8  N3  UNL     1      22.162   6.110  50.882  1.00  0.00    -0.222 NA
HETATM    9  C15 UNL     1      20.980   5.530  50.713  1.00  0.00     0.238 A 
HETATM   10  N4  UNL     1      20.775   4.235  51.061  1.00  0.00    -0.215 NA
HETATM   11  C16 UNL     1      21.822   3.539  51.593  1.00  0.00     0.202 A 
HETATM   12  O1  UNL     1      21.416   2.243  51.880  1.00  0.00    -0.290 OA
HETATM   13  C17 UNL     1      22.212   1.238  52.409  1.00  0.00     0.083 A 
HETATM   14  C18 UNL     1      21.663   0.117  52.838  1.00  0.00     0.023 A 
HETATM   15  H8  UNL     1      24.762   4.326  52.844  1.00  0.00     0.160 HD
ENDROOT
BRANCH   7  16
HETATM   16  N2  UNL     1      24.474   6.157  51.515  1.00  0.00    -0.339 N 
HETATM   17  H9  UNL     1      24.901   6.601  52.355  1.00  0.00     0.167 HD
BRANCH  16  18
HETATM   18  C9  UNL     1      25.410   6.336  50.453  1.00  0.00     0.035 A 
HETATM   19  C10 UNL     1      25.905   5.335  49.636  1.00  0.00     0.032 A 
HETATM   20  C11 UNL     1      26.814   5.517  48.626  1.00  0.00     0.046 A 
HETATM   21  C12 UNL     1      27.298   6.781  48.376  1.00  0.00     0.138 A 
HETATM   22  F1  UNL     1      28.190   6.876  47.364  1.00  0.00    -0.204 F 
HETATM   23  C13 UNL     1      26.849   7.822  49.152  1.00  0.00     0.074 A 
HETATM   24 CL1  UNL     1      27.510   9.392  48.769  1.00  0.00    -0.081 Cl
HETATM   25  C14 UNL     1      25.920   7.597  50.173  1.00  0.00     0.056 A 
ENDBRANCH  16  18
ENDBRANCH   7  16
BRANCH   1  26
HETATM   26  C2  UNL     1      22.582  -1.064  54.785  1.00  0.00    -0.024 C 
HETATM   27  C1  UNL     1      23.548  -1.357  55.659  1.00  0.00     0.008 C 
ENDBRANCH   1  26
TORSDOF 3
ENDMDL
MODEL 5
REMARK VINA RESULT:      -8.3      4.318      8.749
REMARK  3 active torsions:
REMARK  status: ('A' for Active; 'I' for Inactive)
REMARK    1  A    between atoms: C2_2  and  C3_3 
REMARK    2  A    between atoms: C8_9  and  N2_10 
REMARK    3  A    between atoms: N2_10  and  C9_11 
ROOT
HETATM    1  C3  UNL     1      28.866   0.671  54.427  1.00  0.00     0.056 A 
HETATM    2  C4  UNL     1      27.706  -0.154  54.770  1.00  0.00    -0.003 A 
HETATM    3  C5  UNL     1      26.564   0.387  54.378  1.00  0.00    -0.010 A 
HETATM    4  C6  UNL     1      25.239  -0.255  54.607  1.00  0.00     0.161 C 
HETATM    5  N1  UNL     1      24.269   0.103  53.587  1.00  0.00    -0.379 N 
HETATM    6  C7  UNL     1      23.911   1.364  53.052  1.00  0.00     0.129 A 
HETATM    7  C8  UNL     1      22.586   1.415  52.706  1.00  0.00     0.160 A 
HETATM    8  N3  UNL     1      22.170   2.568  52.176  1.00  0.00    -0.222 NA
HETATM    9  C15 UNL     1      22.960   3.617  51.984  1.00  0.00     0.238 A 
HETATM   10  N4  UNL     1      24.273   3.582  52.323  1.00  0.00    -0.215 NA
HETATM   11  C16 UNL     1      24.765   2.432  52.871  1.00  0.00     0.202 A 
HETATM   12  O1  UNL     1      26.115   2.593  53.148  1.00  0.00    -0.290 OA
HETATM   13  C17 UNL     1      26.947   1.648  53.730  1.00  0.00     0.083 A 
HETATM   14  C18 UNL     1      28.253   1.836  53.746  1.00  0.00     0.023 A 
HETATM   15  H8  UNL     1      23.710  -0.674  53.131  1.00  0.00     0.160 HD
ENDROOT
BRANCH   7  16
HETATM   16  N2  UNL     1      21.679   0.342  52.918  1.00  0.00    -0.339 N 
HETATM   17  H9  UNL     1      21.765  -0.471  53.563  1.00  0.00     0.167 HD
BRANCH  16  18
HETATM   18  C9  UNL     1      20.424   0.191  52.256  1.00  0.00     0.035 A 
HETATM   19  C10 UNL     1      20.103   0.694  51.008  1.00  0.00     0.032 A 
HETATM   20  C11 UNL     1      18.889   0.553  50.387  1.00  0.00     0.046 A 
HETATM   21  C12 UNL     1      17.883  -0.137  51.026  1.00  0.00     0.138 A 
HETATM   22  F1  UNL     1      16.717  -0.232  50.347  1.00  0.00    -0.204 F 
HETATM   23  C13 UNL     1      18.134  -0.663  52.269  1.00  0.00     0.074 A 
HETATM   24 CL1  UNL     1      16.807  -1.524  53.010  1.00  0.00    -0.081 Cl
HETATM   25  C14 UNL     1      19.386  -0.499  52.870  1.00  0.00     0.056 A 
ENDBRANCH  16  18
ENDBRANCH   7  16
BRANCH   1  26
HETATM   26  C2  UNL     1      29.796  -0.061  53.526  1.00  0.00    -0.024 C 
HETATM   27  C1  UNL     1      29.880  -1.385  53.369  1.00  0.00     0.008 C 
ENDBRANCH   1  26
TORSDOF 3
ENDMDL
MODEL 6
REMARK VINA RESULT:      -8.3      4.694      5.815
REMARK  3 active torsions:
REMARK  status: ('A' for Active; 'I' for Inactive)
REMARK    1  A    between atoms: C2_2  and  C3_3 
REMARK    2  A    between atoms: C8_9  and  N2_10 
REMARK    3  A    between atoms: N2_10  and  C9_11 
ROOT
HETATM    1  C3  UNL     1      20.450   0.200  53.986  1.00  0.00     0.056 A 
HETATM    2  C4  UNL     1      20.516   1.259  52.977  1.00  0.00    -0.003 A 
HETATM    3  C5  UNL     1      21.759   1.591  52.669  1.00  0.00    -0.010 A 
HETATM    4  C6  UNL     1      22.096   2.643  51.669  1.00  0.00     0.161 C 
HETATM    5  N1  UNL     1      23.370   2.396  51.016  1.00  0.00    -0.379 N 
HETATM    6  C7  UNL     1      24.637   2.065  51.553  1.00  0.00     0.129 A 
HETATM    7  C8  UNL     1      25.660   2.594  50.812  1.00  0.00     0.160 A 
HETATM    8  N3  UNL     1      26.892   2.314  51.243  1.00  0.00    -0.222 NA
HETATM    9  C15 UNL     1      27.147   1.576  52.317  1.00  0.00     0.238 A 
HETATM   10  N4  UNL     1      26.144   1.047  53.061  1.00  0.00    -0.215 NA
HETATM   11  C16 UNL     1      24.858   1.295  52.677  1.00  0.00     0.202 A 
HETATM   12  O1  UNL     1      23.984   0.674  53.558  1.00  0.00    -0.290 OA
HETATM   13  C17 UNL     1      22.599   0.722  53.503  1.00  0.00     0.083 A 
HETATM   14  C18 UNL     1      21.879  -0.080  54.264  1.00  0.00     0.023 A 
HETATM   15  H8  UNL     1      23.411   2.456  49.958  1.00  0.00     0.160 HD
ENDROOT
BRANCH   7  16
HETATM   16  N2  UNL     1      25.457   3.422  49.674  1.00  0.00    -0.339 N 
HETATM   17  H9  UNL     1      24.994   3.191  48.770  1.00  0.00     0.167 HD
BRANCH  16  18
HETATM   18  C9  UNL     1      25.864   4.786  49.574  1.00  0.00     0.035 A 
HETATM   19  C10 UNL     1      25.301   5.849  50.257  1.00  0.00     0.032 A 
HETATM   20  C11 UNL     1      25.692   7.158  50.143  1.00  0.00     0.046 A 
HETATM   21  C12 UNL     1      26.723   7.480  49.290  1.00  0.00     0.138 A 
HETATM   22  F1  UNL     1      27.049   8.791  49.236  1.00  0.00    -0.204 F 
HETATM   23  C13 UNL     1      27.327   6.472  48.579  1.00  0.00     0.074 A 
HETATM   24 CL1  UNL     1      28.626   6.963  47.521  1.00  0.00    -0.081 Cl
HETATM   25  C14 UNL     1      26.900   5.148  48.723  1.00  0.00     0.056 A 
ENDBRANCH  16  18
ENDBRANCH   7  16
BRANCH   1  26
HETATM   26  C2  UNL     1      19.751  -1.002  53.455  1.00  0.00    -0.024 C 
HETATM   27  C1  UNL     1      18.464  -1.090  53.108  1.00  0.00     0.008 C 
ENDBRANCH   1  26
TORSDOF 3
ENDMDL
MODEL 7
REMARK VINA RESULT:      -8.2      1.731      2.968
REMARK  3 active torsions:
REMARK  status: ('A' for Active; 'I' for Inactive)
REMARK    1  A    between atoms: C2_2  and  C3_3 
REMARK    2  A    between atoms: C8_9  and  N2_10 
REMARK    3  A    between atoms: N2_10  and  C9_11 
ROOT
HETATM    1  C3  UNL     1      16.761  -0.888  52.147  1.00  0.00     0.056 A 
HETATM    2  C4  UNL     1      17.867  -1.010  53.098  1.00  0.00    -0.003 A 
HETATM    3  C5  UNL     1      18.997  -0.504  52.632  1.00  0.00    -0.010 A 
HETATM    4  C6  UNL     1      20.269  -0.503  53.407  1.00  0.00     0.161 C 
HETATM    5  N1  UNL     1      21.130   0.612  53.055  1.00  0.00    -0.379 N 
HETATM    6  C7  UNL     1      21.540   1.101  51.791  1.00  0.00     0.129 A 
HETATM    7  C8  UNL     1      22.807   1.622  51.831  1.00  0.00     0.160 A 
HETATM    8  N3  UNL     1      23.264   2.122  50.681  1.00  0.00    -0.222 NA
HETATM    9  C15 UNL     1      22.565   2.130  49.552  1.00  0.00     0.238 A 
HETATM   10  N4  UNL     1      21.310   1.617  49.497  1.00  0.00    -0.215 NA
HETATM   11  C16 UNL     1      20.781   1.089  50.639  1.00  0.00     0.202 A 
HETATM   12  O1  UNL     1      19.501   0.619  50.381  1.00  0.00    -0.290 OA
HETATM   13  C17 UNL     1      18.662  -0.005  51.292  1.00  0.00     0.083 A 
HETATM   14  C18 UNL     1      17.394  -0.212  50.989  1.00  0.00     0.023 A 
HETATM   15  H8  UNL     1      21.544   1.193  53.839  1.00  0.00     0.160 HD
ENDROOT
BRANCH   7  16
HETATM   16  N2  UNL     1      23.621   1.612  52.996  1.00  0.00    -0.339 N 
HETATM   17  H9  UNL     1      23.395   1.943  53.957  1.00  0.00     0.167 HD
BRANCH  16  18
HETATM   18  C9  UNL     1      24.956   1.109  53.055  1.00  0.00     0.035 A 
HETATM   19  C10 UNL     1      25.328  -0.215  52.902  1.00  0.00     0.032 A 
HETATM   20  C11 UNL     1      26.612  -0.688  52.973  1.00  0.00     0.046 A 
HETATM   21  C12 UNL     1      27.641   0.193  53.214  1.00  0.00     0.138 A 
HETATM   22  F1  UNL     1      28.878  -0.352  53.269  1.00  0.00    -0.204 F 
HETATM   23  C13 UNL     1      27.342   1.524  53.377  1.00  0.00     0.074 A 
HETATM   24 CL1  UNL     1      28.704   2.575  53.679  1.00  0.00    -0.081 Cl
HETATM   25  C14 UNL     1      26.019   1.969  53.298  1.00  0.00     0.056 A 
ENDBRANCH  16  18
ENDBRANCH   7  16
BRANCH   1  26
HETATM   26  C2  UNL     1      15.653  -0.074  52.715  1.00  0.00    -0.024 C 
HETATM   27  C1  UNL     1      14.358  -0.398  52.746  1.00  0.00     0.008 C 
ENDBRANCH   1  26
TORSDOF 3
ENDMDL
MODEL 8
REMARK VINA RESULT:      -8.1      5.947      8.296
REMARK  3 active torsions:
REMARK  status: ('A' for Active; 'I' for Inactive)
REMARK    1  A    between atoms: C2_2  and  C3_3 
REMARK    2  A    between atoms: C8_9  and  N2_10 
REMARK    3  A    between atoms: N2_10  and  C9_11 
ROOT
HETATM    1  C3  UNL     1      28.210   7.427  47.990  1.00  0.00     0.056 A 
HETATM    2  C4  UNL     1      28.185   5.981  48.216  1.00  0.00    -0.003 A 
HETATM    3  C5  UNL     1      27.156   5.599  48.954  1.00  0.00    -0.010 A 
HETATM    4  C6  UNL     1      26.904   4.178  49.326  1.00  0.00     0.161 C 
HETATM    5  N1  UNL     1      25.491   3.900  49.518  1.00  0.00    -0.379 N 
HETATM    6  C7  UNL     1      24.504   4.592  50.261  1.00  0.00     0.129 A 
HETATM    7  C8  UNL     1      23.571   3.739  50.789  1.00  0.00     0.160 A 
HETATM    8  N3  UNL     1      22.593   4.315  51.492  1.00  0.00    -0.222 NA
HETATM    9  C15 UNL     1      22.499   5.625  51.688  1.00  0.00     0.238 A 
HETATM   10  N4  UNL     1      23.417   6.481  51.173  1.00  0.00    -0.215 NA
HETATM   11  C16 UNL     1      24.445   5.958  50.442  1.00  0.00     0.202 A 
HETATM   12  O1  UNL     1      25.270   6.985  50.006  1.00  0.00    -0.290 OA
HETATM   13  C17 UNL     1      26.429   6.838  49.258  1.00  0.00     0.083 A 
HETATM   14  C18 UNL     1      27.008   7.896  48.722  1.00  0.00     0.023 A 
HETATM   15  H8  UNL     1      25.077   3.049  49.039  1.00  0.00     0.160 HD
ENDROOT
BRANCH   7  16
HETATM   16  N2  UNL     1      23.632   2.326  50.648  1.00  0.00    -0.339 N 
HETATM   17  H9  UNL     1      23.396   1.739  49.820  1.00  0.00     0.167 HD
BRANCH  16  18
HETATM   18  C9  UNL     1      24.059   1.421  51.666  1.00  0.00     0.035 A 
HETATM   19  C10 UNL     1      25.372   1.097  51.959  1.00  0.00     0.032 A 
HETATM   20  C11 UNL     1      25.770   0.217  52.931  1.00  0.00     0.046 A 
HETATM   21  C12 UNL     1      24.817  -0.416  53.697  1.00  0.00     0.138 A 
HETATM   22  F1  UNL     1      25.291  -1.268  54.634  1.00  0.00    -0.204 F 
HETATM   23  C13 UNL     1      23.493  -0.140  53.458  1.00  0.00     0.074 A 
HETATM   24 CL1  UNL     1      22.348  -0.982  54.473  1.00  0.00    -0.081 Cl
HETATM   25  C14 UNL     1      23.126   0.765  52.457  1.00  0.00     0.056 A 
ENDBRANCH  16  18
ENDBRANCH   7  16
BRANCH   1  26
HETATM   26  C2  UNL     1      28.124   7.744  46.540  1.00  0.00    -0.024 C 
HETATM   27  C1  UNL     1      27.183   8.476  45.936  1.00  0.00     0.008 C 
ENDBRANCH   1  26
TORSDOF 3
ENDMDL
MODEL 9
REMARK VINA RESULT:      -8.0      5.671      8.288
REMARK  3 active torsions:
REMARK  status: ('A' for Active; 'I' for Inactive)
REMARK    1  A    between atoms: C2_2  and  C3_3 
REMARK    2  A    between atoms: C8_9  and  N2_10 
REMARK    3  A    between atoms: N2_10  and  C9_11 
ROOT
HETATM    1  C3  UNL     1      26.860   0.036  53.665  1.00  0.00     0.056 A 
HETATM    2  C4  UNL     1      27.222   0.571  52.351  1.00  0.00    -0.003 A 
HETATM    3  C5  UNL     1      26.388   1.512  51.938  1.00  0.00    -0.010 A 
HETATM    4  C6  UNL     1      26.538   2.215  50.633  1.00  0.00     0.161 C 
HETATM    5  N1  UNL     1      26.001   3.564  50.669  1.00  0.00    -0.379 N 
HETATM    6  C7  UNL     1      24.760   4.055  51.142  1.00  0.00     0.129 A 
HETATM    7  C8  UNL     1      24.322   5.128  50.411  1.00  0.00     0.160 A 
HETATM    8  N3  UNL     1      23.164   5.662  50.804  1.00  0.00    -0.222 NA
HETATM    9  C15 UNL     1      22.454   5.209  51.831  1.00  0.00     0.238 A 
HETATM   10  N4  UNL     1      22.874   4.146  52.562  1.00  0.00    -0.215 NA
HETATM   11  C16 UNL     1      24.053   3.551  52.214  1.00  0.00     0.202 A 
HETATM   12  O1  UNL     1      24.307   2.492  53.074  1.00  0.00    -0.290 OA
HETATM   13  C17 UNL     1      25.399   1.638  53.016  1.00  0.00     0.083 A 
HETATM   14  C18 UNL     1      25.643   0.808  54.012  1.00  0.00     0.023 A 
HETATM   15  H8  UNL     1      26.601   4.353  50.293  1.00  0.00     0.160 HD
ENDROOT
BRANCH   7  16
HETATM   16  N2  UNL     1      25.014   5.640  49.280  1.00  0.00    -0.339 N 
HETATM   17  H9  UNL     1      24.914   5.379  48.277  1.00  0.00     0.167 HD
BRANCH  16  18
HETATM   18  C9  UNL     1      26.010   6.662  49.326  1.00  0.00     0.035 A 
HETATM   19  C10 UNL     1      25.989   7.774  50.149  1.00  0.00     0.032 A 
HETATM   20  C11 UNL     1      26.945   8.756  50.175  1.00  0.00     0.046 A 
HETATM   21  C12 UNL     1      28.027   8.663  49.329  1.00  0.00     0.138 A 
HETATM   22  F1  UNL     1      28.925   9.671  49.417  1.00  0.00    -0.204 F 
HETATM   23  C13 UNL     1      28.111   7.584  48.484  1.00  0.00     0.074 A 
HETATM   24 CL1  UNL     1      29.514   7.541  47.445  1.00  0.00    -0.081 Cl
HETATM   25  C14 UNL     1      27.115   6.602  48.487  1.00  0.00     0.056 A 
ENDBRANCH  16  18
ENDBRANCH   7  16
BRANCH   1  26
HETATM   26  C2  UNL     1      27.949   0.261  54.653  1.00  0.00    -0.024 C 
HETATM   27  C1  UNL     1      29.038   1.016  54.484  1.00  0.00     0.008 C 
ENDBRANCH   1  26
TORSDOF 3
ENDMDL
