MODEL 1
REMARK VINA RESULT:      -8.1      0.000      0.000
REMARK  6 active torsions:
REMARK  status: ('A' for Active; 'I' for Inactive)
REMARK    1  A    between atoms: N1_1  and  C1_2 
REMARK    2  A    between atoms: C1_2  and  C2_3 
REMARK    3  A    between atoms: C1_2  and  C15_19 
REMARK    4  A    between atoms: C3_4  and  C4_5 
REMARK    5  A    between atoms: C5_6  and  C6_7 
REMARK    6  A    between atoms: C6_7  and  N2_8 
ROOT
HETATM    1  C4  UNL     1      26.536   3.278  49.935  1.00  0.00    -0.003 C 
HETATM    2  C5  UNL     1      26.145   4.538  49.806  1.00  0.00    -0.007 C 
ENDROOT
BRANCH   1   3
HETATM    3  C3  UNL     1      26.061   2.434  51.026  1.00  0.00    -0.002 C 
HETATM    4  C2  UNL     1      26.909   1.997  51.949  1.00  0.00     0.002 C 
BRANCH   4   5
HETATM    5  C1  UNL     1      26.502   1.134  53.089  1.00  0.00     0.130 C 
BRANCH   5   6
HETATM    6  N1  UNL     1      26.729   1.942  54.289  1.00  0.00    -0.419 N 
HETATM    7  H1  UNL     1      27.148   1.416  55.063  1.00  0.00     0.150 HD
HETATM    8  H2  UNL     1      27.111   2.873  54.093  1.00  0.00     0.150 HD
ENDBRANCH   5   6
BRANCH   5   9
HETATM    9  C15 UNL     1      27.366  -0.074  53.102  1.00  0.00    -0.032 A 
HETATM   10  C16 UNL     1      26.966  -1.337  52.717  1.00  0.00     0.009 A 
HETATM   11  C17 UNL     1      27.870  -2.378  52.777  1.00  0.00     0.001 A 
HETATM   12  C18 UNL     1      29.157  -2.104  53.225  1.00  0.00     0.000 A 
HETATM   13  C19 UNL     1      29.585  -0.853  53.616  1.00  0.00     0.001 A 
HETATM   14  C20 UNL     1      28.653   0.163  53.543  1.00  0.00     0.009 A 
ENDBRANCH   5   9
ENDBRANCH   4   5
ENDBRANCH   1   3
BRANCH   2  15
HETATM   15  C6  UNL     1      26.653   5.385  48.668  1.00  0.00     0.151 C 
BRANCH  15  16
HETATM   16  N2  UNL     1      26.817   6.750  49.104  1.00  0.00    -0.369 N 
HETATM   17  C7  UNL     1      27.971   7.081  48.356  1.00  0.00     0.205 C 
HETATM   18  N3  UNL     1      28.589   7.042  47.233  1.00  0.00    -0.257 NA
HETATM   19  C8  UNL     1      29.899   7.641  47.103  1.00  0.00     0.114 C 
HETATM   20  C9  UNL     1      30.923   8.182  47.728  1.00  0.00    -0.007 C 
HETATM   21  C10 UNL     1      31.021   8.372  49.191  1.00  0.00     0.039 C 
HETATM   22  C11 UNL     1      30.771   9.820  49.552  1.00  0.00     0.082 C 
HETATM   23  S1  UNL     1      29.185  10.412  48.989  1.00  0.00    -0.141 SA
HETATM   24  C12 UNL     1      27.764   9.685  49.698  1.00  0.00     0.042 C 
HETATM   25  C13 UNL     1      26.719   8.948  50.129  1.00  0.00    -0.001 C 
HETATM   26  C14 UNL     1      26.097   7.629  50.003  1.00  0.00     0.151 C 
ENDBRANCH  15  16
ENDBRANCH   2  15
TORSDOF 6
ENDMDL
MODEL 2
REMARK VINA RESULT:      -8.1      2.412      3.576
REMARK  6 active torsions:
REMARK  status: ('A' for Active; 'I' for Inactive)
REMARK    1  A    between atoms: N1_1  and  C1_2 
REMARK    2  A    between atoms: C1_2  and  C2_3 
REMARK    3  A    between atoms: C1_2  and  C15_19 
REMARK    4  A    between atoms: C3_4  and  C4_5 
REMARK    5  A    between atoms: C5_6  and  C6_7 
REMARK    6  A    between atoms: C6_7  and  N2_8 
ROOT
HETATM    1  C4  UNL     1      24.074   2.289  52.367  1.00  0.00    -0.003 C 
HETATM    2  C5  UNL     1      24.824   2.771  51.386  1.00  0.00    -0.007 C 
ENDROOT
BRANCH   1   3
HETATM    3  C3  UNL     1      24.366   1.006  52.999  1.00  0.00    -0.002 C 
HETATM    4  C2  UNL     1      25.497   0.370  52.723  1.00  0.00     0.002 C 
BRANCH   4   5
HETATM    5  C1  UNL     1      25.865  -0.938  53.325  1.00  0.00     0.130 C 
BRANCH   5   6
HETATM    6  N1  UNL     1      25.295  -0.921  54.673  1.00  0.00    -0.419 N 
HETATM    7  H1  UNL     1      24.690  -0.113  54.852  1.00  0.00     0.150 HD
HETATM    8  H2  UNL     1      24.961  -1.837  54.991  1.00  0.00     0.150 HD
ENDBRANCH   5   6
BRANCH   5   9
HETATM    9  C15 UNL     1      27.347  -1.032  53.386  1.00  0.00    -0.032 A 
HETATM   10  C16 UNL     1      28.081  -2.161  53.087  1.00  0.00     0.009 A 
HETATM   11  C17 UNL     1      29.457  -2.115  53.184  1.00  0.00     0.001 A 
HETATM   12  C18 UNL     1      30.048  -0.922  53.581  1.00  0.00     0.000 A 
HETATM   13  C19 UNL     1      29.340   0.222  53.886  1.00  0.00     0.001 A 
HETATM   14  C20 UNL     1      27.966   0.138  53.778  1.00  0.00     0.009 A 
ENDBRANCH   5   9
ENDBRANCH   4   5
ENDBRANCH   1   3
BRANCH   2  15
HETATM   15  C6  UNL     1      24.497   4.100  50.753  1.00  0.00     0.151 C 
BRANCH  15  16
HETATM   16  N2  UNL     1      25.625   4.574  49.990  1.00  0.00    -0.369 N 
HETATM   17  C7  UNL     1      25.351   5.961  50.036  1.00  0.00     0.205 C 
HETATM   18  N3  UNL     1      25.002   6.980  50.731  1.00  0.00    -0.257 NA
HETATM   19  C8  UNL     1      24.900   8.282  50.112  1.00  0.00     0.114 C 
HETATM   20  C9  UNL     1      24.897   8.962  48.985  1.00  0.00    -0.007 C 
HETATM   21  C10 UNL     1      25.042   8.373  47.637  1.00  0.00     0.039 C 
HETATM   22  C11 UNL     1      26.441   8.609  47.107  1.00  0.00     0.082 C 
HETATM   23  S1  UNL     1      27.708   7.950  48.176  1.00  0.00    -0.141 SA
HETATM   24  C12 UNL     1      27.761   6.215  48.377  1.00  0.00     0.042 C 
HETATM   25  C13 UNL     1      27.620   4.901  48.648  1.00  0.00    -0.001 C 
HETATM   26  C14 UNL     1      26.757   3.944  49.341  1.00  0.00     0.151 C 
ENDBRANCH  15  16
ENDBRANCH   2  15
TORSDOF 6
ENDMDL
MODEL 3
REMARK VINA RESULT:      -7.9      1.161      2.249
REMARK  6 active torsions:
REMARK  status: ('A' for Active; 'I' for Inactive)
REMARK    1  A    between atoms: N1_1  and  C1_2 
REMARK    2  A    between atoms: C1_2  and  C2_3 
REMARK    3  A    between atoms: C1_2  and  C15_19 
REMARK    4  A    between atoms: C3_4  and  C4_5 
REMARK    5  A    between atoms: C5_6  and  C6_7 
REMARK    6  A    between atoms: C6_7  and  N2_8 
ROOT
HETATM    1  C4  UNL     1      26.220   3.502  49.785  1.00  0.00    -0.003 C 
HETATM    2  C5  UNL     1      26.062   4.816  49.728  1.00  0.00    -0.007 C 
ENDROOT
BRANCH   1   3
HETATM    3  C3  UNL     1      25.895   2.739  50.986  1.00  0.00    -0.002 C 
HETATM    4  C2  UNL     1      26.863   2.306  51.783  1.00  0.00     0.002 C 
BRANCH   4   5
HETATM    5  C1  UNL     1      26.612   1.525  53.022  1.00  0.00     0.130 C 
BRANCH   5   6
HETATM    6  N1  UNL     1      26.779   2.476  54.123  1.00  0.00    -0.419 N 
HETATM    7  H1  UNL     1      26.638   3.452  53.845  1.00  0.00     0.150 HD
HETATM    8  H2  UNL     1      26.345   2.170  55.000  1.00  0.00     0.150 HD
ENDBRANCH   5   6
BRANCH   5   9
HETATM    9  C15 UNL     1      27.623   0.440  53.112  1.00  0.00    -0.032 A 
HETATM   10  C16 UNL     1      27.377  -0.894  52.858  1.00  0.00     0.009 A 
HETATM   11  C17 UNL     1      28.407  -1.804  52.978  1.00  0.00     0.001 A 
HETATM   12  C18 UNL     1      29.660  -1.332  53.351  1.00  0.00     0.000 A 
HETATM   13  C19 UNL     1      29.935  -0.006  53.611  1.00  0.00     0.001 A 
HETATM   14  C20 UNL     1      28.880   0.875  53.481  1.00  0.00     0.009 A 
ENDBRANCH   5   9
ENDBRANCH   4   5
ENDBRANCH   1   3
BRANCH   2  15
HETATM   15  C6  UNL     1      26.408   5.576  48.473  1.00  0.00     0.151 C 
BRANCH  15  16
HETATM   16  N2  UNL     1      27.781   6.016  48.524  1.00  0.00    -0.369 N 
HETATM   17  C7  UNL     1      27.563   7.365  48.894  1.00  0.00     0.205 C 
HETATM   18  N3  UNL     1      26.945   8.203  49.641  1.00  0.00    -0.257 NA
HETATM   19  C8  UNL     1      27.206   9.620  49.515  1.00  0.00     0.114 C 
HETATM   20  C9  UNL     1      27.788  10.568  48.811  1.00  0.00    -0.007 C 
HETATM   21  C10 UNL     1      28.569  10.351  47.575  1.00  0.00     0.039 C 
HETATM   22  C11 UNL     1      30.051  10.451  47.865  1.00  0.00     0.082 C 
HETATM   23  S1  UNL     1      30.594   9.297  49.113  1.00  0.00    -0.141 SA
HETATM   24  C12 UNL     1      30.486   7.596  48.729  1.00  0.00     0.042 C 
HETATM   25  C13 UNL     1      30.189   6.310  48.452  1.00  0.00    -0.001 C 
HETATM   26  C14 UNL     1      29.065   5.384  48.307  1.00  0.00     0.151 C 
ENDBRANCH  15  16
ENDBRANCH   2  15
TORSDOF 6
ENDMDL
MODEL 4
REMARK VINA RESULT:      -7.9      5.089      7.243
REMARK  6 active torsions:
REMARK  status: ('A' for Active; 'I' for Inactive)
REMARK    1  A    between atoms: N1_1  and  C1_2 
REMARK    2  A    between atoms: C1_2  and  C2_3 
REMARK    3  A    between atoms: C1_2  and  C15_19 
REMARK    4  A    between atoms: C3_4  and  C4_5 
REMARK    5  A    between atoms: C5_6  and  C6_7 
REMARK    6  A    between atoms: C6_7  and  N2_8 
ROOT
HETATM    1  C4  UNL     1      25.931   2.968  50.378  1.00  0.00    -0.003 C 
HETATM    2  C5  UNL     1      24.922   3.795  50.611  1.00  0.00    -0.007 C 
ENDROOT
BRANCH   1   3
HETATM    3  C3  UNL     1      26.781   2.470  51.456  1.00  0.00    -0.002 C 
HETATM    4  C2  UNL     1      26.247   2.127  52.621  1.00  0.00     0.002 C 
BRANCH   4   5
HETATM    5  C1  UNL     1      27.045   1.612  53.765  1.00  0.00     0.130 C 
BRANCH   5   6
HETATM    6  N1  UNL     1      28.181   2.527  53.890  1.00  0.00    -0.419 N 
HETATM    7  H1  UNL     1      28.879   2.418  53.147  1.00  0.00     0.150 HD
HETATM    8  H2  UNL     1      27.913   3.483  54.146  1.00  0.00     0.150 HD
ENDBRANCH   5   6
BRANCH   5   9
HETATM    9  C15 UNL     1      27.513   0.240  53.437  1.00  0.00    -0.032 A 
HETATM   10  C16 UNL     1      26.712  -0.776  52.959  1.00  0.00     0.009 A 
HETATM   11  C17 UNL     1      27.273  -2.008  52.695  1.00  0.00     0.001 A 
HETATM   12  C18 UNL     1      28.634  -2.172  52.922  1.00  0.00     0.000 A 
HETATM   13  C19 UNL     1      29.459  -1.175  53.399  1.00  0.00     0.001 A 
HETATM   14  C20 UNL     1      28.863   0.043  53.653  1.00  0.00     0.009 A 
ENDBRANCH   5   9
ENDBRANCH   4   5
ENDBRANCH   1   3
BRANCH   2  15
HETATM   15  C6  UNL     1      24.062   4.292  49.477  1.00  0.00     0.151 C 
BRANCH  15  16
HETATM   16  N2  UNL     1      23.072   3.299  49.137  1.00  0.00    -0.369 N 
HETATM   17  C7  UNL     1      22.225   3.444  50.261  1.00  0.00     0.205 C 
HETATM   18  N3  UNL     1      21.608   4.228  51.066  1.00  0.00    -0.257 NA
HETATM   19  C8  UNL     1      20.802   3.684  52.136  1.00  0.00     0.114 C 
HETATM   20  C9  UNL     1      20.459   2.606  52.811  1.00  0.00    -0.007 C 
HETATM   21  C10 UNL     1      20.985   1.246  52.563  1.00  0.00     0.039 C 
HETATM   22  C11 UNL     1      19.959   0.412  51.826  1.00  0.00     0.082 C 
HETATM   23  S1  UNL     1      19.458   1.138  50.275  1.00  0.00    -0.141 SA
HETATM   24  C12 UNL     1      20.674   1.276  49.028  1.00  0.00     0.042 C 
HETATM   25  C13 UNL     1      21.698   1.538  48.190  1.00  0.00    -0.001 C 
HETATM   26  C14 UNL     1      22.877   2.389  48.028  1.00  0.00     0.151 C 
ENDBRANCH  15  16
ENDBRANCH   2  15
TORSDOF 6
ENDMDL
MODEL 5
REMARK VINA RESULT:      -7.7      2.055      3.285
REMARK  6 active torsions:
REMARK  status: ('A' for Active; 'I' for Inactive)
REMARK    1  A    between atoms: N1_1  and  C1_2 
REMARK    2  A    between atoms: C1_2  and  C2_3 
REMARK    3  A    between atoms: C1_2  and  C15_19 
REMARK    4  A    between atoms: C3_4  and  C4_5 
REMARK    5  A    between atoms: C5_6  and  C6_7 
REMARK    6  A    between atoms: C6_7  and  N2_8 
ROOT
HETATM    1  C4  UNL     1      26.658   4.810  49.232  1.00  0.00    -0.003 C 
HETATM    2  C5  UNL     1      27.828   4.869  48.611  1.00  0.00    -0.007 C 
ENDROOT
BRANCH   1   3
HETATM    3  C3  UNL     1      26.112   3.549  49.724  1.00  0.00    -0.002 C 
HETATM    4  C2  UNL     1      26.537   3.043  50.875  1.00  0.00     0.002 C 
BRANCH   4   5
HETATM    5  C1  UNL     1      26.030   1.766  51.442  1.00  0.00     0.130 C 
BRANCH   5   6
HETATM    6  N1  UNL     1      24.807   2.120  52.166  1.00  0.00    -0.419 N 
HETATM    7  H1  UNL     1      24.742   3.116  52.398  1.00  0.00     0.150 HD
HETATM    8  H2  UNL     1      23.965   1.667  51.796  1.00  0.00     0.150 HD
ENDBRANCH   5   6
BRANCH   5   9
HETATM    9  C15 UNL     1      27.051   1.223  52.375  1.00  0.00    -0.032 A 
HETATM   10  C16 UNL     1      27.238  -0.115  52.651  1.00  0.00     0.009 A 
HETATM   11  C17 UNL     1      28.224  -0.488  53.541  1.00  0.00     0.001 A 
HETATM   12  C18 UNL     1      28.994   0.511  54.124  1.00  0.00     0.000 A 
HETATM   13  C19 UNL     1      28.830   1.856  53.867  1.00  0.00     0.001 A 
HETATM   14  C20 UNL     1      27.833   2.191  52.973  1.00  0.00     0.009 A 
ENDBRANCH   5   9
ENDBRANCH   4   5
ENDBRANCH   1   3
BRANCH   2  15
HETATM   15  C6  UNL     1      28.365   6.187  48.114  1.00  0.00     0.151 C 
BRANCH  15  16
HETATM   16  N2  UNL     1      29.803   6.127  48.015  1.00  0.00    -0.369 N 
HETATM   17  C7  UNL     1      30.100   7.471  48.345  1.00  0.00     0.205 C 
HETATM   18  N3  UNL     1      29.887   8.477  49.110  1.00  0.00    -0.257 NA
HETATM   19  C8  UNL     1      30.602   9.715  48.899  1.00  0.00     0.114 C 
HETATM   20  C9  UNL     1      31.396  10.400  48.102  1.00  0.00    -0.007 C 
HETATM   21  C10 UNL     1      31.922   9.917  46.808  1.00  0.00     0.039 C 
HETATM   22  C11 UNL     1      33.371   9.503  46.951  1.00  0.00     0.082 C 
HETATM   23  S1  UNL     1      33.614   8.243  48.190  1.00  0.00    -0.141 SA
HETATM   24  C12 UNL     1      32.892   6.680  47.892  1.00  0.00     0.042 C 
HETATM   25  C13 UNL     1      32.145   5.573  47.701  1.00  0.00    -0.001 C 
HETATM   26  C14 UNL     1      30.764   5.089  47.704  1.00  0.00     0.151 C 
ENDBRANCH  15  16
ENDBRANCH   2  15
TORSDOF 6
ENDMDL
MODEL 6
REMARK VINA RESULT:      -7.6      3.508      5.028
REMARK  6 active torsions:
REMARK  status: ('A' for Active; 'I' for Inactive)
REMARK    1  A    between atoms: N1_1  and  C1_2 
REMARK    2  A    between atoms: C1_2  and  C2_3 
REMARK    3  A    between atoms: C1_2  and  C15_19 
REMARK    4  A    between atoms: C3_4  and  C4_5 
REMARK    5  A    between atoms: C5_6  and  C6_7 
REMARK    6  A    between atoms: C6_7  and  N2_8 
ROOT
HETATM    1  C4  UNL     1      23.360   1.744  52.177  1.00  0.00    -0.003 C 
HETATM    2  C5  UNL     1      23.190   1.752  50.863  1.00  0.00    -0.007 C 
ENDROOT
BRANCH   1   3
HETATM    3  C3  UNL     1      23.904   0.584  52.875  1.00  0.00    -0.002 C 
HETATM    4  C2  UNL     1      25.200   0.306  52.797  1.00  0.00     0.002 C 
BRANCH   4   5
HETATM    5  C1  UNL     1      25.829  -0.856  53.478  1.00  0.00     0.130 C 
BRANCH   5   6
HETATM    6  N1  UNL     1      25.258  -0.872  54.827  1.00  0.00    -0.419 N 
HETATM    7  H1  UNL     1      24.881   0.034  55.123  1.00  0.00     0.150 HD
HETATM    8  H2  UNL     1      24.692  -1.704  55.024  1.00  0.00     0.150 HD
ENDBRANCH   5   6
BRANCH   5   9
HETATM    9  C15 UNL     1      27.297  -0.634  53.535  1.00  0.00    -0.032 A 
HETATM   10  C16 UNL     1      27.905   0.549  53.901  1.00  0.00     0.009 A 
HETATM   11  C17 UNL     1      29.283   0.623  53.912  1.00  0.00     0.001 A 
HETATM   12  C18 UNL     1      30.004  -0.509  53.551  1.00  0.00     0.000 A 
HETATM   13  C19 UNL     1      29.423  -1.704  53.180  1.00  0.00     0.001 A 
HETATM   14  C20 UNL     1      28.043  -1.740  53.181  1.00  0.00     0.009 A 
ENDBRANCH   5   9
ENDBRANCH   4   5
ENDBRANCH   1   3
BRANCH   2  15
HETATM   15  C6  UNL     1      22.625   2.966  50.171  1.00  0.00     0.151 C 
BRANCH  15  16
HETATM   16  N2  UNL     1      23.650   3.969  50.018  1.00  0.00    -0.369 N 
HETATM   17  C7  UNL     1      22.885   5.114  50.343  1.00  0.00     0.205 C 
HETATM   18  N3  UNL     1      22.029   5.667  51.121  1.00  0.00    -0.257 NA
HETATM   19  C8  UNL     1      21.611   7.031  50.889  1.00  0.00     0.114 C 
HETATM   20  C9  UNL     1      21.633   8.059  50.066  1.00  0.00    -0.007 C 
HETATM   21  C10 UNL     1      22.308   8.081  48.751  1.00  0.00     0.039 C 
HETATM   22  C11 UNL     1      23.607   8.854  48.838  1.00  0.00     0.082 C 
HETATM   23  S1  UNL     1      24.726   8.196  50.062  1.00  0.00    -0.141 SA
HETATM   24  C12 UNL     1      25.360   6.592  49.784  1.00  0.00     0.042 C 
HETATM   25  C13 UNL     1      25.649   5.285  49.615  1.00  0.00    -0.001 C 
HETATM   26  C14 UNL     1      25.055   3.949  49.667  1.00  0.00     0.151 C 
ENDBRANCH  15  16
ENDBRANCH   2  15
TORSDOF 6
ENDMDL
MODEL 7
REMARK VINA RESULT:      -7.5      2.998      4.318
REMARK  6 active torsions:
REMARK  status: ('A' for Active; 'I' for Inactive)
REMARK    1  A    between atoms: N1_1  and  C1_2 
REMARK    2  A    between atoms: C1_2  and  C2_3 
REMARK    3  A    between atoms: C1_2  and  C15_19 
REMARK    4  A    between atoms: C3_4  and  C4_5 
REMARK    5  A    between atoms: C5_6  and  C6_7 
REMARK    6  A    between atoms: C6_7  and  N2_8 
ROOT
HETATM    1  C4  UNL     1      27.649   4.610  48.581  1.00  0.00    -0.003 C 
HETATM    2  C5  UNL     1      28.476   5.645  48.590  1.00  0.00    -0.007 C 
ENDROOT
BRANCH   1   3
HETATM    3  C3  UNL     1      26.562   4.487  49.547  1.00  0.00    -0.002 C 
HETATM    4  C2  UNL     1      26.002   3.305  49.773  1.00  0.00     0.002 C 
BRANCH   4   5
HETATM    5  C1  UNL     1      24.891   3.099  50.739  1.00  0.00     0.130 C 
BRANCH   5   6
HETATM    6  N1  UNL     1      24.881   4.296  51.583  1.00  0.00    -0.419 N 
HETATM    7  H1  UNL     1      24.106   4.317  52.253  1.00  0.00     0.150 HD
HETATM    8  H2  UNL     1      25.809   4.564  51.927  1.00  0.00     0.150 HD
ENDBRANCH   5   6
BRANCH   5   9
HETATM    9  C15 UNL     1      25.188   1.890  51.552  1.00  0.00    -0.032 A 
HETATM   10  C16 UNL     1      26.410   1.252  51.603  1.00  0.00     0.009 A 
HETATM   11  C17 UNL     1      26.553   0.134  52.400  1.00  0.00     0.001 A 
HETATM   12  C18 UNL     1      25.450  -0.302  53.123  1.00  0.00     0.000 A 
HETATM   13  C19 UNL     1      24.217   0.315  53.091  1.00  0.00     0.001 A 
HETATM   14  C20 UNL     1      24.111   1.430  52.283  1.00  0.00     0.009 A 
ENDBRANCH   5   9
ENDBRANCH   4   5
ENDBRANCH   1   3
BRANCH   2  15
HETATM   15  C6  UNL     1      29.591   5.744  47.580  1.00  0.00     0.151 C 
BRANCH  15  16
HETATM   16  N2  UNL     1      30.621   6.629  48.067  1.00  0.00    -0.369 N 
HETATM   17  C7  UNL     1      31.734   6.047  47.415  1.00  0.00     0.205 C 
HETATM   18  N3  UNL     1      32.233   5.559  46.340  1.00  0.00    -0.257 NA
HETATM   19  C8  UNL     1      33.597   5.081  46.323  1.00  0.00     0.114 C 
HETATM   20  C9  UNL     1      34.662   4.781  47.038  1.00  0.00    -0.007 C 
HETATM   21  C10 UNL     1      34.757   4.894  48.509  1.00  0.00     0.039 C 
HETATM   22  C11 UNL     1      35.553   6.123  48.892  1.00  0.00     0.082 C 
HETATM   23  S1  UNL     1      34.863   7.630  48.232  1.00  0.00    -0.141 SA
HETATM   24  C12 UNL     1      33.287   8.110  48.813  1.00  0.00     0.042 C 
HETATM   25  C13 UNL     1      31.995   8.313  49.146  1.00  0.00    -0.001 C 
HETATM   26  C14 UNL     1      30.646   7.788  48.935  1.00  0.00     0.151 C 
ENDBRANCH  15  16
ENDBRANCH   2  15
TORSDOF 6
ENDMDL
MODEL 8
REMARK VINA RESULT:      -7.4      5.774      7.027
REMARK  6 active torsions:
REMARK  status: ('A' for Active; 'I' for Inactive)
REMARK    1  A    between atoms: N1_1  and  C1_2 
REMARK    2  A    between atoms: C1_2  and  C2_3 
REMARK    3  A    between atoms: C1_2  and  C15_19 
REMARK    4  A    between atoms: C3_4  and  C4_5 
REMARK    5  A    between atoms: C5_6  and  C6_7 
REMARK    6  A    between atoms: C6_7  and  N2_8 
ROOT
HETATM    1  C4  UNL     1      22.995  -0.511  53.239  1.00  0.00    -0.003 C 
HETATM    2  C5  UNL     1      22.365   0.491  52.642  1.00  0.00    -0.007 C 
ENDROOT
BRANCH   1   3
HETATM    3  C3  UNL     1      24.228  -0.304  53.991  1.00  0.00    -0.002 C 
HETATM    4  C2  UNL     1      25.099   0.618  53.603  1.00  0.00     0.002 C 
BRANCH   4   5
HETATM    5  C1  UNL     1      26.375   0.888  54.315  1.00  0.00     0.130 C 
BRANCH   5   6
HETATM    6  N1  UNL     1      26.773   2.236  53.904  1.00  0.00    -0.419 N 
HETATM    7  H1  UNL     1      27.450   2.246  53.134  1.00  0.00     0.150 HD
HETATM    8  H2  UNL     1      25.992   2.898  53.852  1.00  0.00     0.150 HD
ENDBRANCH   5   6
BRANCH   5   9
HETATM    9  C15 UNL     1      27.384  -0.111  53.877  1.00  0.00    -0.032 A 
HETATM   10  C16 UNL     1      27.115  -1.215  53.094  1.00  0.00     0.009 A 
HETATM   11  C17 UNL     1      28.146  -2.068  52.756  1.00  0.00     0.001 A 
HETATM   12  C18 UNL     1      29.421  -1.774  53.223  1.00  0.00     0.000 A 
HETATM   13  C19 UNL     1      29.719  -0.679  54.007  1.00  0.00     0.001 A 
HETATM   14  C20 UNL     1      28.663   0.152  54.324  1.00  0.00     0.009 A 
ENDBRANCH   5   9
ENDBRANCH   4   5
ENDBRANCH   1   3
BRANCH   2  15
HETATM   15  C6  UNL     1      21.092   0.245  51.872  1.00  0.00     0.151 C 
BRANCH  15  16
HETATM   16  N2  UNL     1      20.506   1.501  51.474  1.00  0.00    -0.369 N 
HETATM   17  C7  UNL     1      21.026   1.578  50.160  1.00  0.00     0.205 C 
HETATM   18  N3  UNL     1      21.267   0.987  49.048  1.00  0.00    -0.257 NA
HETATM   19  C8  UNL     1      21.889   1.708  47.961  1.00  0.00     0.114 C 
HETATM   20  C9  UNL     1      22.500   2.813  47.587  1.00  0.00    -0.007 C 
HETATM   21  C10 UNL     1      22.799   3.960  48.472  1.00  0.00     0.039 C 
HETATM   22  C11 UNL     1      21.826   5.091  48.213  1.00  0.00     0.082 C 
HETATM   23  S1  UNL     1      20.124   4.607  48.435  1.00  0.00    -0.141 SA
HETATM   24  C12 UNL     1      19.625   4.156  50.047  1.00  0.00     0.042 C 
HETATM   25  C13 UNL     1      19.358   3.629  51.260  1.00  0.00    -0.001 C 
HETATM   26  C14 UNL     1      19.635   2.469  52.109  1.00  0.00     0.151 C 
ENDBRANCH  15  16
ENDBRANCH   2  15
TORSDOF 6
ENDMDL
MODEL 9
REMARK VINA RESULT:      -7.4      7.283     10.407
REMARK  6 active torsions:
REMARK  status: ('A' for Active; 'I' for Inactive)
REMARK    1  A    between atoms: N1_1  and  C1_2 
REMARK    2  A    between atoms: C1_2  and  C2_3 
REMARK    3  A    between atoms: C1_2  and  C15_19 
REMARK    4  A    between atoms: C3_4  and  C4_5 
REMARK    5  A    between atoms: C5_6  and  C6_7 
REMARK    6  A    between atoms: C6_7  and  N2_8 
ROOT
HETATM    1  C4  UNL     1      23.010   0.450  52.529  1.00  0.00    -0.003 C 
HETATM    2  C5  UNL     1      21.845   1.073  52.621  1.00  0.00    -0.007 C 
ENDROOT
BRANCH   1   3
HETATM    3  C3  UNL     1      24.066   0.644  53.518  1.00  0.00    -0.002 C 
HETATM    4  C2  UNL     1      25.308   0.899  53.126  1.00  0.00     0.002 C 
BRANCH   4   5
HETATM    5  C1  UNL     1      26.436   1.108  54.072  1.00  0.00     0.130 C 
BRANCH   5   6
HETATM    6  N1  UNL     1      26.943   2.451  53.782  1.00  0.00    -0.419 N 
HETATM    7  H1  UNL     1      26.686   2.794  52.851  1.00  0.00     0.150 HD
HETATM    8  H2  UNL     1      26.847   3.105  54.566  1.00  0.00     0.150 HD
ENDBRANCH   5   6
BRANCH   5   9
HETATM    9  C15 UNL     1      27.479   0.086  53.799  1.00  0.00    -0.032 A 
HETATM   10  C16 UNL     1      28.821   0.230  54.086  1.00  0.00     0.009 A 
HETATM   11  C17 UNL     1      29.689  -0.799  53.780  1.00  0.00     0.001 A 
HETATM   12  C18 UNL     1      29.167  -1.946  53.194  1.00  0.00     0.000 A 
HETATM   13  C19 UNL     1      27.831  -2.117  52.896  1.00  0.00     0.001 A 
HETATM   14  C20 UNL     1      26.994  -1.067  53.215  1.00  0.00     0.009 A 
ENDBRANCH   5   9
ENDBRANCH   4   5
ENDBRANCH   1   3
BRANCH   2  15
HETATM   15  C6  UNL     1      20.774   0.852  51.583  1.00  0.00     0.151 C 
BRANCH  15  16
HETATM   16  N2  UNL     1      19.702   0.063  52.140  1.00  0.00    -0.369 N 
HETATM   17  C7  UNL     1      18.651   0.498  51.298  1.00  0.00     0.205 C 
HETATM   18  N3  UNL     1      18.248   0.767  50.111  1.00  0.00    -0.257 NA
HETATM   19  C8  UNL     1      16.892   1.217  49.889  1.00  0.00     0.114 C 
HETATM   20  C9  UNL     1      15.771   1.634  50.441  1.00  0.00    -0.007 C 
HETATM   21  C10 UNL     1      15.551   1.801  51.893  1.00  0.00     0.039 C 
HETATM   22  C11 UNL     1      14.720   0.657  52.435  1.00  0.00     0.082 C 
HETATM   23  S1  UNL     1      15.457  -0.940  52.134  1.00  0.00    -0.141 SA
HETATM   24  C12 UNL     1      16.976  -1.281  52.926  1.00  0.00     0.042 C 
HETATM   25  C13 UNL     1      18.233  -1.402  53.399  1.00  0.00    -0.001 C 
HETATM   26  C14 UNL     1      19.598  -0.910  53.208  1.00  0.00     0.151 C 
ENDBRANCH  15  16
ENDBRANCH   2  15
TORSDOF 6
ENDMDL
