MODEL 1
REMARK VINA RESULT:      -7.0      0.000      0.000
REMARK  7 active torsions:
REMARK  status: ('A' for Active; 'I' for Inactive)
REMARK    1  A    between atoms: C2_2  and  N1_3 
REMARK    2  A    between atoms: C5_7  and  C6_8 
REMARK    3  A    between atoms: C8_10  and  N3_11 
REMARK    4  A    between atoms: C10_15  and  N5_16 
REMARK    5  A    between atoms: N5_16  and  C11_17 
REMARK    6  A    between atoms: C11_17  and  C12_18 
REMARK    7  A    between atoms: C12_18  and  N6_19 
ROOT
HETATM    1  N1  UNL     1      22.193   0.170  52.781  1.00  0.00    -0.324 N 
HETATM    2  C3  UNL     1      22.806  -1.009  53.064  1.00  0.00     0.212 A 
HETATM    3  N2  UNL     1      24.082  -0.736  53.402  1.00  0.00    -0.238 NA
HETATM    4  C4  UNL     1      24.263   0.611  53.331  1.00  0.00     0.134 A 
HETATM    5  C5  UNL     1      25.439   1.284  53.605  1.00  0.00     0.116 A 
HETATM    6  N4  UNL     1      25.358   2.632  53.458  1.00  0.00    -0.060 NA
HETATM    7  C10 UNL     1      24.204   3.234  53.075  1.00  0.00     0.725 A 
HETATM    8  N7  UNL     1      23.075   2.530  52.817  1.00  0.00    -0.042 NA
HETATM    9  C13 UNL     1      23.081   1.195  52.941  1.00  0.00     0.181 A 
ENDROOT
BRANCH   5  10
HETATM   10  C6  UNL     1      26.713   0.708  54.022  1.00  0.00    -0.007 A 
HETATM   11  C7  UNL     1      27.186  -0.101  54.894  1.00  0.00     0.021 A 
HETATM   12  C8  UNL     1      28.540   0.025  54.449  1.00  0.00     0.264 A 
HETATM   13  C9  UNL     1      28.016   0.951  53.425  1.00  0.00     0.153 A 
HETATM   14 CL1  UNL     1      28.609   2.620  53.496  1.00  0.00    -0.117 Cl
BRANCH  12  15
HETATM   15  N3  UNL     1      29.167  -1.191  53.954  1.00  0.00     0.088 N 
HETATM   16  H9  UNL     1      29.313  -1.881  54.714  1.00  0.00     0.313 HD
HETATM   17  H10 UNL     1      30.044  -0.956  53.440  1.00  0.00     0.313 HD
ENDBRANCH  12  15
ENDBRANCH   5  10
BRANCH   7  18
HETATM   18  N5  UNL     1      24.040   4.632  52.904  1.00  0.00    -0.221 N 
HETATM   19  H12 UNL     1      24.303   5.407  53.549  1.00  0.00     0.177 HD
BRANCH  18  20
HETATM   20  C11 UNL     1      23.402   4.813  51.591  1.00  0.00     0.168 C 
BRANCH  20  21
HETATM   21  C12 UNL     1      23.984   6.053  50.988  1.00  0.00     0.286 C 
BRANCH  21  22
HETATM   22  N6  UNL     1      24.445   6.949  52.012  1.00  0.00     0.079 N 
HETATM   23  H17 UNL     1      25.225   6.563  52.570  1.00  0.00     0.312 HD
HETATM   24  H18 UNL     1      23.650   7.271  52.580  1.00  0.00     0.312 HD
ENDBRANCH  21  22
ENDBRANCH  20  21
ENDBRANCH  18  20
ENDBRANCH   7  18
BRANCH   1  25
HETATM   25  C2  UNL     1      20.835   0.431  52.370  1.00  0.00     0.127 C 
HETATM   26  C1  UNL     1      19.819  -0.291  53.231  1.00  0.00     0.027 C 
ENDBRANCH   1  25
TORSDOF 7
ENDMDL
MODEL 2
REMARK VINA RESULT:      -7.0      2.014      6.103
REMARK  7 active torsions:
REMARK  status: ('A' for Active; 'I' for Inactive)
REMARK    1  A    between atoms: C2_2  and  N1_3 
REMARK    2  A    between atoms: C5_7  and  C6_8 
REMARK    3  A    between atoms: C8_10  and  N3_11 
REMARK    4  A    between atoms: C10_15  and  N5_16 
REMARK    5  A    between atoms: N5_16  and  C11_17 
REMARK    6  A    between atoms: C11_17  and  C12_18 
REMARK    7  A    between atoms: C12_18  and  N6_19 
ROOT
HETATM    1  N1  UNL     1      27.599   0.442  53.275  1.00  0.00    -0.324 N 
HETATM    2  C3  UNL     1      28.059   1.700  53.049  1.00  0.00     0.212 A 
HETATM    3  N2  UNL     1      26.994   2.486  52.795  1.00  0.00    -0.238 NA
HETATM    4  C4  UNL     1      25.872   1.719  52.864  1.00  0.00     0.134 A 
HETATM    5  C5  UNL     1      24.577   2.161  52.664  1.00  0.00     0.116 A 
HETATM    6  N4  UNL     1      23.632   1.193  52.788  1.00  0.00    -0.060 NA
HETATM    7  C10 UNL     1      23.965  -0.087  53.086  1.00  0.00     0.725 A 
HETATM    8  N7  UNL     1      25.251  -0.472  53.273  1.00  0.00    -0.042 NA
HETATM    9  C13 UNL     1      26.238   0.429  53.165  1.00  0.00     0.181 A 
ENDROOT
BRANCH   5  10
HETATM   10  C6  UNL     1      24.144   3.517  52.344  1.00  0.00    -0.007 A 
HETATM   11  C7  UNL     1      23.470   4.478  52.855  1.00  0.00     0.021 A 
HETATM   12  C8  UNL     1      23.643   5.351  51.734  1.00  0.00     0.264 A 
HETATM   13  C9  UNL     1      24.434   4.260  51.129  1.00  0.00     0.153 A 
HETATM   14 CL1  UNL     1      23.805   3.573  49.622  1.00  0.00    -0.117 Cl
BRANCH  12  15
HETATM   15  N3  UNL     1      24.354   6.593  51.992  1.00  0.00     0.088 N 
HETATM   16  H9  UNL     1      24.255   6.891  52.981  1.00  0.00     0.313 HD
HETATM   17  H10 UNL     1      24.053   7.325  51.311  1.00  0.00     0.313 HD
ENDBRANCH  12  15
ENDBRANCH   5  10
BRANCH   7  18
HETATM   18  N5  UNL     1      23.037  -1.150  53.236  1.00  0.00    -0.221 N 
HETATM   19  H12 UNL     1      22.715  -1.843  52.529  1.00  0.00     0.177 HD
BRANCH  18  20
HETATM   20  C11 UNL     1      22.584  -1.102  54.635  1.00  0.00     0.168 C 
BRANCH  20  21
HETATM   21  C12 UNL     1      21.087  -1.088  54.610  1.00  0.00     0.286 C 
BRANCH  21  22
HETATM   22  N6  UNL     1      20.588   0.235  54.868  1.00  0.00     0.079 N 
HETATM   23  H17 UNL     1      21.315   0.966  54.799  1.00  0.00     0.312 HD
HETATM   24  H18 UNL     1      20.071   0.247  55.758  1.00  0.00     0.312 HD
ENDBRANCH  21  22
ENDBRANCH  20  21
ENDBRANCH  18  20
ENDBRANCH   7  18
BRANCH   1  25
HETATM   25  C2  UNL     1      28.323  -0.765  53.589  1.00  0.00     0.127 C 
HETATM   26  C1  UNL     1      29.824  -0.576  53.522  1.00  0.00     0.027 C 
ENDBRANCH   1  25
TORSDOF 7
ENDMDL
MODEL 3
REMARK VINA RESULT:      -6.9      2.248      5.117
REMARK  7 active torsions:
REMARK  status: ('A' for Active; 'I' for Inactive)
REMARK    1  A    between atoms: C2_2  and  N1_3 
REMARK    2  A    between atoms: C5_7  and  C6_8 
REMARK    3  A    between atoms: C8_10  and  N3_11 
REMARK    4  A    between atoms: C10_15  and  N5_16 
REMARK    5  A    between atoms: N5_16  and  C11_17 
REMARK    6  A    between atoms: C11_17  and  C12_18 
REMARK    7  A    between atoms: C12_18  and  N6_19 
ROOT
HETATM    1  N1  UNL     1      27.760   0.570  53.902  1.00  0.00    -0.324 N 
HETATM    2  C3  UNL     1      27.216  -0.444  54.624  1.00  0.00     0.212 A 
HETATM    3  N2  UNL     1      25.886  -0.437  54.401  1.00  0.00    -0.238 NA
HETATM    4  C4  UNL     1      25.604   0.579  53.541  1.00  0.00     0.134 A 
HETATM    5  C5  UNL     1      24.348   0.913  53.068  1.00  0.00     0.116 A 
HETATM    6  N4  UNL     1      24.334   1.972  52.218  1.00  0.00    -0.060 NA
HETATM    7  C10 UNL     1      25.476   2.624  51.883  1.00  0.00     0.725 A 
HETATM    8  N7  UNL     1      26.685   2.259  52.373  1.00  0.00    -0.042 NA
HETATM    9  C13 UNL     1      26.775   1.222  53.218  1.00  0.00     0.181 A 
ENDROOT
BRANCH   5  10
HETATM   10  C6  UNL     1      23.082   0.260  53.382  1.00  0.00    -0.007 A 
HETATM   11  C7  UNL     1      22.619  -0.688  54.107  1.00  0.00     0.021 A 
HETATM   12  C8  UNL     1      21.264  -0.509  53.685  1.00  0.00     0.264 A 
HETATM   13  C9  UNL     1      21.772   0.597  52.849  1.00  0.00     0.153 A 
HETATM   14 CL1  UNL     1      21.570   0.418  51.097  1.00  0.00    -0.117 Cl
BRANCH  12  15
HETATM   15  N3  UNL     1      20.312  -0.145  54.722  1.00  0.00     0.088 N 
HETATM   16  H9  UNL     1      20.669  -0.380  55.667  1.00  0.00     0.313 HD
HETATM   17  H10 UNL     1      19.381  -0.571  54.518  1.00  0.00     0.313 HD
ENDBRANCH  12  15
ENDBRANCH   5  10
BRANCH   7  18
HETATM   18  N5  UNL     1      25.543   3.733  51.001  1.00  0.00    -0.221 N 
HETATM   19  H12 UNL     1      26.334   4.046  50.400  1.00  0.00     0.177 HD
BRANCH  18  20
HETATM   20  C11 UNL     1      24.235   4.402  51.084  1.00  0.00     0.168 C 
BRANCH  20  21
HETATM   21  C12 UNL     1      24.466   5.853  50.796  1.00  0.00     0.286 C 
BRANCH  21  22
HETATM   22  N6  UNL     1      24.351   6.634  51.997  1.00  0.00     0.079 N 
HETATM   23  H17 UNL     1      23.471   7.174  52.049  1.00  0.00     0.312 HD
HETATM   24  H18 UNL     1      25.196   7.207  52.125  1.00  0.00     0.312 HD
ENDBRANCH  21  22
ENDBRANCH  20  21
ENDBRANCH  18  20
ENDBRANCH   7  18
BRANCH   1  25
HETATM   25  C2  UNL     1      29.135   0.991  53.791  1.00  0.00     0.127 C 
HETATM   26  C1  UNL     1      30.077  -0.166  53.531  1.00  0.00     0.027 C 
ENDBRANCH   1  25
TORSDOF 7
ENDMDL
MODEL 4
REMARK VINA RESULT:      -6.5      2.647      5.302
REMARK  7 active torsions:
REMARK  status: ('A' for Active; 'I' for Inactive)
REMARK    1  A    between atoms: C2_2  and  N1_3 
REMARK    2  A    between atoms: C5_7  and  C6_8 
REMARK    3  A    between atoms: C8_10  and  N3_11 
REMARK    4  A    between atoms: C10_15  and  N5_16 
REMARK    5  A    between atoms: N5_16  and  C11_17 
REMARK    6  A    between atoms: C11_17  and  C12_18 
REMARK    7  A    between atoms: C12_18  and  N6_19 
ROOT
HETATM    1  N1  UNL     1      26.812   0.263  53.551  1.00  0.00    -0.324 N 
HETATM    2  C3  UNL     1      25.778  -0.509  53.974  1.00  0.00     0.212 A 
HETATM    3  N2  UNL     1      24.667  -0.092  53.334  1.00  0.00    -0.238 NA
HETATM    4  C4  UNL     1      25.010   0.937  52.513  1.00  0.00     0.134 A 
HETATM    5  C5  UNL     1      24.147   1.634  51.687  1.00  0.00     0.116 A 
HETATM    6  N4  UNL     1      24.740   2.621  50.966  1.00  0.00    -0.060 NA
HETATM    7  C10 UNL     1      26.068   2.874  51.072  1.00  0.00     0.725 A 
HETATM    8  N7  UNL     1      26.874   2.162  51.896  1.00  0.00    -0.042 NA
HETATM    9  C13 UNL     1      26.358   1.172  52.640  1.00  0.00     0.181 A 
ENDROOT
BRANCH   5  10
HETATM   10  C6  UNL     1      22.714   1.419  51.520  1.00  0.00    -0.007 A 
HETATM   11  C7  UNL     1      21.899   0.763  50.782  1.00  0.00     0.021 A 
HETATM   12  C8  UNL     1      20.726   1.250  51.442  1.00  0.00     0.264 A 
HETATM   13  C9  UNL     1      21.647   2.006  52.314  1.00  0.00     0.153 A 
HETATM   14 CL1  UNL     1      21.512   3.772  52.259  1.00  0.00    -0.117 Cl
BRANCH  12  15
HETATM   15  N3  UNL     1      19.897   0.249  52.097  1.00  0.00     0.088 N 
HETATM   16  H9  UNL     1      20.183  -0.713  51.836  1.00  0.00     0.313 HD
HETATM   17  H10 UNL     1      18.889   0.443  51.910  1.00  0.00     0.313 HD
ENDBRANCH  12  15
ENDBRANCH   5  10
BRANCH   7  18
HETATM   18  N5  UNL     1      26.758   3.882  50.351  1.00  0.00    -0.221 N 
HETATM   19  H12 UNL     1      27.781   3.981  50.178  1.00  0.00     0.177 HD
BRANCH  18  20
HETATM   20  C11 UNL     1      25.730   4.814  49.863  1.00  0.00     0.168 C 
BRANCH  20  21
HETATM   21  C12 UNL     1      26.425   5.824  49.005  1.00  0.00     0.286 C 
BRANCH  21  22
HETATM   22  N6  UNL     1      26.704   7.019  49.751  1.00  0.00     0.079 N 
HETATM   23  H17 UNL     1      26.726   7.871  49.165  1.00  0.00     0.312 HD
HETATM   24  H18 UNL     1      27.550   6.888  50.322  1.00  0.00     0.312 HD
ENDBRANCH  21  22
ENDBRANCH  20  21
ENDBRANCH  18  20
ENDBRANCH   7  18
BRANCH   1  25
HETATM   25  C2  UNL     1      28.205   0.229  53.925  1.00  0.00     0.127 C 
HETATM   26  C1  UNL     1      28.911  -1.012  53.422  1.00  0.00     0.027 C 
ENDBRANCH   1  25
TORSDOF 7
ENDMDL
MODEL 5
REMARK VINA RESULT:      -6.4      1.518      1.691
REMARK  7 active torsions:
REMARK  status: ('A' for Active; 'I' for Inactive)
REMARK    1  A    between atoms: C2_2  and  N1_3 
REMARK    2  A    between atoms: C5_7  and  C6_8 
REMARK    3  A    between atoms: C8_10  and  N3_11 
REMARK    4  A    between atoms: C10_15  and  N5_16 
REMARK    5  A    between atoms: N5_16  and  C11_17 
REMARK    6  A    between atoms: C11_17  and  C12_18 
REMARK    7  A    between atoms: C12_18  and  N6_19 
ROOT
HETATM    1  N1  UNL     1      21.161  -0.023  52.960  1.00  0.00    -0.324 N 
HETATM    2  C3  UNL     1      21.852  -1.110  53.393  1.00  0.00     0.212 A 
HETATM    3  N2  UNL     1      23.165  -0.811  53.329  1.00  0.00    -0.238 NA
HETATM    4  C4  UNL     1      23.291   0.460  52.859  1.00  0.00     0.134 A 
HETATM    5  C5  UNL     1      24.482   1.131  52.652  1.00  0.00     0.116 A 
HETATM    6  N4  UNL     1      24.335   2.394  52.174  1.00  0.00    -0.060 NA
HETATM    7  C10 UNL     1      23.109   2.921  51.932  1.00  0.00     0.725 A 
HETATM    8  N7  UNL     1      21.969   2.222  52.151  1.00  0.00    -0.042 NA
HETATM    9  C13 UNL     1      22.036   0.969  52.622  1.00  0.00     0.181 A 
ENDROOT
BRANCH   5  10
HETATM   10  C6  UNL     1      25.832   0.632  52.890  1.00  0.00    -0.007 A 
HETATM   11  C7  UNL     1      26.804   0.089  52.257  1.00  0.00     0.021 A 
HETATM   12  C8  UNL     1      27.656   0.001  53.403  1.00  0.00     0.264 A 
HETATM   13  C9  UNL     1      26.554   0.639  54.151  1.00  0.00     0.153 A 
HETATM   14 CL1  UNL     1      25.840  -0.313  55.465  1.00  0.00    -0.117 Cl
BRANCH  12  15
HETATM   15  N3  UNL     1      28.902   0.749  53.334  1.00  0.00     0.088 N 
HETATM   16  H9  UNL     1      29.597   0.276  52.728  1.00  0.00     0.313 HD
HETATM   17  H10 UNL     1      29.259   0.937  54.297  1.00  0.00     0.313 HD
ENDBRANCH  12  15
ENDBRANCH   5  10
BRANCH   7  18
HETATM   18  N5  UNL     1      22.875   4.230  51.438  1.00  0.00    -0.221 N 
HETATM   19  H12 UNL     1      21.974   4.746  51.352  1.00  0.00     0.177 HD
BRANCH  18  20
HETATM   20  C11 UNL     1      24.190   4.761  51.048  1.00  0.00     0.168 C 
BRANCH  20  21
HETATM   21  C12 UNL     1      24.031   6.240  50.874  1.00  0.00     0.286 C 
BRANCH  21  22
HETATM   22  N6  UNL     1      24.483   6.941  52.044  1.00  0.00     0.079 N 
HETATM   23  H17 UNL     1      23.730   7.116  52.731  1.00  0.00     0.312 HD
HETATM   24  H18 UNL     1      24.996   7.788  51.768  1.00  0.00     0.312 HD
ENDBRANCH  21  22
ENDBRANCH  20  21
ENDBRANCH  18  20
ENDBRANCH   7  18
BRANCH   1  25
HETATM   25  C2  UNL     1      19.738   0.177  52.833  1.00  0.00     0.127 C 
HETATM   26  C1  UNL     1      18.938  -1.009  53.331  1.00  0.00     0.027 C 
ENDBRANCH   1  25
TORSDOF 7
ENDMDL
MODEL 6
REMARK VINA RESULT:      -6.2      2.213      4.664
REMARK  7 active torsions:
REMARK  status: ('A' for Active; 'I' for Inactive)
REMARK    1  A    between atoms: C2_2  and  N1_3 
REMARK    2  A    between atoms: C5_7  and  C6_8 
REMARK    3  A    between atoms: C8_10  and  N3_11 
REMARK    4  A    between atoms: C10_15  and  N5_16 
REMARK    5  A    between atoms: N5_16  and  C11_17 
REMARK    6  A    between atoms: C11_17  and  C12_18 
REMARK    7  A    between atoms: C12_18  and  N6_19 
ROOT
HETATM    1  N1  UNL     1      24.331   3.448  49.969  1.00  0.00    -0.324 N 
HETATM    2  C3  UNL     1      25.656   3.699  50.135  1.00  0.00     0.212 A 
HETATM    3  N2  UNL     1      26.118   2.852  51.077  1.00  0.00    -0.238 NA
HETATM    4  C4  UNL     1      25.083   2.075  51.496  1.00  0.00     0.134 A 
HETATM    5  C5  UNL     1      25.154   1.082  52.456  1.00  0.00     0.116 A 
HETATM    6  N4  UNL     1      23.975   0.450  52.694  1.00  0.00    -0.060 NA
HETATM    7  C10 UNL     1      22.844   0.790  52.028  1.00  0.00     0.725 A 
HETATM    8  N7  UNL     1      22.824   1.771  51.094  1.00  0.00    -0.042 NA
HETATM    9  C13 UNL     1      23.951   2.439  50.807  1.00  0.00     0.181 A 
ENDROOT
BRANCH   5  10
HETATM   10  C6  UNL     1      26.330   0.662  53.210  1.00  0.00    -0.007 A 
HETATM   11  C7  UNL     1      27.551   0.327  53.018  1.00  0.00     0.021 A 
HETATM   12  C8  UNL     1      27.829   0.101  54.404  1.00  0.00     0.264 A 
HETATM   13  C9  UNL     1      26.428   0.496  54.650  1.00  0.00     0.153 A 
HETATM   14 CL1  UNL     1      25.377  -0.736  55.369  1.00  0.00    -0.117 Cl
BRANCH  12  15
HETATM   15  N3  UNL     1      28.850   0.949  54.999  1.00  0.00     0.088 N 
HETATM   16  H9  UNL     1      28.863   0.864  56.032  1.00  0.00     0.313 HD
HETATM   17  H10 UNL     1      28.732   1.933  54.671  1.00  0.00     0.313 HD
ENDBRANCH  12  15
ENDBRANCH   5  10
BRANCH   7  18
HETATM   18  N5  UNL     1      21.579   0.175  52.218  1.00  0.00    -0.221 N 
HETATM   19  H12 UNL     1      21.158  -0.629  51.706  1.00  0.00     0.177 HD
BRANCH  18  20
HETATM   20  C11 UNL     1      20.931   0.904  53.318  1.00  0.00     0.168 C 
BRANCH  20  21
HETATM   21  C12 UNL     1      21.051   0.049  54.541  1.00  0.00     0.286 C 
BRANCH  21  22
HETATM   22  N6  UNL     1      20.391  -1.212  54.347  1.00  0.00     0.079 N 
HETATM   23  H17 UNL     1      20.920  -1.860  53.739  1.00  0.00     0.312 HD
HETATM   24  H18 UNL     1      19.421  -1.056  54.040  1.00  0.00     0.312 HD
ENDBRANCH  21  22
ENDBRANCH  20  21
ENDBRANCH  18  20
ENDBRANCH   7  18
BRANCH   1  25
HETATM   25  C2  UNL     1      23.375   4.072  49.088  1.00  0.00     0.127 C 
HETATM   26  C1  UNL     1      23.856   5.409  48.563  1.00  0.00     0.027 C 
ENDBRANCH   1  25
TORSDOF 7
ENDMDL
MODEL 7
REMARK VINA RESULT:      -6.2      7.783     10.541
REMARK  7 active torsions:
REMARK  status: ('A' for Active; 'I' for Inactive)
REMARK    1  A    between atoms: C2_2  and  N1_3 
REMARK    2  A    between atoms: C5_7  and  C6_8 
REMARK    3  A    between atoms: C8_10  and  N3_11 
REMARK    4  A    between atoms: C10_15  and  N5_16 
REMARK    5  A    between atoms: N5_16  and  C11_17 
REMARK    6  A    between atoms: C11_17  and  C12_18 
REMARK    7  A    between atoms: C12_18  and  N6_19 
ROOT
HETATM    1  N1  UNL     1      33.024   4.913  47.114  1.00  0.00    -0.324 N 
HETATM    2  C3  UNL     1      32.246   3.816  47.304  1.00  0.00     0.212 A 
HETATM    3  N2  UNL     1      31.010   4.243  47.631  1.00  0.00    -0.238 NA
HETATM    4  C4  UNL     1      31.018   5.603  47.644  1.00  0.00     0.134 A 
HETATM    5  C5  UNL     1      29.938   6.416  47.935  1.00  0.00     0.116 A 
HETATM    6  N4  UNL     1      30.208   7.746  47.880  1.00  0.00    -0.060 NA
HETATM    7  C10 UNL     1      31.445   8.203  47.562  1.00  0.00     0.725 A 
HETATM    8  N7  UNL     1      32.473   7.366  47.284  1.00  0.00    -0.042 NA
HETATM    9  C13 UNL     1      32.280   6.040  47.320  1.00  0.00     0.181 A 
ENDROOT
BRANCH   5  10
HETATM   10  C6  UNL     1      28.584   5.998  48.282  1.00  0.00    -0.007 A 
HETATM   11  C7  UNL     1      27.915   4.932  48.515  1.00  0.00     0.021 A 
HETATM   12  C8  UNL     1      26.681   5.617  48.754  1.00  0.00     0.264 A 
HETATM   13  C9  UNL     1      27.435   6.861  48.502  1.00  0.00     0.153 A 
HETATM   14 CL1  UNL     1      26.910   7.833  47.116  1.00  0.00    -0.117 Cl
BRANCH  12  15
HETATM   15  N3  UNL     1      26.113   5.468  50.085  1.00  0.00     0.088 N 
HETATM   16  H9  UNL     1      25.298   4.827  50.083  1.00  0.00     0.313 HD
HETATM   17  H10 UNL     1      25.895   6.406  50.487  1.00  0.00     0.313 HD
ENDBRANCH  12  15
ENDBRANCH   5  10
BRANCH   7  18
HETATM   18  N5  UNL     1      31.803   9.573  47.480  1.00  0.00    -0.221 N 
HETATM   19  H12 UNL     1      32.729   9.997  47.259  1.00  0.00     0.177 HD
BRANCH  18  20
HETATM   20  C11 UNL     1      30.580  10.335  47.776  1.00  0.00     0.168 C 
BRANCH  20  21
HETATM   21  C12 UNL     1      30.745  10.915  49.146  1.00  0.00     0.286 C 
BRANCH  21  22
HETATM   22  N6  UNL     1      30.214  10.026  50.142  1.00  0.00     0.079 N 
HETATM   23  H17 UNL     1      30.509   9.044  50.011  1.00  0.00     0.312 HD
HETATM   24  H18 UNL     1      29.195  10.145  50.211  1.00  0.00     0.312 HD
ENDBRANCH  21  22
ENDBRANCH  20  21
ENDBRANCH  18  20
ENDBRANCH   7  18
BRANCH   1  25
HETATM   25  C2  UNL     1      34.417   5.007  46.751  1.00  0.00     0.127 C 
HETATM   26  C1  UNL     1      34.977   3.692  46.253  1.00  0.00     0.027 C 
ENDBRANCH   1  25
TORSDOF 7
ENDMDL
MODEL 8
REMARK VINA RESULT:      -6.0      2.338      5.372
REMARK  7 active torsions:
REMARK  status: ('A' for Active; 'I' for Inactive)
REMARK    1  A    between atoms: C2_2  and  N1_3 
REMARK    2  A    between atoms: C5_7  and  C6_8 
REMARK    3  A    between atoms: C8_10  and  N3_11 
REMARK    4  A    between atoms: C10_15  and  N5_16 
REMARK    5  A    between atoms: N5_16  and  C11_17 
REMARK    6  A    between atoms: C11_17  and  C12_18 
REMARK    7  A    between atoms: C12_18  and  N6_19 
ROOT
HETATM    1  N1  UNL     1      25.602   0.757  53.681  1.00  0.00    -0.324 N 
HETATM    2  C3  UNL     1      24.975  -0.448  53.651  1.00  0.00     0.212 A 
HETATM    3  N2  UNL     1      23.734  -0.251  53.163  1.00  0.00    -0.238 NA
HETATM    4  C4  UNL     1      23.589   1.074  52.889  1.00  0.00     0.134 A 
HETATM    5  C5  UNL     1      22.455   1.674  52.372  1.00  0.00     0.116 A 
HETATM    6  N4  UNL     1      22.566   3.015  52.190  1.00  0.00    -0.060 NA
HETATM    7  C10 UNL     1      23.709   3.678  52.498  1.00  0.00     0.725 A 
HETATM    8  N7  UNL     1      24.795   3.046  53.003  1.00  0.00    -0.042 NA
HETATM    9  C13 UNL     1      24.758   1.721  53.210  1.00  0.00     0.181 A 
ENDROOT
BRANCH   5  10
HETATM   10  C6  UNL     1      21.196   1.028  52.016  1.00  0.00    -0.007 A 
HETATM   11  C7  UNL     1      20.367   0.170  52.480  1.00  0.00     0.021 A 
HETATM   12  C8  UNL     1      19.477   0.250  51.362  1.00  0.00     0.264 A 
HETATM   13  C9  UNL     1      20.412   1.252  50.813  1.00  0.00     0.153 A 
HETATM   14 CL1  UNL     1      21.198   0.838  49.279  1.00  0.00    -0.117 Cl
BRANCH  12  15
HETATM   15  N3  UNL     1      18.130   0.716  51.648  1.00  0.00     0.088 N 
HETATM   16  H9  UNL     1      17.432   0.278  51.019  1.00  0.00     0.313 HD
HETATM   17  H10 UNL     1      18.102   1.760  51.628  1.00  0.00     0.313 HD
ENDBRANCH  12  15
ENDBRANCH   5  10
BRANCH   7  18
HETATM   18  N5  UNL     1      23.902   5.074  52.333  1.00  0.00    -0.221 N 
HETATM   19  H12 UNL     1      23.955   5.819  53.059  1.00  0.00     0.177 HD
BRANCH  18  20
HETATM   20  C11 UNL     1      24.024   5.302  50.885  1.00  0.00     0.168 C 
BRANCH  20  21
HETATM   21  C12 UNL     1      24.700   6.625  50.704  1.00  0.00     0.286 C 
BRANCH  21  22
HETATM   22  N6  UNL     1      24.110   7.618  51.559  1.00  0.00     0.079 N 
HETATM   23  H17 UNL     1      23.897   8.503  51.069  1.00  0.00     0.312 HD
HETATM   24  H18 UNL     1      24.685   7.740  52.403  1.00  0.00     0.312 HD
ENDBRANCH  21  22
ENDBRANCH  20  21
ENDBRANCH  18  20
ENDBRANCH   7  18
BRANCH   1  25
HETATM   25  C2  UNL     1      26.936   1.094  54.114  1.00  0.00     0.127 C 
HETATM   26  C1  UNL     1      27.818  -0.125  54.279  1.00  0.00     0.027 C 
ENDBRANCH   1  25
TORSDOF 7
ENDMDL
MODEL 9
REMARK VINA RESULT:      -6.0      2.362      6.216
REMARK  7 active torsions:
REMARK  status: ('A' for Active; 'I' for Inactive)
REMARK    1  A    between atoms: C2_2  and  N1_3 
REMARK    2  A    between atoms: C5_7  and  C6_8 
REMARK    3  A    between atoms: C8_10  and  N3_11 
REMARK    4  A    between atoms: C10_15  and  N5_16 
REMARK    5  A    between atoms: N5_16  and  C11_17 
REMARK    6  A    between atoms: C11_17  and  C12_18 
REMARK    7  A    between atoms: C12_18  and  N6_19 
ROOT
HETATM    1  N1  UNL     1      26.807   0.941  53.432  1.00  0.00    -0.324 N 
HETATM    2  C3  UNL     1      27.445   1.904  52.717  1.00  0.00     0.212 A 
HETATM    3  N2  UNL     1      26.546   2.447  51.871  1.00  0.00    -0.238 NA
HETATM    4  C4  UNL     1      25.352   1.824  52.060  1.00  0.00     0.134 A 
HETATM    5  C5  UNL     1      24.180   2.099  51.379  1.00  0.00     0.116 A 
HETATM    6  N4  UNL     1      23.123   1.333  51.755  1.00  0.00    -0.060 NA
HETATM    7  C10 UNL     1      23.243   0.388  52.721  1.00  0.00     0.725 A 
HETATM    8  N7  UNL     1      24.414   0.155  53.360  1.00  0.00    -0.042 NA
HETATM    9  C13 UNL     1      25.501   0.873  53.040  1.00  0.00     0.181 A 
ENDROOT
BRANCH   5  10
HETATM   10  C6  UNL     1      23.975   3.097  50.335  1.00  0.00    -0.007 A 
HETATM   11  C7  UNL     1      24.352   3.359  49.140  1.00  0.00     0.021 A 
HETATM   12  C8  UNL     1      23.575   4.555  49.031  1.00  0.00     0.264 A 
HETATM   13  C9  UNL     1      23.117   4.268  50.405  1.00  0.00     0.153 A 
HETATM   14 CL1  UNL     1      23.531   5.469  51.640  1.00  0.00    -0.117 Cl
BRANCH  12  15
HETATM   15  N3  UNL     1      22.550   4.562  48.000  1.00  0.00     0.088 N 
HETATM   16  H9  UNL     1      21.992   3.688  48.010  1.00  0.00     0.313 HD
HETATM   17  H10 UNL     1      22.980   4.763  47.070  1.00  0.00     0.313 HD
ENDBRANCH  12  15
ENDBRANCH   5  10
BRANCH   7  18
HETATM   18  N5  UNL     1      22.187  -0.447  53.169  1.00  0.00    -0.221 N 
HETATM   19  H12 UNL     1      22.238  -1.395  53.597  1.00  0.00     0.177 HD
BRANCH  18  20
HETATM   20  C11 UNL     1      20.942   0.295  52.915  1.00  0.00     0.168 C 
BRANCH  20  21
HETATM   21  C12 UNL     1      19.821  -0.527  53.470  1.00  0.00     0.286 C 
BRANCH  21  22
HETATM   22  N6  UNL     1      20.325  -1.549  54.345  1.00  0.00     0.079 N 
HETATM   23  H17 UNL     1      20.000  -2.497  54.094  1.00  0.00     0.312 HD
HETATM   24  H18 UNL     1      20.141  -1.294  55.324  1.00  0.00     0.312 HD
ENDBRANCH  21  22
ENDBRANCH  20  21
ENDBRANCH  18  20
ENDBRANCH   7  18
BRANCH   1  25
HETATM   25  C2  UNL     1      27.312   0.068  54.463  1.00  0.00     0.127 C 
HETATM   26  C1  UNL     1      28.782   0.295  54.747  1.00  0.00     0.027 C 
ENDBRANCH   1  25
TORSDOF 7
ENDMDL
