MODEL 1
REMARK VINA RESULT:      -7.6      0.000      0.000
REMARK  6 active torsions:
REMARK  status: ('A' for Active; 'I' for Inactive)
REMARK    1  A    between atoms: C2_2  and  C3_3 
REMARK    2  A    between atoms: C4_4  and  C5_5 
REMARK    3  A    between atoms: C5_5  and  N1_6 
REMARK    4  A    between atoms: C5_5  and  N2_7 
REMARK    5  A    between atoms: N2_7  and  C6_8 
REMARK    6  A    between atoms: C6_8  and  C7_9 
ROOT
HETATM    1  C5  UNL     1      24.444   2.363  52.104  1.00  0.00     0.459 C 
ENDROOT
BRANCH   1   2
HETATM    2  C4  UNL     1      25.342   1.532  52.998  1.00  0.00     0.046 C 
HETATM    3  C3  UNL     1      24.765   0.330  53.459  1.00  0.00    -0.000 C 
HETATM    4  C15 UNL     1      25.872  -0.298  54.331  1.00  0.00     0.098 C 
HETATM    5  N6  UNL     1      26.974  -0.509  54.951  1.00  0.00    -0.244 NA
HETATM    6  C13 UNL     1      28.034   0.400  54.889  1.00  0.00     0.160 C 
HETATM    7  N5  UNL     1      29.127   1.336  54.826  1.00  0.00    -0.136 NA
HETATM    8  C14 UNL     1      28.564  -0.437  53.988  1.00  0.00     0.069 C 
HETATM    9  N4  UNL     1      28.914   2.385  54.104  1.00  0.00    -0.190 NA
HETATM   10  C12 UNL     1      27.611   2.480  53.456  1.00  0.00     0.115 C 
HETATM   11  C11 UNL     1      26.387   2.492  52.894  1.00  0.00     0.091 C 
BRANCH   3  12
HETATM   12  C2  UNL     1      23.358  -0.216  53.160  1.00  0.00     0.043 C 
HETATM   13  C1  UNL     1      23.042  -0.844  54.256  1.00  0.00     0.007 C 
ENDBRANCH   3  12
ENDBRANCH   1   2
BRANCH   1  14
HETATM   14  N1  UNL     1      25.087   2.459  50.829  1.00  0.00     0.113 N 
HETATM   15  H5  UNL     1      24.502   2.757  50.040  1.00  0.00     0.315 HD
HETATM   16  H6  UNL     1      25.971   3.049  50.898  1.00  0.00     0.315 HD
ENDBRANCH   1  14
BRANCH   1  17
HETATM   17  N2  UNL     1      24.123   3.609  52.672  1.00  0.00     0.120 N 
HETATM   18  H7  UNL     1      23.481   3.490  53.514  1.00  0.00     0.318 HD
BRANCH  17  19
HETATM   19  C6  UNL     1      23.498   4.524  51.780  1.00  0.00     0.316 C 
BRANCH  19  20
HETATM   20  C7  UNL     1      22.202   5.084  52.234  1.00  0.00     0.322 C 
HETATM   21  N3  UNL     1      21.931   6.365  51.587  1.00  0.00     0.120 N 
HETATM   22  C8  UNL     1      21.496   6.211  50.223  1.00  0.00     0.438 C 
HETATM   23  H11 UNL     1      22.800   6.938  51.577  1.00  0.00     0.319 HD
HETATM   24  O1  UNL     1      20.506   5.267  50.046  1.00  0.00    -0.355 OA
HETATM   25  C9  UNL     1      20.831   3.990  50.466  1.00  0.00     0.250 C 
HETATM   26  C10 UNL     1      21.140   4.090  51.930  1.00  0.00     0.185 C 
HETATM   27  O2  UNL     1      20.500   3.359  52.703  1.00  0.00    -0.293 OA
ENDBRANCH  19  20
ENDBRANCH  17  19
ENDBRANCH   1  17
TORSDOF 6
ENDMDL
MODEL 2
REMARK VINA RESULT:      -7.6      3.646      7.099
REMARK  6 active torsions:
REMARK  status: ('A' for Active; 'I' for Inactive)
REMARK    1  A    between atoms: C2_2  and  C3_3 
REMARK    2  A    between atoms: C4_4  and  C5_5 
REMARK    3  A    between atoms: C5_5  and  N1_6 
REMARK    4  A    between atoms: C5_5  and  N2_7 
REMARK    5  A    between atoms: N2_7  and  C6_8 
REMARK    6  A    between atoms: C6_8  and  C7_9 
ROOT
HETATM    1  C5  UNL     1      25.104   1.598  52.852  1.00  0.00     0.459 C 
ENDROOT
BRANCH   1   2
HETATM    2  C4  UNL     1      23.800   1.277  52.150  1.00  0.00     0.046 C 
HETATM    3  C3  UNL     1      23.029   0.273  52.770  1.00  0.00    -0.000 C 
HETATM    4  C15 UNL     1      21.788   0.148  51.862  1.00  0.00     0.098 C 
HETATM    5  N6  UNL     1      20.937   0.314  50.917  1.00  0.00    -0.244 NA
HETATM    6  C13 UNL     1      21.149   1.245  49.896  1.00  0.00     0.160 C 
HETATM    7  N5  UNL     1      21.366   2.205  48.845  1.00  0.00    -0.136 NA
HETATM    8  C14 UNL     1      20.307   2.031  50.580  1.00  0.00     0.069 C 
HETATM    9  N4  UNL     1      22.466   2.877  48.930  1.00  0.00    -0.190 NA
HETATM   10  C12 UNL     1      23.329   2.578  50.066  1.00  0.00     0.115 C 
HETATM   11  C11 UNL     1      24.070   2.244  51.141  1.00  0.00     0.091 C 
BRANCH   3  12
HETATM   12  C2  UNL     1      23.358  -0.513  54.052  1.00  0.00     0.043 C 
HETATM   13  C1  UNL     1      22.184  -0.794  54.541  1.00  0.00     0.007 C 
ENDBRANCH   3  12
ENDBRANCH   1   2
BRANCH   1  14
HETATM   14  N1  UNL     1      24.951   2.885  53.462  1.00  0.00     0.113 N 
HETATM   15  H5  UNL     1      25.745   3.529  53.378  1.00  0.00     0.315 HD
HETATM   16  H6  UNL     1      24.045   3.345  53.144  1.00  0.00     0.315 HD
ENDBRANCH   1  14
BRANCH   1  17
HETATM   17  N2  UNL     1      26.215   1.507  51.994  1.00  0.00     0.120 N 
HETATM   18  H7  UNL     1      25.921   1.628  50.976  1.00  0.00     0.318 HD
BRANCH  17  19
HETATM   19  C6  UNL     1      26.939   0.287  52.090  1.00  0.00     0.316 C 
BRANCH  19  20
HETATM   20  C7  UNL     1      26.939  -0.359  53.426  1.00  0.00     0.322 C 
HETATM   21  N3  UNL     1      26.734  -1.801  53.309  1.00  0.00     0.120 N 
HETATM   22  C8  UNL     1      27.919  -2.491  52.867  1.00  0.00     0.438 C 
HETATM   23  H11 UNL     1      25.983  -1.987  52.612  1.00  0.00     0.319 HD
HETATM   24  O1  UNL     1      29.068  -2.136  53.543  1.00  0.00    -0.355 OA
HETATM   25  C9  UNL     1      29.392  -0.793  53.484  1.00  0.00     0.250 C 
HETATM   26  C10 UNL     1      28.235  -0.050  54.084  1.00  0.00     0.185 C 
HETATM   27  O2  UNL     1      28.475   0.716  55.033  1.00  0.00    -0.293 OA
ENDBRANCH  19  20
ENDBRANCH  17  19
ENDBRANCH   1  17
TORSDOF 6
ENDMDL
MODEL 3
REMARK VINA RESULT:      -7.6      1.588      1.926
REMARK  6 active torsions:
REMARK  status: ('A' for Active; 'I' for Inactive)
REMARK    1  A    between atoms: C2_2  and  C3_3 
REMARK    2  A    between atoms: C4_4  and  C5_5 
REMARK    3  A    between atoms: C5_5  and  N1_6 
REMARK    4  A    between atoms: C5_5  and  N2_7 
REMARK    5  A    between atoms: N2_7  and  C6_8 
REMARK    6  A    between atoms: C6_8  and  C7_9 
ROOT
HETATM    1  C5  UNL     1      23.440   2.103  52.317  1.00  0.00     0.459 C 
ENDROOT
BRANCH   1   2
HETATM    2  C4  UNL     1      24.459   1.280  53.079  1.00  0.00     0.046 C 
HETATM    3  C3  UNL     1      24.006   0.005  53.479  1.00  0.00    -0.000 C 
HETATM    4  C15 UNL     1      25.216  -0.598  54.222  1.00  0.00     0.098 C 
HETATM    5  N6  UNL     1      26.373  -0.768  54.748  1.00  0.00    -0.244 NA
HETATM    6  C13 UNL     1      27.357   0.224  54.689  1.00  0.00     0.160 C 
HETATM    7  N5  UNL     1      28.371   1.244  54.628  1.00  0.00    -0.136 NA
HETATM    8  C14 UNL     1      27.879  -0.499  53.689  1.00  0.00     0.069 C 
HETATM    9  N4  UNL     1      28.030   2.325  54.009  1.00  0.00    -0.190 NA
HETATM   10  C12 UNL     1      26.680   2.365  53.460  1.00  0.00     0.115 C 
HETATM   11  C11 UNL     1      25.420   2.324  52.983  1.00  0.00     0.091 C 
BRANCH   3  12
HETATM   12  C2  UNL     1      22.624  -0.626  53.233  1.00  0.00     0.043 C 
HETATM   13  C1  UNL     1      22.185  -0.865  54.434  1.00  0.00     0.007 C 
ENDBRANCH   3  12
ENDBRANCH   1   2
BRANCH   1  14
HETATM   14  N1  UNL     1      23.712   1.929  50.923  1.00  0.00     0.113 N 
HETATM   15  H5  UNL     1      22.924   2.072  50.280  1.00  0.00     0.315 HD
HETATM   16  H6  UNL     1      24.558   2.506  50.631  1.00  0.00     0.315 HD
ENDBRANCH   1  14
BRANCH   1  17
HETATM   17  N2  UNL     1      23.419   3.449  52.726  1.00  0.00     0.120 N 
HETATM   18  H7  UNL     1      22.996   3.544  53.700  1.00  0.00     0.318 HD
BRANCH  17  19
HETATM   19  C6  UNL     1      22.705   4.321  51.859  1.00  0.00     0.316 C 
BRANCH  19  20
HETATM   20  C7  UNL     1      23.319   5.653  51.636  1.00  0.00     0.322 C 
HETATM   21  N3  UNL     1      24.681   5.521  51.125  1.00  0.00     0.120 N 
HETATM   22  C8  UNL     1      24.714   5.164  49.730  1.00  0.00     0.438 C 
HETATM   23  H11 UNL     1      25.177   4.773  51.653  1.00  0.00     0.319 HD
HETATM   24  O1  UNL     1      23.881   5.919  48.931  1.00  0.00    -0.355 OA
HETATM   25  C9  UNL     1      22.543   5.884  49.280  1.00  0.00     0.250 C 
HETATM   26  C10 UNL     1      22.456   6.401  50.685  1.00  0.00     0.185 C 
HETATM   27  O2  UNL     1      21.701   7.365  50.897  1.00  0.00    -0.293 OA
ENDBRANCH  19  20
ENDBRANCH  17  19
ENDBRANCH   1  17
TORSDOF 6
ENDMDL
MODEL 4
REMARK VINA RESULT:      -6.9      3.543      6.868
REMARK  6 active torsions:
REMARK  status: ('A' for Active; 'I' for Inactive)
REMARK    1  A    between atoms: C2_2  and  C3_3 
REMARK    2  A    between atoms: C4_4  and  C5_5 
REMARK    3  A    between atoms: C5_5  and  N1_6 
REMARK    4  A    between atoms: C5_5  and  N2_7 
REMARK    5  A    between atoms: N2_7  and  C6_8 
REMARK    6  A    between atoms: C6_8  and  C7_9 
ROOT
HETATM    1  C5  UNL     1      24.205   2.526  52.809  1.00  0.00     0.459 C 
ENDROOT
BRANCH   1   2
HETATM    2  C4  UNL     1      23.237   1.953  51.794  1.00  0.00     0.046 C 
HETATM    3  C3  UNL     1      22.387   0.945  52.294  1.00  0.00    -0.000 C 
HETATM    4  C15 UNL     1      21.530   0.547  51.074  1.00  0.00     0.098 C 
HETATM    5  N6  UNL     1      21.029   0.481  49.896  1.00  0.00    -0.244 NA
HETATM    6  C13 UNL     1      21.490   1.295  48.857  1.00  0.00     0.160 C 
HETATM    7  N5  UNL     1      21.964   2.133  47.788  1.00  0.00    -0.136 NA
HETATM    8  C14 UNL     1      20.410   2.046  49.105  1.00  0.00     0.069 C 
HETATM    9  N4  UNL     1      22.916   2.947  48.104  1.00  0.00    -0.190 NA
HETATM   10  C12 UNL     1      23.377   2.908  49.486  1.00  0.00     0.115 C 
HETATM   11  C11 UNL     1      23.745   2.811  50.779  1.00  0.00     0.091 C 
BRANCH   3  12
HETATM   12  C2  UNL     1      22.336   0.377  53.724  1.00  0.00     0.043 C 
HETATM   13  C1  UNL     1      22.787  -0.836  53.580  1.00  0.00     0.007 C 
ENDBRANCH   3  12
ENDBRANCH   1   2
BRANCH   1  14
HETATM   14  N1  UNL     1      23.920   3.925  52.924  1.00  0.00     0.113 N 
HETATM   15  H5  UNL     1      23.754   4.433  52.048  1.00  0.00     0.315 HD
HETATM   16  H6  UNL     1      23.132   4.091  53.621  1.00  0.00     0.315 HD
ENDBRANCH   1  14
BRANCH   1  17
HETATM   17  N2  UNL     1      25.546   2.246  52.493  1.00  0.00     0.120 N 
HETATM   18  H7  UNL     1      25.667   2.098  51.443  1.00  0.00     0.318 HD
BRANCH  17  19
HETATM   19  C6  UNL     1      26.085   1.106  53.152  1.00  0.00     0.316 C 
BRANCH  19  20
HETATM   20  C7  UNL     1      27.455   0.712  52.742  1.00  0.00     0.322 C 
HETATM   21  N3  UNL     1      28.349   1.867  52.729  1.00  0.00     0.120 N 
HETATM   22  C8  UNL     1      28.755   2.264  54.052  1.00  0.00     0.438 C 
HETATM   23  H11 UNL     1      27.861   2.676  52.293  1.00  0.00     0.319 HD
HETATM   24  O1  UNL     1      29.185   1.225  54.850  1.00  0.00    -0.355 OA
HETATM   25  C9  UNL     1      28.262   0.214  55.046  1.00  0.00     0.250 C 
HETATM   26  C10 UNL     1      27.933  -0.331  53.687  1.00  0.00     0.185 C 
HETATM   27  O2  UNL     1      28.091  -1.549  53.504  1.00  0.00    -0.293 OA
ENDBRANCH  19  20
ENDBRANCH  17  19
ENDBRANCH   1  17
TORSDOF 6
ENDMDL
MODEL 5
REMARK VINA RESULT:      -6.9      3.483      7.098
REMARK  6 active torsions:
REMARK  status: ('A' for Active; 'I' for Inactive)
REMARK    1  A    between atoms: C2_2  and  C3_3 
REMARK    2  A    between atoms: C4_4  and  C5_5 
REMARK    3  A    between atoms: C5_5  and  N1_6 
REMARK    4  A    between atoms: C5_5  and  N2_7 
REMARK    5  A    between atoms: N2_7  and  C6_8 
REMARK    6  A    between atoms: C6_8  and  C7_9 
ROOT
HETATM    1  C5  UNL     1      24.759   2.855  52.204  1.00  0.00     0.459 C 
ENDROOT
BRANCH   1   2
HETATM    2  C4  UNL     1      23.257   2.714  52.350  1.00  0.00     0.046 C 
HETATM    3  C3  UNL     1      22.530   3.903  52.127  1.00  0.00    -0.000 C 
HETATM    4  C15 UNL     1      21.062   3.481  52.341  1.00  0.00     0.098 C 
HETATM    5  N6  UNL     1      20.004   2.797  52.584  1.00  0.00    -0.244 NA
HETATM    6  C13 UNL     1      20.068   1.438  52.905  1.00  0.00     0.160 C 
HETATM    7  N5  UNL     1      20.133   0.039  53.235  1.00  0.00    -0.136 NA
HETATM    8  C14 UNL     1      19.722   1.227  51.629  1.00  0.00     0.069 C 
HETATM    9  N4  UNL     1      21.321  -0.467  53.263  1.00  0.00    -0.190 NA
HETATM   10  C12 UNL     1      22.424   0.436  52.958  1.00  0.00     0.115 C 
HETATM   11  C11 UNL     1      23.386   1.333  52.667  1.00  0.00     0.091 C 
BRANCH   3  12
HETATM   12  C2  UNL     1      23.082   5.292  51.761  1.00  0.00     0.043 C 
HETATM   13  C1  UNL     1      22.042   5.911  51.284  1.00  0.00     0.007 C 
ENDBRANCH   3  12
ENDBRANCH   1   2
BRANCH   1  14
HETATM   14  N1  UNL     1      25.158   2.025  51.108  1.00  0.00     0.113 N 
HETATM   15  H5  UNL     1      24.493   1.300  50.815  1.00  0.00     0.315 HD
HETATM   16  H6  UNL     1      25.469   2.620  50.282  1.00  0.00     0.315 HD
ENDBRANCH   1  14
BRANCH   1  17
HETATM   17  N2  UNL     1      25.444   2.579  53.402  1.00  0.00     0.120 N 
HETATM   18  H7  UNL     1      25.800   3.478  53.853  1.00  0.00     0.318 HD
BRANCH  17  19
HETATM   19  C6  UNL     1      26.553   1.700  53.261  1.00  0.00     0.316 C 
BRANCH  19  20
HETATM   20  C7  UNL     1      26.755   0.733  54.367  1.00  0.00     0.322 C 
HETATM   21  N3  UNL     1      26.043  -0.515  54.107  1.00  0.00     0.120 N 
HETATM   22  C8  UNL     1      26.715  -1.339  53.135  1.00  0.00     0.438 C 
HETATM   23  H11 UNL     1      25.094  -0.301  53.735  1.00  0.00     0.319 HD
HETATM   24  O1  UNL     1      28.066  -1.495  53.361  1.00  0.00    -0.355 OA
HETATM   25  C9  UNL     1      28.795  -0.320  53.400  1.00  0.00     0.250 C 
HETATM   26  C10 UNL     1      28.215   0.501  54.514  1.00  0.00     0.185 C 
HETATM   27  O2  UNL     1      28.990   0.885  55.406  1.00  0.00    -0.293 OA
ENDBRANCH  19  20
ENDBRANCH  17  19
ENDBRANCH   1  17
TORSDOF 6
ENDMDL
MODEL 6
REMARK VINA RESULT:      -6.8      3.224      7.469
REMARK  6 active torsions:
REMARK  status: ('A' for Active; 'I' for Inactive)
REMARK    1  A    between atoms: C2_2  and  C3_3 
REMARK    2  A    between atoms: C4_4  and  C5_5 
REMARK    3  A    between atoms: C5_5  and  N1_6 
REMARK    4  A    between atoms: C5_5  and  N2_7 
REMARK    5  A    between atoms: N2_7  and  C6_8 
REMARK    6  A    between atoms: C6_8  and  C7_9 
ROOT
HETATM    1  C5  UNL     1      24.740   2.481  51.599  1.00  0.00     0.459 C 
ENDROOT
BRANCH   1   2
HETATM    2  C4  UNL     1      24.257   3.602  50.700  1.00  0.00     0.046 C 
HETATM    3  C3  UNL     1      25.189   4.021  49.729  1.00  0.00    -0.000 C 
HETATM    4  C15 UNL     1      24.453   5.149  48.976  1.00  0.00     0.098 C 
HETATM    5  N6  UNL     1      23.571   5.999  48.596  1.00  0.00    -0.244 NA
HETATM    6  C13 UNL     1      22.326   6.091  49.224  1.00  0.00     0.160 C 
HETATM    7  N5  UNL     1      21.042   6.186  49.869  1.00  0.00    -0.136 NA
HETATM    8  C14 UNL     1      21.865   5.385  48.184  1.00  0.00     0.069 C 
HETATM    9  N4  UNL     1      20.851   5.360  50.842  1.00  0.00    -0.190 NA
HETATM   10  C12 UNL     1      21.947   4.450  51.152  1.00  0.00     0.115 C 
HETATM   11  C11 UNL     1      23.005   3.646  51.376  1.00  0.00     0.091 C 
BRANCH   3  12
HETATM   12  C2  UNL     1      26.608   3.478  49.487  1.00  0.00     0.043 C 
HETATM   13  C1  UNL     1      27.231   4.492  48.958  1.00  0.00     0.007 C 
ENDBRANCH   3  12
ENDBRANCH   1   2
BRANCH   1  14
HETATM   14  N1  UNL     1      23.772   1.429  51.520  1.00  0.00     0.113 N 
HETATM   15  H5  UNL     1      24.121   0.504  51.244  1.00  0.00     0.315 HD
HETATM   16  H6  UNL     1      23.204   1.374  52.420  1.00  0.00     0.315 HD
ENDBRANCH   1  14
BRANCH   1  17
HETATM   17  N2  UNL     1      24.998   2.916  52.911  1.00  0.00     0.120 N 
HETATM   18  H7  UNL     1      25.288   3.942  52.922  1.00  0.00     0.318 HD
BRANCH  17  19
HETATM   19  C6  UNL     1      26.005   2.178  53.592  1.00  0.00     0.316 C 
BRANCH  19  20
HETATM   20  C7  UNL     1      27.132   1.699  52.755  1.00  0.00     0.322 C 
HETATM   21  N3  UNL     1      28.326   2.511  52.972  1.00  0.00     0.120 N 
HETATM   22  C8  UNL     1      28.988   2.197  54.212  1.00  0.00     0.438 C 
HETATM   23  H11 UNL     1      28.059   3.517  53.003  1.00  0.00     0.319 HD
HETATM   24  O1  UNL     1      29.174   0.848  54.430  1.00  0.00    -0.355 OA
HETATM   25  C9  UNL     1      28.018   0.090  54.438  1.00  0.00     0.250 C 
HETATM   26  C10 UNL     1      27.380   0.273  53.092  1.00  0.00     0.185 C 
HETATM   27  O2  UNL     1      27.138  -0.749  52.428  1.00  0.00    -0.293 OA
ENDBRANCH  19  20
ENDBRANCH  17  19
ENDBRANCH   1  17
TORSDOF 6
ENDMDL
MODEL 7
REMARK VINA RESULT:      -6.7      2.919      4.894
REMARK  6 active torsions:
REMARK  status: ('A' for Active; 'I' for Inactive)
REMARK    1  A    between atoms: C2_2  and  C3_3 
REMARK    2  A    between atoms: C4_4  and  C5_5 
REMARK    3  A    between atoms: C5_5  and  N1_6 
REMARK    4  A    between atoms: C5_5  and  N2_7 
REMARK    5  A    between atoms: N2_7  and  C6_8 
REMARK    6  A    between atoms: C6_8  and  C7_9 
ROOT
HETATM    1  C5  UNL     1      24.962   2.572  52.223  1.00  0.00     0.459 C 
ENDROOT
BRANCH   1   2
HETATM    2  C4  UNL     1      24.075   1.431  52.676  1.00  0.00     0.046 C 
HETATM    3  C3  UNL     1      24.768   0.296  53.147  1.00  0.00    -0.000 C 
HETATM    4  C15 UNL     1      23.644  -0.690  53.529  1.00  0.00     0.098 C 
HETATM    5  N6  UNL     1      22.496  -1.224  53.727  1.00  0.00    -0.244 NA
HETATM    6  C13 UNL     1      21.311  -0.546  53.426  1.00  0.00     0.160 C 
HETATM    7  N5  UNL     1      20.090   0.152  53.118  1.00  0.00    -0.136 NA
HETATM    8  C14 UNL     1      21.245  -0.293  54.739  1.00  0.00     0.069 C 
HETATM    9  N4  UNL     1      20.241   1.341  52.637  1.00  0.00    -0.190 NA
HETATM   10  C12 UNL     1      21.611   1.812  52.474  1.00  0.00     0.115 C 
HETATM   11  C11 UNL     1      22.904   2.172  52.355  1.00  0.00     0.091 C 
BRANCH   3  12
HETATM   12  C2  UNL     1      26.291   0.096  53.248  1.00  0.00     0.043 C 
HETATM   13  C1  UNL     1      26.531  -0.824  52.360  1.00  0.00     0.007 C 
ENDBRANCH   3  12
ENDBRANCH   1   2
BRANCH   1  14
HETATM   14  N1  UNL     1      24.716   3.675  53.101  1.00  0.00     0.113 N 
HETATM   15  H5  UNL     1      24.449   3.444  54.065  1.00  0.00     0.315 HD
HETATM   16  H6  UNL     1      25.531   4.360  53.080  1.00  0.00     0.315 HD
ENDBRANCH   1  14
BRANCH   1  17
HETATM   17  N2  UNL     1      24.788   2.882  50.862  1.00  0.00     0.120 N 
HETATM   18  H7  UNL     1      25.128   2.083  50.242  1.00  0.00     0.318 HD
BRANCH  17  19
HETATM   19  C6  UNL     1      25.446   4.068  50.435  1.00  0.00     0.316 C 
BRANCH  19  20
HETATM   20  C7  UNL     1      24.700   4.907  49.466  1.00  0.00     0.322 C 
HETATM   21  N3  UNL     1      23.345   5.173  49.939  1.00  0.00     0.120 N 
HETATM   22  C8  UNL     1      23.311   6.172  50.977  1.00  0.00     0.438 C 
HETATM   23  H11 UNL     1      22.938   4.299  50.331  1.00  0.00     0.319 HD
HETATM   24  O1  UNL     1      24.046   7.305  50.698  1.00  0.00    -0.355 OA
HETATM   25  C9  UNL     1      25.389   7.088  50.453  1.00  0.00     0.250 C 
HETATM   26  C10 UNL     1      25.462   6.168  49.270  1.00  0.00     0.185 C 
HETATM   27  O2  UNL     1      26.125   6.545  48.289  1.00  0.00    -0.293 OA
ENDBRANCH  19  20
ENDBRANCH  17  19
ENDBRANCH   1  17
TORSDOF 6
ENDMDL
MODEL 8
REMARK VINA RESULT:      -6.5      8.637     11.307
REMARK  6 active torsions:
REMARK  status: ('A' for Active; 'I' for Inactive)
REMARK    1  A    between atoms: C2_2  and  C3_3 
REMARK    2  A    between atoms: C4_4  and  C5_5 
REMARK    3  A    between atoms: C5_5  and  N1_6 
REMARK    4  A    between atoms: C5_5  and  N2_7 
REMARK    5  A    between atoms: N2_7  and  C6_8 
REMARK    6  A    between atoms: C6_8  and  C7_9 
ROOT
HETATM    1  C5  UNL     1      30.798   7.674  48.879  1.00  0.00     0.459 C 
ENDROOT
BRANCH   1   2
HETATM    2  C4  UNL     1      29.340   8.040  48.689  1.00  0.00     0.046 C 
HETATM    3  C3  UNL     1      28.501   6.960  48.344  1.00  0.00    -0.000 C 
HETATM    4  C15 UNL     1      27.106   7.605  48.211  1.00  0.00     0.098 C 
HETATM    5  N6  UNL     1      26.142   8.450  48.192  1.00  0.00    -0.244 NA
HETATM    6  C13 UNL     1      26.349   9.805  48.467  1.00  0.00     0.160 C 
HETATM    7  N5  UNL     1      26.562  11.200  48.751  1.00  0.00    -0.136 NA
HETATM    8  C14 UNL     1      25.870   9.524  49.685  1.00  0.00     0.069 C 
HETATM    9  N4  UNL     1      27.780  11.528  49.026  1.00  0.00    -0.190 NA
HETATM   10  C12 UNL     1      28.765  10.453  49.014  1.00  0.00     0.115 C 
HETATM   11  C11 UNL     1      29.613   9.406  48.982  1.00  0.00     0.091 C 
BRANCH   3  12
HETATM   12  C2  UNL     1      28.895   5.486  48.145  1.00  0.00     0.043 C 
HETATM   13  C1  UNL     1      27.854   4.836  48.578  1.00  0.00     0.007 C 
ENDBRANCH   3  12
ENDBRANCH   1   2
BRANCH   1  14
HETATM   14  N1  UNL     1      31.242   8.311  50.081  1.00  0.00     0.113 N 
HETATM   15  H5  UNL     1      30.959   9.289  50.214  1.00  0.00     0.315 HD
HETATM   16  H6  UNL     1      30.997   7.719  50.932  1.00  0.00     0.315 HD
ENDBRANCH   1  14
BRANCH   1  17
HETATM   17  N2  UNL     1      31.582   7.982  47.752  1.00  0.00     0.120 N 
HETATM   18  H7  UNL     1      31.496   7.222  47.009  1.00  0.00     0.318 HD
BRANCH  17  19
HETATM   19  C6  UNL     1      32.966   8.164  48.024  1.00  0.00     0.316 C 
BRANCH  19  20
HETATM   20  C7  UNL     1      33.901   7.501  47.083  1.00  0.00     0.322 C 
HETATM   21  N3  UNL     1      35.276   7.587  47.565  1.00  0.00     0.120 N 
HETATM   22  C8  UNL     1      35.544   6.660  48.634  1.00  0.00     0.438 C 
HETATM   23  H11 UNL     1      35.456   8.546  47.928  1.00  0.00     0.319 HD
HETATM   24  O1  UNL     1      35.108   5.374  48.392  1.00  0.00    -0.355 OA
HETATM   25  C9  UNL     1      33.754   5.250  48.140  1.00  0.00     0.250 C 
HETATM   26  C10 UNL     1      33.470   6.087  46.928  1.00  0.00     0.185 C 
HETATM   27  O2  UNL     1      32.926   5.529  45.960  1.00  0.00    -0.293 OA
ENDBRANCH  19  20
ENDBRANCH  17  19
ENDBRANCH   1  17
TORSDOF 6
ENDMDL
MODEL 9
REMARK VINA RESULT:      -6.4      2.476      3.872
REMARK  6 active torsions:
REMARK  status: ('A' for Active; 'I' for Inactive)
REMARK    1  A    between atoms: C2_2  and  C3_3 
REMARK    2  A    between atoms: C4_4  and  C5_5 
REMARK    3  A    between atoms: C5_5  and  N1_6 
REMARK    4  A    between atoms: C5_5  and  N2_7 
REMARK    5  A    between atoms: N2_7  and  C6_8 
REMARK    6  A    between atoms: C6_8  and  C7_9 
ROOT
HETATM    1  C5  UNL     1      23.294   2.354  51.559  1.00  0.00     0.459 C 
ENDROOT
BRANCH   1   2
HETATM    2  C4  UNL     1      24.697   1.880  51.880  1.00  0.00     0.046 C 
HETATM    3  C3  UNL     1      25.720   2.542  51.169  1.00  0.00    -0.000 C 
HETATM    4  C15 UNL     1      27.013   1.872  51.676  1.00  0.00     0.098 C 
HETATM    5  N6  UNL     1      27.841   1.119  52.302  1.00  0.00    -0.244 NA
HETATM    6  C13 UNL     1      27.407   0.163  53.225  1.00  0.00     0.160 C 
HETATM    7  N5  UNL     1      26.962  -0.821  54.176  1.00  0.00    -0.136 NA
HETATM    8  C14 UNL     1      27.756   1.057  54.159  1.00  0.00     0.069 C 
HETATM    9  N4  UNL     1      25.683  -0.883  54.349  1.00  0.00    -0.190 NA
HETATM   10  C12 UNL     1      24.873   0.042  53.567  1.00  0.00     0.115 C 
HETATM   11  C11 UNL     1      24.195   0.928  52.811  1.00  0.00     0.091 C 
BRANCH   3  12
HETATM   12  C2  UNL     1      25.570   3.666  50.128  1.00  0.00     0.043 C 
HETATM   13  C1  UNL     1      26.728   3.680  49.534  1.00  0.00     0.007 C 
ENDBRANCH   3  12
ENDBRANCH   1   2
BRANCH   1  14
HETATM   14  N1  UNL     1      22.948   3.345  52.533  1.00  0.00     0.113 N 
HETATM   15  H5  UNL     1      23.286   4.298  52.358  1.00  0.00     0.315 HD
HETATM   16  H6  UNL     1      21.900   3.335  52.721  1.00  0.00     0.315 HD
ENDBRANCH   1  14
BRANCH   1  17
HETATM   17  N2  UNL     1      22.372   1.295  51.477  1.00  0.00     0.120 N 
HETATM   18  H7  UNL     1      22.875   0.355  51.428  1.00  0.00     0.318 HD
BRANCH  17  19
HETATM   19  C6  UNL     1      21.485   1.365  50.368  1.00  0.00     0.316 C 
BRANCH  19  20
HETATM   20  C7  UNL     1      20.347   2.306  50.511  1.00  0.00     0.322 C 
HETATM   21  N3  UNL     1      19.306   2.020  49.528  1.00  0.00     0.120 N 
HETATM   22  C8  UNL     1      18.520   0.865  49.880  1.00  0.00     0.438 C 
HETATM   23  H11 UNL     1      19.745   1.832  48.604  1.00  0.00     0.319 HD
HETATM   24  O1  UNL     1      18.083   0.853  51.188  1.00  0.00    -0.355 OA
HETATM   25  C9  UNL     1      19.082   0.911  52.142  1.00  0.00     0.250 C 
HETATM   26  C10 UNL     1      19.827   2.190  51.899  1.00  0.00     0.185 C 
HETATM   27  O2  UNL     1      19.926   2.985  52.848  1.00  0.00    -0.293 OA
ENDBRANCH  19  20
ENDBRANCH  17  19
ENDBRANCH   1  17
TORSDOF 6
ENDMDL
