MODEL 1
REMARK VINA RESULT:      -8.0      0.000      0.000
REMARK  4 active torsions:
REMARK  status: ('A' for Active; 'I' for Inactive)
REMARK    1  A    between atoms: O1_2  and  C2_3 
REMARK    2  A    between atoms: C8_11  and  N3_12 
REMARK    3  A    between atoms: N3_12  and  C9_13 
REMARK    4  A    between atoms: C17_22  and  O2_23 
ROOT
HETATM    1  C2  UNL     1      27.368   0.462  54.235  1.00  0.00     0.103 A 
HETATM    2  C3  UNL     1      26.289  -0.390  54.120  1.00  0.00     0.072 A 
HETATM    3  C4  UNL     1      25.077   0.096  53.677  1.00  0.00     0.071 A 
HETATM    4  N1  UNL     1      24.047  -0.770  53.579  1.00  0.00    -0.259 NA
HETATM    5  C5  UNL     1      22.839  -0.330  53.148  1.00  0.00     0.142 A 
HETATM    6  C6  UNL     1      22.632   0.992  52.805  1.00  0.00     0.089 A 
HETATM    7  C7  UNL     1      21.339   1.456  52.345  1.00  0.00     0.103 C 
HETATM    8  N2  UNL     1      20.298   1.817  51.990  1.00  0.00    -0.191 NA
HETATM    9  C8  UNL     1      23.671   1.899  52.897  1.00  0.00     0.067 A 
HETATM   10  C15 UNL     1      24.887   1.417  53.339  1.00  0.00     0.024 A 
HETATM   11  C16 UNL     1      25.954   2.281  53.449  1.00  0.00     0.055 A 
HETATM   12  C17 UNL     1      27.177   1.800  53.893  1.00  0.00     0.100 A 
ENDROOT
BRANCH   9  13
HETATM   13  N3  UNL     1      23.439   3.236  52.543  1.00  0.00    -0.354 N 
HETATM   14  H6  UNL     1      22.978   3.655  53.379  1.00  0.00     0.166 HD
BRANCH  13  15
HETATM   15  C9  UNL     1      23.701   3.986  51.390  1.00  0.00     0.033 A 
HETATM   16  C10 UNL     1      23.953   3.337  50.199  1.00  0.00     0.029 A 
HETATM   17  C11 UNL     1      24.208   4.106  49.084  1.00  0.00     0.004 A 
HETATM   18  C12 UNL     1      24.216   5.489  49.125  1.00  0.00     0.019 A 
HETATM   19  C13 UNL     1      23.962   6.157  50.327  1.00  0.00     0.013 A 
HETATM   20 BR1  UNL     1      23.974   8.051  50.378  1.00  0.00    -0.051 Br
HETATM   21  C14 UNL     1      23.709   5.365  51.432  1.00  0.00     0.048 A 
ENDBRANCH  13  15
ENDBRANCH   9  13
BRANCH  12  22
HETATM   22  O2  UNL     1      28.205   2.746  53.974  1.00  0.00    -0.358 OA
HETATM   23  H12 UNL     1      28.141   3.490  54.658  1.00  0.00     0.217 HD
ENDBRANCH  12  22
BRANCH   1  24
HETATM   24  O1  UNL     1      28.655   0.164  54.657  1.00  0.00    -0.353 OA
HETATM   25  C1  UNL     1      29.478  -0.709  53.912  1.00  0.00     0.210 C 
ENDBRANCH   1  24
TORSDOF 4
ENDMDL
MODEL 2
REMARK VINA RESULT:      -7.9      1.981      2.329
REMARK  4 active torsions:
REMARK  status: ('A' for Active; 'I' for Inactive)
REMARK    1  A    between atoms: O1_2  and  C2_3 
REMARK    2  A    between atoms: C8_11  and  N3_12 
REMARK    3  A    between atoms: N3_12  and  C9_13 
REMARK    4  A    between atoms: C17_22  and  O2_23 
ROOT
HETATM    1  C2  UNL     1      27.431   1.136  53.035  1.00  0.00     0.103 A 
HETATM    2  C3  UNL     1      26.710   0.194  53.737  1.00  0.00     0.072 A 
HETATM    3  C4  UNL     1      25.334   0.180  53.650  1.00  0.00     0.071 A 
HETATM    4  N1  UNL     1      24.666  -0.758  54.353  1.00  0.00    -0.259 NA
HETATM    5  C5  UNL     1      23.312  -0.804  54.293  1.00  0.00     0.142 A 
HETATM    6  C6  UNL     1      22.591   0.092  53.528  1.00  0.00     0.089 A 
HETATM    7  C7  UNL     1      21.146   0.038  53.468  1.00  0.00     0.103 C 
HETATM    8  N2  UNL     1      19.989  -0.007  53.438  1.00  0.00    -0.191 NA
HETATM    9  C8  UNL     1      23.253   1.063  52.799  1.00  0.00     0.067 A 
HETATM   10  C15 UNL     1      24.631   1.080  52.882  1.00  0.00     0.024 A 
HETATM   11  C16 UNL     1      25.337   2.029  52.175  1.00  0.00     0.055 A 
HETATM   12  C17 UNL     1      26.721   2.049  52.256  1.00  0.00     0.100 A 
ENDROOT
BRANCH   9  13
HETATM   13  N3  UNL     1      22.502   1.963  52.028  1.00  0.00    -0.354 N 
HETATM   14  H6  UNL     1      22.086   2.622  52.720  1.00  0.00     0.166 HD
BRANCH  13  15
HETATM   15  C9  UNL     1      22.264   2.087  50.653  1.00  0.00     0.033 A 
HETATM   16  C10 UNL     1      21.759   1.013  49.950  1.00  0.00     0.029 A 
HETATM   17  C11 UNL     1      21.538   1.170  48.599  1.00  0.00     0.004 A 
HETATM   18  C12 UNL     1      21.803   2.356  47.939  1.00  0.00     0.019 A 
HETATM   19  C13 UNL     1      22.315   3.452  48.642  1.00  0.00     0.013 A 
HETATM   20 BR1  UNL     1      22.676   5.075  47.733  1.00  0.00    -0.051 Br
HETATM   21  C14 UNL     1      22.529   3.271  49.996  1.00  0.00     0.048 A 
ENDBRANCH  13  15
ENDBRANCH   9  13
BRANCH  12  22
HETATM   22  O2  UNL     1      27.356   3.045  51.506  1.00  0.00    -0.358 OA
HETATM   23  H12 UNL     1      27.197   3.090  50.506  1.00  0.00     0.217 HD
ENDBRANCH  12  22
BRANCH   1  24
HETATM   24  O1  UNL     1      28.807   1.308  52.995  1.00  0.00    -0.353 OA
HETATM   25  C1  UNL     1      29.668   0.431  53.690  1.00  0.00     0.210 C 
ENDBRANCH   1  24
TORSDOF 4
ENDMDL
MODEL 3
REMARK VINA RESULT:      -7.7      2.854      3.508
REMARK  4 active torsions:
REMARK  status: ('A' for Active; 'I' for Inactive)
REMARK    1  A    between atoms: O1_2  and  C2_3 
REMARK    2  A    between atoms: C8_11  and  N3_12 
REMARK    3  A    between atoms: N3_12  and  C9_13 
REMARK    4  A    between atoms: C17_22  and  O2_23 
ROOT
HETATM    1  C2  UNL     1      27.449   0.740  53.579  1.00  0.00     0.103 A 
HETATM    2  C3  UNL     1      26.844  -0.050  54.534  1.00  0.00     0.072 A 
HETATM    3  C4  UNL     1      25.499  -0.339  54.432  1.00  0.00     0.071 A 
HETATM    4  N1  UNL     1      24.946  -1.114  55.387  1.00  0.00    -0.259 NA
HETATM    5  C5  UNL     1      23.626  -1.420  55.322  1.00  0.00     0.142 A 
HETATM    6  C6  UNL     1      22.826  -0.954  54.298  1.00  0.00     0.089 A 
HETATM    7  C7  UNL     1      21.417  -1.284  54.234  1.00  0.00     0.103 C 
HETATM    8  N2  UNL     1      20.290  -1.544  54.200  1.00  0.00    -0.191 NA
HETATM    9  C8  UNL     1      23.369  -0.157  53.308  1.00  0.00     0.067 A 
HETATM   10  C15 UNL     1      24.715   0.134  53.404  1.00  0.00     0.024 A 
HETATM   11  C16 UNL     1      25.305   0.925  52.442  1.00  0.00     0.055 A 
HETATM   12  C17 UNL     1      26.656   1.219  52.536  1.00  0.00     0.100 A 
ENDROOT
BRANCH   9  13
HETATM   13  N3  UNL     1      22.539   0.305  52.275  1.00  0.00    -0.354 N 
HETATM   14  H6  UNL     1      22.640  -0.402  51.517  1.00  0.00     0.166 HD
BRANCH  13  15
HETATM   15  C9  UNL     1      21.707   1.424  52.136  1.00  0.00     0.033 A 
HETATM   16  C10 UNL     1      22.235   2.688  52.300  1.00  0.00     0.029 A 
HETATM   17  C11 UNL     1      21.388   3.766  52.156  1.00  0.00     0.004 A 
HETATM   18  C12 UNL     1      20.046   3.618  51.856  1.00  0.00     0.019 A 
HETATM   19  C13 UNL     1      19.501   2.341  51.689  1.00  0.00     0.013 A 
HETATM   20 BR1  UNL     1      17.662   2.143  51.278  1.00  0.00    -0.051 Br
HETATM   21  C14 UNL     1      20.369   1.275  51.837  1.00  0.00     0.048 A 
ENDBRANCH  13  15
ENDBRANCH   9  13
BRANCH  12  22
HETATM   22  O2  UNL     1      27.171   2.028  51.517  1.00  0.00    -0.358 OA
HETATM   23  H12 UNL     1      26.712   2.905  51.301  1.00  0.00     0.217 HD
ENDBRANCH  12  22
BRANCH   1  24
HETATM   24  O1  UNL     1      28.776   1.136  53.508  1.00  0.00    -0.353 OA
HETATM   25  C1  UNL     1      29.821   0.194  53.628  1.00  0.00     0.210 C 
ENDBRANCH   1  24
TORSDOF 4
ENDMDL
MODEL 4
REMARK VINA RESULT:      -7.6      3.673      5.599
REMARK  4 active torsions:
REMARK  status: ('A' for Active; 'I' for Inactive)
REMARK    1  A    between atoms: O1_2  and  C2_3 
REMARK    2  A    between atoms: C8_11  and  N3_12 
REMARK    3  A    between atoms: N3_12  and  C9_13 
REMARK    4  A    between atoms: C17_22  and  O2_23 
ROOT
HETATM    1  C2  UNL     1      19.642  -0.964  53.440  1.00  0.00     0.103 A 
HETATM    2  C3  UNL     1      20.474  -1.505  54.398  1.00  0.00     0.072 A 
HETATM    3  C4  UNL     1      21.815  -1.184  54.400  1.00  0.00     0.071 A 
HETATM    4  N1  UNL     1      22.595  -1.735  55.354  1.00  0.00    -0.259 NA
HETATM    5  C5  UNL     1      23.919  -1.444  55.389  1.00  0.00     0.142 A 
HETATM    6  C6  UNL     1      24.497  -0.594  54.466  1.00  0.00     0.089 A 
HETATM    7  C7  UNL     1      25.911  -0.288  54.508  1.00  0.00     0.103 C 
HETATM    8  N2  UNL     1      27.046  -0.060  54.545  1.00  0.00    -0.191 NA
HETATM    9  C8  UNL     1      23.720  -0.018  53.479  1.00  0.00     0.067 A 
HETATM   10  C15 UNL     1      22.376  -0.335  53.473  1.00  0.00     0.024 A 
HETATM   11  C16 UNL     1      21.558   0.213  52.509  1.00  0.00     0.055 A 
HETATM   12  C17 UNL     1      20.208  -0.103  52.501  1.00  0.00     0.100 A 
ENDROOT
BRANCH   9  13
HETATM   13  N3  UNL     1      24.327   0.843  52.552  1.00  0.00    -0.354 N 
HETATM   14  H6  UNL     1      25.082   0.272  52.116  1.00  0.00     0.166 HD
BRANCH  13  15
HETATM   15  C9  UNL     1      24.095   2.173  52.179  1.00  0.00     0.033 A 
HETATM   16  C10 UNL     1      24.088   3.159  53.144  1.00  0.00     0.029 A 
HETATM   17  C11 UNL     1      23.857   4.457  52.741  1.00  0.00     0.004 A 
HETATM   18  C12 UNL     1      23.637   4.793  51.418  1.00  0.00     0.019 A 
HETATM   19  C13 UNL     1      23.642   3.801  50.432  1.00  0.00     0.013 A 
HETATM   20 BR1  UNL     1      23.341   4.266  48.620  1.00  0.00    -0.051 Br
HETATM   21  C14 UNL     1      23.876   2.507  50.859  1.00  0.00     0.048 A 
ENDBRANCH  13  15
ENDBRANCH   9  13
BRANCH  12  22
HETATM   22  O2  UNL     1      19.453   0.498  51.488  1.00  0.00    -0.358 OA
HETATM   23  H12 UNL     1      18.861  -0.079  50.902  1.00  0.00     0.217 HD
ENDBRANCH  12  22
BRANCH   1  24
HETATM   24  O1  UNL     1      18.279  -1.163  53.277  1.00  0.00    -0.353 OA
HETATM   25  C1  UNL     1      17.699  -2.430  53.507  1.00  0.00     0.210 C 
ENDBRANCH   1  24
TORSDOF 4
ENDMDL
MODEL 5
REMARK VINA RESULT:      -7.6      2.481      4.346
REMARK  4 active torsions:
REMARK  status: ('A' for Active; 'I' for Inactive)
REMARK    1  A    between atoms: O1_2  and  C2_3 
REMARK    2  A    between atoms: C8_11  and  N3_12 
REMARK    3  A    between atoms: N3_12  and  C9_13 
REMARK    4  A    between atoms: C17_22  and  O2_23 
ROOT
HETATM    1  C2  UNL     1      27.578   0.195  53.781  1.00  0.00     0.103 A 
HETATM    2  C3  UNL     1      27.760   0.969  52.655  1.00  0.00     0.072 A 
HETATM    3  C4  UNL     1      26.702   1.687  52.138  1.00  0.00     0.071 A 
HETATM    4  N1  UNL     1      26.921   2.431  51.035  1.00  0.00    -0.259 NA
HETATM    5  C5  UNL     1      25.906   3.151  50.498  1.00  0.00     0.142 A 
HETATM    6  C6  UNL     1      24.641   3.142  51.053  1.00  0.00     0.089 A 
HETATM    7  C7  UNL     1      23.560   3.913  50.474  1.00  0.00     0.103 C 
HETATM    8  N2  UNL     1      22.701   4.524  49.996  1.00  0.00    -0.191 NA
HETATM    9  C8  UNL     1      24.390   2.387  52.183  1.00  0.00     0.067 A 
HETATM   10  C15 UNL     1      25.447   1.667  52.704  1.00  0.00     0.024 A 
HETATM   11  C16 UNL     1      25.249   0.899  53.830  1.00  0.00     0.055 A 
HETATM   12  C17 UNL     1      26.308   0.175  54.356  1.00  0.00     0.100 A 
ENDROOT
BRANCH   9  13
HETATM   13  N3  UNL     1      23.099   2.393  52.731  1.00  0.00    -0.354 N 
HETATM   14  H6  UNL     1      23.042   3.286  53.265  1.00  0.00     0.166 HD
BRANCH  13  15
HETATM   15  C9  UNL     1      22.024   1.497  52.672  1.00  0.00     0.033 A 
HETATM   16  C10 UNL     1      21.932   0.482  53.602  1.00  0.00     0.029 A 
HETATM   17  C11 UNL     1      20.861  -0.382  53.514  1.00  0.00     0.004 A 
HETATM   18  C12 UNL     1      19.891  -0.260  52.535  1.00  0.00     0.019 A 
HETATM   19  C13 UNL     1      19.975   0.766  51.588  1.00  0.00     0.013 A 
HETATM   20 BR1  UNL     1      18.643   0.928  50.249  1.00  0.00    -0.051 Br
HETATM   21  C14 UNL     1      21.057   1.619  51.696  1.00  0.00     0.048 A 
ENDBRANCH  13  15
ENDBRANCH   9  13
BRANCH  12  22
HETATM   22  O2  UNL     1      26.017  -0.578  55.499  1.00  0.00    -0.358 OA
HETATM   23  H12 UNL     1      25.350  -0.219  56.173  1.00  0.00     0.217 HD
ENDBRANCH  12  22
BRANCH   1  24
HETATM   24  O1  UNL     1      28.511  -0.589  54.443  1.00  0.00    -0.353 OA
HETATM   25  C1  UNL     1      29.736  -0.932  53.830  1.00  0.00     0.210 C 
ENDBRANCH   1  24
TORSDOF 4
ENDMDL
MODEL 6
REMARK VINA RESULT:      -7.4      3.854      6.434
REMARK  4 active torsions:
REMARK  status: ('A' for Active; 'I' for Inactive)
REMARK    1  A    between atoms: O1_2  and  C2_3 
REMARK    2  A    between atoms: C8_11  and  N3_12 
REMARK    3  A    between atoms: N3_12  and  C9_13 
REMARK    4  A    between atoms: C17_22  and  O2_23 
ROOT
HETATM    1  C2  UNL     1      20.283  -0.059  52.751  1.00  0.00     0.103 A 
HETATM    2  C3  UNL     1      20.484   0.498  51.506  1.00  0.00     0.072 A 
HETATM    3  C4  UNL     1      21.657   1.175  51.239  1.00  0.00     0.071 A 
HETATM    4  N1  UNL     1      21.814   1.706  50.010  1.00  0.00    -0.259 NA
HETATM    5  C5  UNL     1      22.952   2.378  49.709  1.00  0.00     0.142 A 
HETATM    6  C6  UNL     1      23.964   2.536  50.636  1.00  0.00     0.089 A 
HETATM    7  C7  UNL     1      25.178   3.255  50.310  1.00  0.00     0.103 C 
HETATM    8  N2  UNL     1      26.139   3.843  50.041  1.00  0.00    -0.191 NA
HETATM    9  C8  UNL     1      23.826   2.002  51.904  1.00  0.00     0.067 A 
HETATM   10  C15 UNL     1      22.655   1.323  52.175  1.00  0.00     0.024 A 
HETATM   11  C16 UNL     1      22.469   0.772  53.424  1.00  0.00     0.055 A 
HETATM   12  C17 UNL     1      21.294   0.090  53.700  1.00  0.00     0.100 A 
ENDROOT
BRANCH   9  13
HETATM   13  N3  UNL     1      24.866   2.174  52.830  1.00  0.00    -0.354 N 
HETATM   14  H6  UNL     1      24.564   2.977  53.422  1.00  0.00     0.166 HD
BRANCH  13  15
HETATM   15  C9  UNL     1      26.082   1.513  53.046  1.00  0.00     0.033 A 
HETATM   16  C10 UNL     1      27.170   2.224  53.509  1.00  0.00     0.029 A 
HETATM   17  C11 UNL     1      28.351   1.542  53.710  1.00  0.00     0.004 A 
HETATM   18  C12 UNL     1      28.473   0.187  53.466  1.00  0.00     0.019 A 
HETATM   19  C13 UNL     1      27.376  -0.544  52.997  1.00  0.00     0.013 A 
HETATM   20 BR1  UNL     1      27.549  -2.401  52.664  1.00  0.00    -0.051 Br
HETATM   21  C14 UNL     1      26.203   0.161  52.802  1.00  0.00     0.048 A 
ENDBRANCH  13  15
ENDBRANCH   9  13
BRANCH  12  22
HETATM   22  O2  UNL     1      21.190  -0.437  54.992  1.00  0.00    -0.358 OA
HETATM   23  H12 UNL     1      21.429   0.146  55.786  1.00  0.00     0.217 HD
ENDBRANCH  12  22
BRANCH   1  24
HETATM   24  O1  UNL     1      19.182  -0.770  53.205  1.00  0.00    -0.353 OA
HETATM   25  C1  UNL     1      17.977  -0.789  52.468  1.00  0.00     0.210 C 
ENDBRANCH   1  24
TORSDOF 4
ENDMDL
MODEL 7
REMARK VINA RESULT:      -7.4      3.822      5.868
REMARK  4 active torsions:
REMARK  status: ('A' for Active; 'I' for Inactive)
REMARK    1  A    between atoms: O1_2  and  C2_3 
REMARK    2  A    between atoms: C8_11  and  N3_12 
REMARK    3  A    between atoms: N3_12  and  C9_13 
REMARK    4  A    between atoms: C17_22  and  O2_23 
ROOT
HETATM    1  C2  UNL     1      24.989   3.269  50.372  1.00  0.00     0.103 A 
HETATM    2  C3  UNL     1      25.644   2.239  51.014  1.00  0.00     0.072 A 
HETATM    3  C4  UNL     1      24.960   1.442  51.907  1.00  0.00     0.071 A 
HETATM    4  N1  UNL     1      25.637   0.447  52.514  1.00  0.00    -0.259 NA
HETATM    5  C5  UNL     1      24.999  -0.358  53.399  1.00  0.00     0.142 A 
HETATM    6  C6  UNL     1      23.662  -0.184  53.700  1.00  0.00     0.089 A 
HETATM    7  C7  UNL     1      22.985  -1.047  54.646  1.00  0.00     0.103 C 
HETATM    8  N2  UNL     1      22.458  -1.735  55.413  1.00  0.00    -0.191 NA
HETATM    9  C8  UNL     1      22.946   0.830  53.092  1.00  0.00     0.067 A 
HETATM   10  C15 UNL     1      23.627   1.630  52.196  1.00  0.00     0.024 A 
HETATM   11  C16 UNL     1      22.958   2.655  51.564  1.00  0.00     0.055 A 
HETATM   12  C17 UNL     1      23.639   3.460  50.664  1.00  0.00     0.100 A 
ENDROOT
BRANCH   9  13
HETATM   13  N3  UNL     1      21.589   0.989  53.412  1.00  0.00    -0.354 N 
HETATM   14  H6  UNL     1      21.586   1.595  54.260  1.00  0.00     0.166 HD
BRANCH  13  15
HETATM   15  C9  UNL     1      20.402   0.518  52.836  1.00  0.00     0.033 A 
HETATM   16  C10 UNL     1      19.893   1.146  51.718  1.00  0.00     0.029 A 
HETATM   17  C11 UNL     1      18.724   0.656  51.177  1.00  0.00     0.004 A 
HETATM   18  C12 UNL     1      18.058  -0.430  51.715  1.00  0.00     0.019 A 
HETATM   19  C13 UNL     1      18.566  -1.074  52.848  1.00  0.00     0.013 A 
HETATM   20 BR1  UNL     1      17.649  -2.562  53.581  1.00  0.00    -0.051 Br
HETATM   21  C14 UNL     1      19.739  -0.565  53.373  1.00  0.00     0.048 A 
ENDBRANCH  13  15
ENDBRANCH   9  13
BRANCH  12  22
HETATM   22  O2  UNL     1      22.882   4.475  50.068  1.00  0.00    -0.358 OA
HETATM   23  H12 UNL     1      23.348   5.173  49.500  1.00  0.00     0.217 HD
ENDBRANCH  12  22
BRANCH   1  24
HETATM   24  O1  UNL     1      25.501   4.169  49.449  1.00  0.00    -0.353 OA
HETATM   25  C1  UNL     1      26.892   4.264  49.224  1.00  0.00     0.210 C 
ENDBRANCH   1  24
TORSDOF 4
ENDMDL
MODEL 8
REMARK VINA RESULT:      -7.3      2.948      5.874
REMARK  4 active torsions:
REMARK  status: ('A' for Active; 'I' for Inactive)
REMARK    1  A    between atoms: O1_2  and  C2_3 
REMARK    2  A    between atoms: C8_11  and  N3_12 
REMARK    3  A    between atoms: N3_12  and  C9_13 
REMARK    4  A    between atoms: C17_22  and  O2_23 
ROOT
HETATM    1  C2  UNL     1      23.004   3.823  50.260  1.00  0.00     0.103 A 
HETATM    2  C3  UNL     1      21.910   3.004  50.439  1.00  0.00     0.072 A 
HETATM    3  C4  UNL     1      21.952   2.000  51.384  1.00  0.00     0.071 A 
HETATM    4  N1  UNL     1      20.861   1.221  51.527  1.00  0.00    -0.259 NA
HETATM    5  C5  UNL     1      20.864   0.223  52.446  1.00  0.00     0.142 A 
HETATM    6  C6  UNL     1      21.965  -0.020  53.245  1.00  0.00     0.089 A 
HETATM    7  C7  UNL     1      21.963  -1.087  54.224  1.00  0.00     0.103 C 
HETATM    8  N2  UNL     1      21.953  -1.950  54.995  1.00  0.00    -0.191 NA
HETATM    9  C8  UNL     1      23.096   0.764  53.116  1.00  0.00     0.067 A 
HETATM   10  C15 UNL     1      23.057   1.772  52.173  1.00  0.00     0.024 A 
HETATM   11  C16 UNL     1      24.159   2.581  52.006  1.00  0.00     0.055 A 
HETATM   12  C17 UNL     1      24.124   3.593  51.058  1.00  0.00     0.100 A 
ENDROOT
BRANCH   9  13
HETATM   13  N3  UNL     1      24.202   0.501  53.938  1.00  0.00    -0.354 N 
HETATM   14  H6  UNL     1      23.860   0.676  54.907  1.00  0.00     0.166 HD
BRANCH  13  15
HETATM   15  C9  UNL     1      25.516   0.091  53.681  1.00  0.00     0.033 A 
HETATM   16  C10 UNL     1      25.741  -1.087  53.000  1.00  0.00     0.029 A 
HETATM   17  C11 UNL     1      27.047  -1.460  52.764  1.00  0.00     0.004 A 
HETATM   18  C12 UNL     1      28.121  -0.696  53.183  1.00  0.00     0.019 A 
HETATM   19  C13 UNL     1      27.904   0.501  53.874  1.00  0.00     0.013 A 
HETATM   20 BR1  UNL     1      29.380   1.543  54.446  1.00  0.00    -0.051 Br
HETATM   21  C14 UNL     1      26.587   0.854  54.099  1.00  0.00     0.048 A 
ENDBRANCH  13  15
ENDBRANCH   9  13
BRANCH  12  22
HETATM   22  O2  UNL     1      25.286   4.366  50.956  1.00  0.00    -0.358 OA
HETATM   23  H12 UNL     1      25.421   4.954  50.142  1.00  0.00     0.217 HD
ENDBRANCH  12  22
BRANCH   1  24
HETATM   24  O1  UNL     1      23.151   4.877  49.370  1.00  0.00    -0.353 OA
HETATM   25  C1  UNL     1      22.085   5.271  48.532  1.00  0.00     0.210 C 
ENDBRANCH   1  24
TORSDOF 4
ENDMDL
MODEL 9
REMARK VINA RESULT:      -7.2      2.519      3.121
REMARK  4 active torsions:
REMARK  status: ('A' for Active; 'I' for Inactive)
REMARK    1  A    between atoms: O1_2  and  C2_3 
REMARK    2  A    between atoms: C8_11  and  N3_12 
REMARK    3  A    between atoms: N3_12  and  C9_13 
REMARK    4  A    between atoms: C17_22  and  O2_23 
ROOT
HETATM    1  C2  UNL     1      27.693   0.989  53.244  1.00  0.00     0.103 A 
HETATM    2  C3  UNL     1      27.120  -0.004  54.011  1.00  0.00     0.072 A 
HETATM    3  C4  UNL     1      25.747  -0.114  54.074  1.00  0.00     0.071 A 
HETATM    4  N1  UNL     1      25.226  -1.098  54.836  1.00  0.00    -0.259 NA
HETATM    5  C5  UNL     1      23.880  -1.238  54.923  1.00  0.00     0.142 A 
HETATM    6  C6  UNL     1      23.020  -0.393  54.249  1.00  0.00     0.089 A 
HETATM    7  C7  UNL     1      21.584  -0.547  54.347  1.00  0.00     0.103 C 
HETATM    8  N2  UNL     1      20.437  -0.673  54.442  1.00  0.00    -0.191 NA
HETATM    9  C8  UNL     1      23.529   0.624  53.463  1.00  0.00     0.067 A 
HETATM   10  C15 UNL     1      24.903   0.738  53.396  1.00  0.00     0.024 A 
HETATM   11  C16 UNL     1      25.461   1.735  52.626  1.00  0.00     0.055 A 
HETATM   12  C17 UNL     1      26.840   1.851  52.556  1.00  0.00     0.100 A 
ENDROOT
BRANCH   9  13
HETATM   13  N3  UNL     1      22.638   1.471  52.787  1.00  0.00    -0.354 N 
HETATM   14  H6  UNL     1      22.520   2.291  53.419  1.00  0.00     0.166 HD
BRANCH  13  15
HETATM   15  C9  UNL     1      21.976   1.386  51.555  1.00  0.00     0.033 A 
HETATM   16  C10 UNL     1      20.717   0.826  51.497  1.00  0.00     0.029 A 
HETATM   17  C11 UNL     1      20.095   0.759  50.268  1.00  0.00     0.004 A 
HETATM   18  C12 UNL     1      20.689   1.231  49.112  1.00  0.00     0.019 A 
HETATM   19  C13 UNL     1      21.966   1.801  49.160  1.00  0.00     0.013 A 
HETATM   20 BR1  UNL     1      22.774   2.447  47.573  1.00  0.00    -0.051 Br
HETATM   21  C14 UNL     1      22.569   1.858  50.403  1.00  0.00     0.048 A 
ENDBRANCH  13  15
ENDBRANCH   9  13
BRANCH  12  22
HETATM   22  O2  UNL     1      27.319   2.891  51.752  1.00  0.00    -0.358 OA
HETATM   23  H12 UNL     1      28.213   2.786  51.286  1.00  0.00     0.217 HD
ENDBRANCH  12  22
BRANCH   1  24
HETATM   24  O1  UNL     1      29.041   1.257  53.056  1.00  0.00    -0.353 OA
HETATM   25  C1  UNL     1      30.028   0.330  53.459  1.00  0.00     0.210 C 
ENDBRANCH   1  24
TORSDOF 4
ENDMDL
