MODEL 1
REMARK VINA RESULT:      -8.0      0.000      0.000
REMARK  9 active torsions:
REMARK  status: ('A' for Active; 'I' for Inactive)
REMARK    1  A    between atoms: N1_2  and  C2_3 
REMARK    2  A    between atoms: N1_2  and  C3_5 
REMARK    3  A    between atoms: C3_5  and  C4_6 
REMARK    4  A    between atoms: C4_6  and  C5_7 
REMARK    5  A    between atoms: C10_15  and  N4_16 
REMARK    6  A    between atoms: N4_16  and  C11_17 
REMARK    7  A    between atoms: C11_17  and  C12_18 
REMARK    8  A    between atoms: C11_17  and  C13_20 
REMARK    9  A    between atoms: C12_18  and  O2_19 
ROOT
HETATM    1  C5  UNL     1      25.599  -0.296  52.923  1.00  0.00     0.137 C 
HETATM    2  C6  UNL     1      24.809   0.209  54.115  1.00  0.00     0.076 C 
HETATM    3  C7  UNL     1      23.378   0.121  53.710  1.00  0.00    -0.006 A 
HETATM    4  S1  UNL     1      22.535  -1.189  54.581  1.00  0.00    -0.073 SA
HETATM    5  C8  UNL     1      20.919  -0.827  53.700  1.00  0.00     0.114 A 
HETATM    6  N2  UNL     1      19.690  -1.581  53.943  1.00  0.00    -0.234 NA
HETATM    7  C9  UNL     1      18.676  -1.142  53.199  1.00  0.00     0.236 A 
HETATM    8  N3  UNL     1      18.917  -0.151  52.401  1.00  0.00    -0.224 NA
HETATM    9  C10 UNL     1      20.016   0.519  52.188  1.00  0.00     0.139 A 
HETATM   10  C19 UNL     1      21.176   0.245  52.838  1.00  0.00     0.053 A 
HETATM   11  C20 UNL     1      22.426   0.684  52.883  1.00  0.00    -0.026 A 
HETATM   12  C21 UNL     1      22.670   1.838  51.992  1.00  0.00     0.064 C 
HETATM   13  C22 UNL     1      24.039   2.480  52.190  1.00  0.00     0.178 C 
HETATM   14  N5  UNL     1      25.117   1.745  51.684  1.00  0.00    -0.197 NA
HETATM   15  N6  UNL     1      25.715   0.708  51.939  1.00  0.00    -0.193 NA
ENDROOT
BRANCH   9  16
HETATM   16  N4  UNL     1      19.910   1.521  51.194  1.00  0.00    -0.363 N 
HETATM   17  H13 UNL     1      20.080   2.539  51.165  1.00  0.00     0.162 HD
BRANCH  16  18
HETATM   18  C11 UNL     1      19.494   1.325  49.848  1.00  0.00     0.140 C 
BRANCH  18  19
HETATM   19  C12 UNL     1      17.983   1.470  49.615  1.00  0.00     0.194 C 
BRANCH  19  20
HETATM   20  O2  UNL     1      17.439   0.176  49.562  1.00  0.00    -0.399 OA
HETATM   21  H17 UNL     1      16.876   0.072  50.362  1.00  0.00     0.209 HD
ENDBRANCH  19  20
ENDBRANCH  18  19
BRANCH  18  22
HETATM   22  C13 UNL     1      20.300   1.968  48.804  1.00  0.00    -0.034 A 
HETATM   23  C14 UNL     1      19.949   2.963  47.924  1.00  0.00     0.009 A 
HETATM   24  C15 UNL     1      20.746   3.515  46.962  1.00  0.00     0.001 A 
HETATM   25  C16 UNL     1      22.040   3.065  46.819  1.00  0.00     0.000 A 
HETATM   26  C17 UNL     1      22.500   2.068  47.649  1.00  0.00     0.001 A 
HETATM   27  C18 UNL     1      21.631   1.570  48.588  1.00  0.00     0.009 A 
ENDBRANCH  18  22
ENDBRANCH  16  18
ENDBRANCH   9  16
BRANCH   1  28
HETATM   28  C4  UNL     1      26.932  -0.878  53.364  1.00  0.00     0.049 C 
BRANCH  28  29
HETATM   29  C3  UNL     1      27.518   0.041  54.409  1.00  0.00     0.127 C 
BRANCH  29  30
HETATM   30  N1  UNL     1      28.705   0.728  53.901  1.00  0.00    -0.364 N 
HETATM   31  C1  UNL     1      29.960   0.086  53.541  1.00  0.00     0.152 C 
BRANCH  30  32
HETATM   32  C2  UNL     1      28.732   2.157  53.709  1.00  0.00     0.350 C 
HETATM   33  O1  UNL     1      29.294   2.252  54.814  1.00  0.00    -0.284 OA
ENDBRANCH  30  32
ENDBRANCH  29  30
ENDBRANCH  28  29
ENDBRANCH   1  28
TORSDOF 9
ENDMDL
MODEL 2
REMARK VINA RESULT:      -7.8      2.119      2.354
REMARK  9 active torsions:
REMARK  status: ('A' for Active; 'I' for Inactive)
REMARK    1  A    between atoms: N1_2  and  C2_3 
REMARK    2  A    between atoms: N1_2  and  C3_5 
REMARK    3  A    between atoms: C3_5  and  C4_6 
REMARK    4  A    between atoms: C4_6  and  C5_7 
REMARK    5  A    between atoms: C10_15  and  N4_16 
REMARK    6  A    between atoms: N4_16  and  C11_17 
REMARK    7  A    between atoms: C11_17  and  C12_18 
REMARK    8  A    between atoms: C11_17  and  C13_20 
REMARK    9  A    between atoms: C12_18  and  O2_19 
ROOT
HETATM    1  C5  UNL     1      25.680   0.151  52.319  1.00  0.00     0.137 C 
HETATM    2  C6  UNL     1      24.848   0.039  53.583  1.00  0.00     0.076 C 
HETATM    3  C7  UNL     1      23.488   0.516  53.207  1.00  0.00    -0.006 A 
HETATM    4  S1  UNL     1      22.321  -0.833  53.144  1.00  0.00    -0.073 SA
HETATM    5  C8  UNL     1      20.919   0.313  52.650  1.00  0.00     0.114 A 
HETATM    6  N2  UNL     1      19.555  -0.152  52.406  1.00  0.00    -0.234 NA
HETATM    7  C9  UNL     1      18.738   0.844  52.065  1.00  0.00     0.236 A 
HETATM    8  N3  UNL     1      19.252   2.031  52.002  1.00  0.00    -0.224 NA
HETATM    9  C10 UNL     1      20.471   2.440  52.220  1.00  0.00     0.139 A 
HETATM   10  C19 UNL     1      21.472   1.597  52.582  1.00  0.00     0.053 A 
HETATM   11  C20 UNL     1      22.764   1.644  52.873  1.00  0.00    -0.026 A 
HETATM   12  C21 UNL     1      23.322   3.011  52.830  1.00  0.00     0.064 C 
HETATM   13  C22 UNL     1      24.748   3.104  53.364  1.00  0.00     0.178 C 
HETATM   14  N5  UNL     1      25.732   2.579  52.519  1.00  0.00    -0.197 NA
HETATM   15  N6  UNL     1      26.097   1.483  52.114  1.00  0.00    -0.193 NA
ENDROOT
BRANCH   9  16
HETATM   16  N4  UNL     1      20.674   3.825  52.005  1.00  0.00    -0.363 N 
HETATM   17  H13 UNL     1      20.840   4.640  52.617  1.00  0.00     0.162 HD
BRANCH  16  18
HETATM   18  C11 UNL     1      20.694   4.483  50.745  1.00  0.00     0.140 C 
BRANCH  18  19
HETATM   19  C12 UNL     1      21.198   5.934  50.784  1.00  0.00     0.194 C 
BRANCH  19  20
HETATM   20  O2  UNL     1      22.025   6.061  51.911  1.00  0.00    -0.399 OA
HETATM   21  H17 UNL     1      22.074   5.172  52.330  1.00  0.00     0.209 HD
ENDBRANCH  19  20
ENDBRANCH  18  19
BRANCH  18  22
HETATM   22  C13 UNL     1      21.223   3.722  49.607  1.00  0.00    -0.034 A 
HETATM   23  C14 UNL     1      20.545   3.062  48.612  1.00  0.00     0.009 A 
HETATM   24  C15 UNL     1      21.098   2.359  47.579  1.00  0.00     0.001 A 
HETATM   25  C16 UNL     1      22.469   2.273  47.482  1.00  0.00     0.000 A 
HETATM   26  C17 UNL     1      23.250   2.897  48.427  1.00  0.00     0.001 A 
HETATM   27  C18 UNL     1      22.610   3.582  49.430  1.00  0.00     0.009 A 
ENDBRANCH  18  22
ENDBRANCH  16  18
ENDBRANCH   9  16
BRANCH   1  28
HETATM   28  C4  UNL     1      26.820  -0.853  52.330  1.00  0.00     0.049 C 
BRANCH  28  29
HETATM   29  C3  UNL     1      27.388  -0.897  53.729  1.00  0.00     0.127 C 
BRANCH  29  30
HETATM   30  N1  UNL     1      28.753  -0.372  53.760  1.00  0.00    -0.364 N 
HETATM   31  C1  UNL     1      29.962  -1.159  53.575  1.00  0.00     0.152 C 
BRANCH  30  32
HETATM   32  C2  UNL     1      29.024   1.026  53.988  1.00  0.00     0.350 C 
HETATM   33  O1  UNL     1      28.400   0.929  55.059  1.00  0.00    -0.284 OA
ENDBRANCH  30  32
ENDBRANCH  29  30
ENDBRANCH  28  29
ENDBRANCH   1  28
TORSDOF 9
ENDMDL
MODEL 3
REMARK VINA RESULT:      -7.8      3.694      6.444
REMARK  9 active torsions:
REMARK  status: ('A' for Active; 'I' for Inactive)
REMARK    1  A    between atoms: N1_2  and  C2_3 
REMARK    2  A    between atoms: N1_2  and  C3_5 
REMARK    3  A    between atoms: C3_5  and  C4_6 
REMARK    4  A    between atoms: C4_6  and  C5_7 
REMARK    5  A    between atoms: C10_15  and  N4_16 
REMARK    6  A    between atoms: N4_16  and  C11_17 
REMARK    7  A    between atoms: C11_17  and  C12_18 
REMARK    8  A    between atoms: C11_17  and  C13_20 
REMARK    9  A    between atoms: C12_18  and  O2_19 
ROOT
HETATM    1  C5  UNL     1      23.687   4.678  49.396  1.00  0.00     0.137 C 
HETATM    2  C6  UNL     1      24.732   4.866  50.479  1.00  0.00     0.076 C 
HETATM    3  C7  UNL     1      24.841   3.546  51.161  1.00  0.00    -0.006 A 
HETATM    4  S1  UNL     1      26.384   2.739  50.773  1.00  0.00    -0.073 SA
HETATM    5  C8  UNL     1      25.951   1.251  51.830  1.00  0.00     0.114 A 
HETATM    6  N2  UNL     1      26.835   0.098  51.988  1.00  0.00    -0.234 NA
HETATM    7  C9  UNL     1      26.311  -0.832  52.784  1.00  0.00     0.236 A 
HETATM    8  N3  UNL     1      25.139  -0.590  53.281  1.00  0.00    -0.224 NA
HETATM    9  C10 UNL     1      24.354   0.442  53.136  1.00  0.00     0.139 A 
HETATM   10  C19 UNL     1      24.687   1.512  52.370  1.00  0.00     0.053 A 
HETATM   11  C20 UNL     1      24.174   2.679  52.004  1.00  0.00    -0.026 A 
HETATM   12  C21 UNL     1      22.855   2.951  52.610  1.00  0.00     0.064 C 
HETATM   13  C22 UNL     1      22.355   4.372  52.365  1.00  0.00     0.178 C 
HETATM   14  N5  UNL     1      21.910   4.626  51.063  1.00  0.00    -0.197 NA
HETATM   15  N6  UNL     1      22.387   4.743  49.942  1.00  0.00    -0.193 NA
ENDROOT
BRANCH   9  16
HETATM   16  N4  UNL     1      23.111   0.333  53.806  1.00  0.00    -0.363 N 
HETATM   17  H13 UNL     1      22.611   0.899  54.509  1.00  0.00     0.162 HD
BRANCH  16  18
HETATM   18  C11 UNL     1      22.160  -0.711  53.641  1.00  0.00     0.140 C 
BRANCH  18  19
HETATM   19  C12 UNL     1      21.833  -1.492  54.923  1.00  0.00     0.194 C 
BRANCH  19  20
HETATM   20  O2  UNL     1      23.035  -1.670  55.625  1.00  0.00    -0.399 OA
HETATM   21  H17 UNL     1      23.657  -0.978  55.305  1.00  0.00     0.209 HD
ENDBRANCH  19  20
ENDBRANCH  18  19
BRANCH  18  22
HETATM   22  C13 UNL     1      20.971  -0.404  52.837  1.00  0.00    -0.034 A 
HETATM   23  C14 UNL     1      20.887   0.202  51.607  1.00  0.00     0.009 A 
HETATM   24  C15 UNL     1      19.743   0.471  50.910  1.00  0.00     0.001 A 
HETATM   25  C16 UNL     1      18.527   0.117  51.450  1.00  0.00     0.000 A 
HETATM   26  C17 UNL     1      18.491  -0.499  52.680  1.00  0.00     0.001 A 
HETATM   27  C18 UNL     1      19.689  -0.730  53.311  1.00  0.00     0.009 A 
ENDBRANCH  18  22
ENDBRANCH  16  18
ENDBRANCH   9  16
BRANCH   1  28
HETATM   28  C4  UNL     1      23.917   5.644  48.246  1.00  0.00     0.049 C 
BRANCH  28  29
HETATM   29  C3  UNL     1      24.609   6.867  48.798  1.00  0.00     0.127 C 
BRANCH  29  30
HETATM   30  N1  UNL     1      25.727   7.271  47.944  1.00  0.00    -0.364 N 
HETATM   31  C1  UNL     1      25.620   8.096  46.751  1.00  0.00     0.152 C 
BRANCH  30  32
HETATM   32  C2  UNL     1      27.082   6.865  48.225  1.00  0.00     0.350 C 
HETATM   33  O1  UNL     1      26.979   7.435  49.326  1.00  0.00    -0.284 OA
ENDBRANCH  30  32
ENDBRANCH  29  30
ENDBRANCH  28  29
ENDBRANCH   1  28
TORSDOF 9
ENDMDL
MODEL 4
REMARK VINA RESULT:      -7.6      4.268      5.846
REMARK  9 active torsions:
REMARK  status: ('A' for Active; 'I' for Inactive)
REMARK    1  A    between atoms: N1_2  and  C2_3 
REMARK    2  A    between atoms: N1_2  and  C3_5 
REMARK    3  A    between atoms: C3_5  and  C4_6 
REMARK    4  A    between atoms: C4_6  and  C5_7 
REMARK    5  A    between atoms: C10_15  and  N4_16 
REMARK    6  A    between atoms: N4_16  and  C11_17 
REMARK    7  A    between atoms: C11_17  and  C12_18 
REMARK    8  A    between atoms: C11_17  and  C13_20 
REMARK    9  A    between atoms: C12_18  and  O2_19 
ROOT
HETATM    1  C5  UNL     1      24.280   0.991  52.647  1.00  0.00     0.137 C 
HETATM    2  C6  UNL     1      22.806   1.305  52.471  1.00  0.00     0.076 C 
HETATM    3  C7  UNL     1      22.728   2.198  51.282  1.00  0.00    -0.006 A 
HETATM    4  S1  UNL     1      22.009   1.356  49.882  1.00  0.00    -0.073 SA
HETATM    5  C8  UNL     1      22.183   2.874  48.793  1.00  0.00     0.114 A 
HETATM    6  N2  UNL     1      21.760   2.907  47.394  1.00  0.00    -0.234 NA
HETATM    7  C9  UNL     1      21.986   4.092  46.829  1.00  0.00     0.236 A 
HETATM    8  N3  UNL     1      22.527   5.005  47.571  1.00  0.00    -0.224 NA
HETATM    9  C10 UNL     1      22.902   4.970  48.819  1.00  0.00     0.139 A 
HETATM   10  C19 UNL     1      22.765   3.864  49.594  1.00  0.00     0.053 A 
HETATM   11  C20 UNL     1      23.017   3.473  50.835  1.00  0.00    -0.026 A 
HETATM   12  C21 UNL     1      23.600   4.540  51.674  1.00  0.00     0.064 C 
HETATM   13  C22 UNL     1      23.698   4.167  53.151  1.00  0.00     0.178 C 
HETATM   14  N5  UNL     1      24.705   3.247  53.463  1.00  0.00    -0.197 NA
HETATM   15  N6  UNL     1      24.943   2.060  53.285  1.00  0.00    -0.193 NA
ENDROOT
BRANCH   9  16
HETATM   16  N4  UNL     1      23.505   6.164  49.285  1.00  0.00    -0.363 N 
HETATM   17  H13 UNL     1      23.417   6.739  50.138  1.00  0.00     0.162 HD
BRANCH  16  18
HETATM   18  C11 UNL     1      24.483   6.932  48.597  1.00  0.00     0.140 C 
BRANCH  18  19
HETATM   19  C12 UNL     1      24.464   8.435  48.918  1.00  0.00     0.194 C 
BRANCH  19  20
HETATM   20  O2  UNL     1      23.374   8.997  48.236  1.00  0.00    -0.399 OA
HETATM   21  H17 UNL     1      23.481   9.974  48.285  1.00  0.00     0.209 HD
ENDBRANCH  19  20
ENDBRANCH  18  19
BRANCH  18  22
HETATM   22  C13 UNL     1      25.840   6.376  48.533  1.00  0.00    -0.034 A 
HETATM   23  C14 UNL     1      26.286   5.129  48.896  1.00  0.00     0.009 A 
HETATM   24  C15 UNL     1      27.571   4.672  48.822  1.00  0.00     0.001 A 
HETATM   25  C16 UNL     1      28.556   5.506  48.342  1.00  0.00     0.000 A 
HETATM   26  C17 UNL     1      28.222   6.782  47.949  1.00  0.00     0.001 A 
HETATM   27  C18 UNL     1      26.906   7.158  48.057  1.00  0.00     0.009 A 
ENDBRANCH  18  22
ENDBRANCH  16  18
ENDBRANCH   9  16
BRANCH   1  28
HETATM   28  C4  UNL     1      24.470  -0.349  53.339  1.00  0.00     0.049 C 
BRANCH  28  29
HETATM   29  C3  UNL     1      25.718  -0.262  54.185  1.00  0.00     0.127 C 
BRANCH  29  30
HETATM   30  N1  UNL     1      26.871  -0.825  53.483  1.00  0.00    -0.364 N 
HETATM   31  C1  UNL     1      26.824  -1.926  52.534  1.00  0.00     0.152 C 
BRANCH  30  32
HETATM   32  C2  UNL     1      28.204  -0.314  53.683  1.00  0.00     0.350 C 
HETATM   33  O1  UNL     1      28.030  -0.459  54.906  1.00  0.00    -0.284 OA
ENDBRANCH  30  32
ENDBRANCH  29  30
ENDBRANCH  28  29
ENDBRANCH   1  28
TORSDOF 9
ENDMDL
MODEL 5
REMARK VINA RESULT:      -7.6      2.374      4.414
REMARK  9 active torsions:
REMARK  status: ('A' for Active; 'I' for Inactive)
REMARK    1  A    between atoms: N1_2  and  C2_3 
REMARK    2  A    between atoms: N1_2  and  C3_5 
REMARK    3  A    between atoms: C3_5  and  C4_6 
REMARK    4  A    between atoms: C4_6  and  C5_7 
REMARK    5  A    between atoms: C10_15  and  N4_16 
REMARK    6  A    between atoms: N4_16  and  C11_17 
REMARK    7  A    between atoms: C11_17  and  C12_18 
REMARK    8  A    between atoms: C11_17  and  C13_20 
REMARK    9  A    between atoms: C12_18  and  O2_19 
ROOT
HETATM    1  C5  UNL     1      25.286   0.273  54.144  1.00  0.00     0.137 C 
HETATM    2  C6  UNL     1      25.227   0.399  52.634  1.00  0.00     0.076 C 
HETATM    3  C7  UNL     1      24.056   1.277  52.353  1.00  0.00    -0.006 A 
HETATM    4  S1  UNL     1      24.573   2.885  51.777  1.00  0.00    -0.073 SA
HETATM    5  C8  UNL     1      22.799   3.475  51.623  1.00  0.00     0.114 A 
HETATM    6  N2  UNL     1      22.440   4.817  51.167  1.00  0.00    -0.234 NA
HETATM    7  C9  UNL     1      21.121   5.003  51.143  1.00  0.00     0.236 A 
HETATM    8  N3  UNL     1      20.379   4.008  51.513  1.00  0.00    -0.224 NA
HETATM    9  C10 UNL     1      20.705   2.813  51.920  1.00  0.00     0.139 A 
HETATM   10  C19 UNL     1      21.995   2.401  52.021  1.00  0.00     0.053 A 
HETATM   11  C20 UNL     1      22.676   1.321  52.376  1.00  0.00    -0.026 A 
HETATM   12  C21 UNL     1      21.811   0.187  52.760  1.00  0.00     0.064 C 
HETATM   13  C22 UNL     1      22.574  -1.118  52.966  1.00  0.00     0.178 C 
HETATM   14  N5  UNL     1      23.331  -1.181  54.141  1.00  0.00    -0.197 NA
HETATM   15  N6  UNL     1      24.344  -0.672  54.602  1.00  0.00    -0.193 NA
ENDROOT
BRANCH   9  16
HETATM   16  N4  UNL     1      19.608   1.998  52.289  1.00  0.00    -0.363 N 
HETATM   17  H13 UNL     1      19.174   1.722  53.184  1.00  0.00     0.162 HD
BRANCH  16  18
HETATM   18  C11 UNL     1      18.754   1.289  51.399  1.00  0.00     0.140 C 
BRANCH  18  19
HETATM   19  C12 UNL     1      19.334   1.064  49.994  1.00  0.00     0.194 C 
BRANCH  19  20
HETATM   20  O2  UNL     1      18.526   1.768  49.088  1.00  0.00    -0.399 OA
HETATM   21  H17 UNL     1      17.725   2.054  49.584  1.00  0.00     0.209 HD
ENDBRANCH  19  20
ENDBRANCH  18  19
BRANCH  18  22
HETATM   22  C13 UNL     1      18.072   0.105  51.935  1.00  0.00    -0.034 A 
HETATM   23  C14 UNL     1      18.484  -0.766  52.914  1.00  0.00     0.009 A 
HETATM   24  C15 UNL     1      17.805  -1.862  53.364  1.00  0.00     0.001 A 
HETATM   25  C16 UNL     1      16.579  -2.168  52.815  1.00  0.00     0.000 A 
HETATM   26  C17 UNL     1      16.067  -1.361  51.824  1.00  0.00     0.001 A 
HETATM   27  C18 UNL     1      16.818  -0.280  51.433  1.00  0.00     0.009 A 
ENDBRANCH  18  22
ENDBRANCH  16  18
ENDBRANCH   9  16
BRANCH   1  28
HETATM   28  C4  UNL     1      26.706  -0.002  54.610  1.00  0.00     0.049 C 
BRANCH  28  29
HETATM   29  C3  UNL     1      27.587  -0.095  53.388  1.00  0.00     0.127 C 
BRANCH  29  30
HETATM   30  N1  UNL     1      28.840   0.633  53.584  1.00  0.00    -0.364 N 
HETATM   31  C1  UNL     1      30.167   0.037  53.596  1.00  0.00     0.152 C 
BRANCH  30  32
HETATM   32  C2  UNL     1      28.864   2.059  53.793  1.00  0.00     0.350 C 
HETATM   33  O1  UNL     1      28.354   2.191  52.667  1.00  0.00    -0.284 OA
ENDBRANCH  30  32
ENDBRANCH  29  30
ENDBRANCH  28  29
ENDBRANCH   1  28
TORSDOF 9
ENDMDL
MODEL 6
REMARK VINA RESULT:      -7.4      2.437      7.681
REMARK  9 active torsions:
REMARK  status: ('A' for Active; 'I' for Inactive)
REMARK    1  A    between atoms: N1_2  and  C2_3 
REMARK    2  A    between atoms: N1_2  and  C3_5 
REMARK    3  A    between atoms: C3_5  and  C4_6 
REMARK    4  A    between atoms: C4_6  and  C5_7 
REMARK    5  A    between atoms: C10_15  and  N4_16 
REMARK    6  A    between atoms: N4_16  and  C11_17 
REMARK    7  A    between atoms: C11_17  and  C12_18 
REMARK    8  A    between atoms: C11_17  and  C13_20 
REMARK    9  A    between atoms: C12_18  and  O2_19 
ROOT
HETATM    1  C5  UNL     1      18.439   2.052  50.865  1.00  0.00     0.137 C 
HETATM    2  C6  UNL     1      18.665   0.559  50.718  1.00  0.00     0.076 C 
HETATM    3  C7  UNL     1      19.824   0.243  51.599  1.00  0.00    -0.006 A 
HETATM    4  S1  UNL     1      19.314  -0.674  53.042  1.00  0.00    -0.073 SA
HETATM    5  C8  UNL     1      21.070  -0.749  53.699  1.00  0.00     0.114 A 
HETATM    6  N2  UNL     1      21.426  -1.408  54.954  1.00  0.00    -0.234 NA
HETATM    7  C9  UNL     1      22.730  -1.328  55.211  1.00  0.00     0.236 A 
HETATM    8  N3  UNL     1      23.464  -0.703  54.346  1.00  0.00    -0.224 NA
HETATM    9  C10 UNL     1      23.140  -0.116  53.227  1.00  0.00     0.139 A 
HETATM   10  C19 UNL     1      21.865  -0.076  52.764  1.00  0.00     0.053 A 
HETATM   11  C20 UNL     1      21.190   0.402  51.728  1.00  0.00    -0.026 A 
HETATM   12  C21 UNL     1      22.050   1.080  50.736  1.00  0.00     0.064 C 
HETATM   13  C22 UNL     1      21.320   1.446  49.447  1.00  0.00     0.178 C 
HETATM   14  N5  UNL     1      20.437   2.526  49.554  1.00  0.00    -0.197 NA
HETATM   15  N6  UNL     1      19.359   2.775  50.077  1.00  0.00    -0.193 NA
ENDROOT
BRANCH   9  16
HETATM   16  N4  UNL     1      24.220   0.511  52.559  1.00  0.00    -0.363 N 
HETATM   17  H13 UNL     1      24.749   0.323  51.693  1.00  0.00     0.162 HD
BRANCH  16  18
HETATM   18  C11 UNL     1      24.900   1.685  52.986  1.00  0.00     0.140 C 
BRANCH  18  19
HETATM   19  C12 UNL     1      26.413   1.512  53.192  1.00  0.00     0.194 C 
BRANCH  19  20
HETATM   20  O2  UNL     1      26.842   2.541  54.045  1.00  0.00    -0.399 OA
HETATM   21  H17 UNL     1      26.963   2.141  54.935  1.00  0.00     0.209 HD
ENDBRANCH  19  20
ENDBRANCH  18  19
BRANCH  18  22
HETATM   22  C13 UNL     1      24.553   2.938  52.307  1.00  0.00    -0.034 A 
HETATM   23  C14 UNL     1      23.711   3.944  52.716  1.00  0.00     0.009 A 
HETATM   24  C15 UNL     1      23.418   5.088  52.030  1.00  0.00     0.001 A 
HETATM   25  C16 UNL     1      24.001   5.303  50.800  1.00  0.00     0.000 A 
HETATM   26  C17 UNL     1      24.864   4.360  50.291  1.00  0.00     0.001 A 
HETATM   27  C18 UNL     1      25.100   3.239  51.049  1.00  0.00     0.009 A 
ENDBRANCH  18  22
ENDBRANCH  16  18
ENDBRANCH   9  16
BRANCH   1  28
HETATM   28  C4  UNL     1      16.987   2.410  50.595  1.00  0.00     0.049 C 
BRANCH  28  29
HETATM   29  C3  UNL     1      16.178   1.136  50.642  1.00  0.00     0.127 C 
BRANCH  29  30
HETATM   30  N1  UNL     1      15.268   1.131  51.787  1.00  0.00    -0.364 N 
HETATM   31  C1  UNL     1      15.201   0.094  52.805  1.00  0.00     0.152 C 
BRANCH  30  32
HETATM   32  C2  UNL     1      14.322   2.196  52.010  1.00  0.00     0.350 C 
HETATM   33  O1  UNL     1      14.275   1.848  53.202  1.00  0.00    -0.284 OA
ENDBRANCH  30  32
ENDBRANCH  29  30
ENDBRANCH  28  29
ENDBRANCH   1  28
TORSDOF 9
ENDMDL
MODEL 7
REMARK VINA RESULT:      -7.1      3.028      8.293
REMARK  9 active torsions:
REMARK  status: ('A' for Active; 'I' for Inactive)
REMARK    1  A    between atoms: N1_2  and  C2_3 
REMARK    2  A    between atoms: N1_2  and  C3_5 
REMARK    3  A    between atoms: C3_5  and  C4_6 
REMARK    4  A    between atoms: C4_6  and  C5_7 
REMARK    5  A    between atoms: C10_15  and  N4_16 
REMARK    6  A    between atoms: N4_16  and  C11_17 
REMARK    7  A    between atoms: C11_17  and  C12_18 
REMARK    8  A    between atoms: C11_17  and  C13_20 
REMARK    9  A    between atoms: C12_18  and  O2_19 
ROOT
HETATM    1  C5  UNL     1      19.396   0.748  51.156  1.00  0.00     0.137 C 
HETATM    2  C6  UNL     1      19.226   1.882  52.148  1.00  0.00     0.076 C 
HETATM    3  C7  UNL     1      20.393   2.781  51.928  1.00  0.00    -0.006 A 
HETATM    4  S1  UNL     1      19.900   4.308  51.148  1.00  0.00    -0.073 SA
HETATM    5  C8  UNL     1      21.663   4.949  51.132  1.00  0.00     0.114 A 
HETATM    6  N2  UNL     1      22.034   6.254  50.589  1.00  0.00    -0.234 NA
HETATM    7  C9  UNL     1      23.342   6.486  50.687  1.00  0.00     0.236 A 
HETATM    8  N3  UNL     1      24.066   5.558  51.227  1.00  0.00    -0.224 NA
HETATM    9  C10 UNL     1      23.729   4.394  51.710  1.00  0.00     0.139 A 
HETATM   10  C19 UNL     1      22.446   3.948  51.717  1.00  0.00     0.053 A 
HETATM   11  C20 UNL     1      21.760   2.881  52.101  1.00  0.00    -0.026 A 
HETATM   12  C21 UNL     1      22.598   1.851  52.747  1.00  0.00     0.064 C 
HETATM   13  C22 UNL     1      21.792   0.719  53.377  1.00  0.00     0.178 C 
HETATM   14  N5  UNL     1      21.226  -0.182  52.469  1.00  0.00    -0.197 NA
HETATM   15  N6  UNL     1      20.333  -0.193  51.631  1.00  0.00    -0.193 NA
ENDROOT
BRANCH   9  16
HETATM   16  N4  UNL     1      24.815   3.618  52.184  1.00  0.00    -0.363 N 
HETATM   17  H13 UNL     1      25.385   3.613  53.044  1.00  0.00     0.162 HD
BRANCH  16  18
HETATM   18  C11 UNL     1      25.439   2.543  51.494  1.00  0.00     0.140 C 
BRANCH  18  19
HETATM   19  C12 UNL     1      26.194   2.948  50.220  1.00  0.00     0.194 C 
BRANCH  19  20
HETATM   20  O2  UNL     1      27.277   3.752  50.610  1.00  0.00    -0.399 OA
HETATM   21  H17 UNL     1      27.876   3.184  51.145  1.00  0.00     0.209 HD
ENDBRANCH  19  20
ENDBRANCH  18  19
BRANCH  18  22
HETATM   22  C13 UNL     1      26.172   1.567  52.310  1.00  0.00    -0.034 A 
HETATM   23  C14 UNL     1      26.662   1.696  53.587  1.00  0.00     0.009 A 
HETATM   24  C15 UNL     1      27.349   0.750  54.293  1.00  0.00     0.001 A 
HETATM   25  C16 UNL     1      27.601  -0.473  53.711  1.00  0.00     0.000 A 
HETATM   26  C17 UNL     1      27.156  -0.713  52.432  1.00  0.00     0.001 A 
HETATM   27  C18 UNL     1      26.473   0.295  51.796  1.00  0.00     0.009 A 
ENDBRANCH  18  22
ENDBRANCH  16  18
ENDBRANCH   9  16
BRANCH   1  28
HETATM   28  C4  UNL     1      18.051   0.141  50.790  1.00  0.00     0.049 C 
BRANCH  28  29
HETATM   29  C3  UNL     1      17.040   0.604  51.811  1.00  0.00     0.127 C 
BRANCH  29  30
HETATM   30  N1  UNL     1      16.278  -0.524  52.347  1.00  0.00    -0.364 N 
HETATM   31  C1  UNL     1      16.841  -1.801  52.757  1.00  0.00     0.152 C 
BRANCH  30  32
HETATM   32  C2  UNL     1      14.848  -0.461  52.519  1.00  0.00     0.350 C 
HETATM   33  O1  UNL     1      15.021   0.535  53.243  1.00  0.00    -0.284 OA
ENDBRANCH  30  32
ENDBRANCH  29  30
ENDBRANCH  28  29
ENDBRANCH   1  28
TORSDOF 9
ENDMDL
MODEL 8
REMARK VINA RESULT:      -7.0      5.179      7.619
REMARK  9 active torsions:
REMARK  status: ('A' for Active; 'I' for Inactive)
REMARK    1  A    between atoms: N1_2  and  C2_3 
REMARK    2  A    between atoms: N1_2  and  C3_5 
REMARK    3  A    between atoms: C3_5  and  C4_6 
REMARK    4  A    between atoms: C4_6  and  C5_7 
REMARK    5  A    between atoms: C10_15  and  N4_16 
REMARK    6  A    between atoms: N4_16  and  C11_17 
REMARK    7  A    between atoms: C11_17  and  C12_18 
REMARK    8  A    between atoms: C11_17  and  C13_20 
REMARK    9  A    between atoms: C12_18  and  O2_19 
ROOT
HETATM    1  C5  UNL     1      24.516   2.930  52.424  1.00  0.00     0.137 C 
HETATM    2  C6  UNL     1      24.345   2.779  50.924  1.00  0.00     0.076 C 
HETATM    3  C7  UNL     1      25.120   3.898  50.320  1.00  0.00    -0.006 A 
HETATM    4  S1  UNL     1      26.599   3.305  49.516  1.00  0.00    -0.073 SA
HETATM    5  C8  UNL     1      27.101   5.040  49.009  1.00  0.00     0.114 A 
HETATM    6  N2  UNL     1      28.319   5.331  48.255  1.00  0.00    -0.234 NA
HETATM    7  C9  UNL     1      28.463   6.633  48.015  1.00  0.00     0.236 A 
HETATM    8  N3  UNL     1      27.540   7.421  48.469  1.00  0.00    -0.224 NA
HETATM    9  C10 UNL     1      26.455   7.155  49.142  1.00  0.00     0.139 A 
HETATM   10  C19 UNL     1      26.104   5.892  49.497  1.00  0.00     0.053 A 
HETATM   11  C20 UNL     1      25.132   5.268  50.146  1.00  0.00    -0.026 A 
HETATM   12  C21 UNL     1      24.072   6.180  50.623  1.00  0.00     0.064 C 
HETATM   13  C22 UNL     1      22.853   5.454  51.184  1.00  0.00     0.178 C 
HETATM   14  N5  UNL     1      23.039   4.867  52.440  1.00  0.00    -0.197 NA
HETATM   15  N6  UNL     1      23.654   3.927  52.926  1.00  0.00    -0.193 NA
ENDROOT
BRANCH   9  16
HETATM   16  N4  UNL     1      25.699   8.294  49.511  1.00  0.00    -0.363 N 
HETATM   17  H13 UNL     1      25.478   8.764  50.404  1.00  0.00     0.162 HD
BRANCH  16  18
HETATM   18  C11 UNL     1      24.985   9.149  48.626  1.00  0.00     0.140 C 
BRANCH  18  19
HETATM   19  C12 UNL     1      25.665  10.498  48.347  1.00  0.00     0.194 C 
BRANCH  19  20
HETATM   20  O2  UNL     1      26.794  10.580  49.177  1.00  0.00    -0.399 OA
HETATM   21  H17 UNL     1      26.566  11.197  49.908  1.00  0.00     0.209 HD
ENDBRANCH  19  20
ENDBRANCH  18  19
BRANCH  18  22
HETATM   22  C13 UNL     1      24.417   8.532  47.422  1.00  0.00    -0.034 A 
HETATM   23  C14 UNL     1      23.338   7.690  47.304  1.00  0.00     0.009 A 
HETATM   24  C15 UNL     1      22.862   7.137  46.149  1.00  0.00     0.001 A 
HETATM   25  C16 UNL     1      23.490   7.422  44.957  1.00  0.00     0.000 A 
HETATM   26  C17 UNL     1      24.584   8.257  44.957  1.00  0.00     0.001 A 
HETATM   27  C18 UNL     1      24.995   8.768  46.163  1.00  0.00     0.009 A 
ENDBRANCH  18  22
ENDBRANCH  16  18
ENDBRANCH   9  16
BRANCH   1  28
HETATM   28  C4  UNL     1      24.374   1.588  53.124  1.00  0.00     0.049 C 
BRANCH  28  29
HETATM   29  C3  UNL     1      25.199   0.578  52.364  1.00  0.00     0.127 C 
BRANCH  29  30
HETATM   30  N1  UNL     1      26.024  -0.219  53.272  1.00  0.00    -0.364 N 
HETATM   31  C1  UNL     1      26.723  -1.445  52.917  1.00  0.00     0.152 C 
BRANCH  30  32
HETATM   32  C2  UNL     1      26.218   0.159  54.649  1.00  0.00     0.350 C 
HETATM   33  O1  UNL     1      27.286  -0.478  54.629  1.00  0.00    -0.284 OA
ENDBRANCH  30  32
ENDBRANCH  29  30
ENDBRANCH  28  29
ENDBRANCH   1  28
TORSDOF 9
ENDMDL
MODEL 9
REMARK VINA RESULT:      -7.0      6.857      9.041
REMARK  9 active torsions:
REMARK  status: ('A' for Active; 'I' for Inactive)
REMARK    1  A    between atoms: N1_2  and  C2_3 
REMARK    2  A    between atoms: N1_2  and  C3_5 
REMARK    3  A    between atoms: C3_5  and  C4_6 
REMARK    4  A    between atoms: C4_6  and  C5_7 
REMARK    5  A    between atoms: C10_15  and  N4_16 
REMARK    6  A    between atoms: N4_16  and  C11_17 
REMARK    7  A    between atoms: C11_17  and  C12_18 
REMARK    8  A    between atoms: C11_17  and  C13_20 
REMARK    9  A    between atoms: C12_18  and  O2_19 
ROOT
HETATM    1  C5  UNL     1      29.573   7.983  48.139  1.00  0.00     0.137 C 
HETATM    2  C6  UNL     1      28.387   7.786  47.214  1.00  0.00     0.076 C 
HETATM    3  C7  UNL     1      27.253   7.396  48.098  1.00  0.00    -0.006 A 
HETATM    4  S1  UNL     1      26.052   8.709  48.231  1.00  0.00    -0.073 SA
HETATM    5  C8  UNL     1      24.973   7.697  49.385  1.00  0.00     0.114 A 
HETATM    6  N2  UNL     1      23.716   8.191  49.942  1.00  0.00    -0.234 NA
HETATM    7  C9  UNL     1      23.130   7.295  50.734  1.00  0.00     0.236 A 
HETATM    8  N3  UNL     1      23.737   6.162  50.891  1.00  0.00    -0.224 NA
HETATM    9  C10 UNL     1      24.860   5.726  50.391  1.00  0.00     0.139 A 
HETATM   10  C19 UNL     1      25.626   6.471  49.553  1.00  0.00     0.053 A 
HETATM   11  C20 UNL     1      26.766   6.371  48.884  1.00  0.00    -0.026 A 
HETATM   12  C21 UNL     1      27.423   5.058  49.047  1.00  0.00     0.064 C 
HETATM   13  C22 UNL     1      28.619   4.857  48.121  1.00  0.00     0.178 C 
HETATM   14  N5  UNL     1      29.767   5.577  48.471  1.00  0.00    -0.197 NA
HETATM   15  N6  UNL     1      30.145   6.741  48.487  1.00  0.00    -0.193 NA
ENDROOT
BRANCH   9  16
HETATM   16  N4  UNL     1      25.235   4.432  50.829  1.00  0.00    -0.363 N 
HETATM   17  H13 UNL     1      26.128   3.980  51.083  1.00  0.00     0.162 HD
BRANCH  16  18
HETATM   18  C11 UNL     1      24.359   3.333  51.041  1.00  0.00     0.140 C 
BRANCH  18  19
HETATM   19  C12 UNL     1      23.413   3.030  49.870  1.00  0.00     0.194 C 
BRANCH  19  20
HETATM   20  O2  UNL     1      22.141   3.509  50.222  1.00  0.00    -0.399 OA
HETATM   21  H17 UNL     1      22.199   3.809  51.157  1.00  0.00     0.209 HD
ENDBRANCH  19  20
ENDBRANCH  18  19
BRANCH  18  22
HETATM   22  C13 UNL     1      24.942   2.124  51.635  1.00  0.00    -0.034 A 
HETATM   23  C14 UNL     1      26.232   1.657  51.565  1.00  0.00     0.009 A 
HETATM   24  C15 UNL     1      26.713   0.512  52.134  1.00  0.00     0.001 A 
HETATM   25  C16 UNL     1      25.861  -0.288  52.863  1.00  0.00     0.000 A 
HETATM   26  C17 UNL     1      24.544   0.085  53.001  1.00  0.00     0.001 A 
HETATM   27  C18 UNL     1      24.145   1.251  52.394  1.00  0.00     0.009 A 
ENDBRANCH  18  22
ENDBRANCH  16  18
ENDBRANCH   9  16
BRANCH   1  28
HETATM   28  C4  UNL     1      30.566   8.969  47.545  1.00  0.00     0.049 C 
BRANCH  28  29
HETATM   29  C3  UNL     1      29.803  10.205  47.133  1.00  0.00     0.127 C 
BRANCH  29  30
HETATM   30  N1  UNL     1      29.675  11.141  48.249  1.00  0.00    -0.364 N 
HETATM   31  C1  UNL     1      28.419  11.600  48.823  1.00  0.00     0.152 C 
BRANCH  30  32
HETATM   32  C2  UNL     1      30.829  11.711  48.899  1.00  0.00     0.350 C 
HETATM   33  O1  UNL     1      30.124  12.690  49.199  1.00  0.00    -0.284 OA
ENDBRANCH  30  32
ENDBRANCH  29  30
ENDBRANCH  28  29
ENDBRANCH   1  28
TORSDOF 9
ENDMDL
