MODEL 1
REMARK VINA RESULT:      -7.0      0.000      0.000
REMARK  5 active torsions:
REMARK  status: ('A' for Active; 'I' for Inactive)
REMARK    1  A    between atoms: C3_3  and  C4_4 
REMARK    2  A    between atoms: C12_14  and  C13_15 
REMARK    3  A    between atoms: C13_15  and  N1_16 
REMARK    4  A    between atoms: C15_19  and  C16_20 
REMARK    5  A    between atoms: C16_20  and  N2_21 
ROOT
HETATM    1  C4  UNL     1      26.044   1.776  51.580  1.00  0.00     0.120 A 
HETATM    2  C5  UNL     1      25.117   1.615  52.646  1.00  0.00     0.060 C 
HETATM    3  C6  UNL     1      23.819   2.267  53.113  1.00  0.00     0.176 C 
HETATM    4  O1  UNL     1      22.798   1.523  53.134  1.00  0.00    -0.390 OA
HETATM    5  C7  UNL     1      22.208   0.511  53.650  1.00  0.00     0.172 C 
HETATM    6  C8  UNL     1      20.889   0.298  52.840  1.00  0.00     0.011 C 
HETATM    7  C9  UNL     1      20.018  -0.700  53.487  1.00  0.00     0.012 C 
HETATM    8  C10 UNL     1      20.321   1.595  52.518  1.00  0.00     0.012 C 
HETATM    9  C11 UNL     1      20.225   2.127  51.273  1.00  0.00     0.163 C 
HETATM   10  S1  UNL     1      19.673   3.525  50.384  1.00  0.00    -0.221 SA
HETATM   11  C12 UNL     1      20.588   4.046  48.961  1.00  0.00     0.119 C 
HETATM   12  S2  UNL     1      22.222   4.733  49.268  1.00  0.00    -0.153 SA
HETATM   13  C14 UNL     1      23.275   3.410  49.860  1.00  0.00     0.084 C 
HETATM   14  C15 UNL     1      24.634   3.875  50.379  1.00  0.00     0.064 C 
HETATM   15  C19 UNL     1      25.253   2.806  51.076  1.00  0.00     0.138 A 
HETATM   16  O2  UNL     1      26.354   2.471  50.501  1.00  0.00    -0.354 OA
ENDROOT
BRANCH  11  17
HETATM   17  C13 UNL     1      20.606   3.017  47.832  1.00  0.00     0.290 C 
BRANCH  17  18
HETATM   18  N1  UNL     1      19.274   2.538  47.620  1.00  0.00     0.080 N 
HETATM   19  H20 UNL     1      18.977   2.682  46.642  1.00  0.00     0.312 HD
HETATM   20  H21 UNL     1      18.648   2.901  48.352  1.00  0.00     0.312 HD
ENDBRANCH  17  18
ENDBRANCH  11  17
BRANCH  14  21
HETATM   21  C16 UNL     1      25.415   4.420  49.193  1.00  0.00     0.280 C 
BRANCH  21  22
HETATM   22  N2  UNL     1      26.112   5.604  49.640  1.00  0.00     0.080 N 
HETATM   23  C17 UNL     1      25.249   6.540  50.309  1.00  0.00     0.309 C 
HETATM   24  C18 UNL     1      26.892   6.208  48.575  1.00  0.00     0.309 C 
ENDBRANCH  21  22
ENDBRANCH  14  21
BRANCH   1  25
HETATM   25  C3  UNL     1      26.940   0.770  51.961  1.00  0.00     0.010 C 
HETATM   26  C2  UNL     1      26.376  -0.410  52.323  1.00  0.00    -0.032 C 
HETATM   27  C1  UNL     1      27.101  -1.650  52.769  1.00  0.00     0.036 C 
ENDBRANCH   1  25
TORSDOF 5
ENDMDL
MODEL 2
REMARK VINA RESULT:      -6.7      2.292      5.643
REMARK  5 active torsions:
REMARK  status: ('A' for Active; 'I' for Inactive)
REMARK    1  A    between atoms: C3_3  and  C4_4 
REMARK    2  A    between atoms: C12_14  and  C13_15 
REMARK    3  A    between atoms: C13_15  and  N1_16 
REMARK    4  A    between atoms: C15_19  and  C16_20 
REMARK    5  A    between atoms: C16_20  and  N2_21 
ROOT
HETATM    1  C4  UNL     1      26.265   1.909  52.370  1.00  0.00     0.120 A 
HETATM    2  C5  UNL     1      26.800   2.335  51.123  1.00  0.00     0.060 C 
HETATM    3  C6  UNL     1      26.264   2.742  49.754  1.00  0.00     0.176 C 
HETATM    4  O1  UNL     1      26.508   3.928  49.391  1.00  0.00    -0.390 OA
HETATM    5  C7  UNL     1      27.385   4.797  49.053  1.00  0.00     0.172 C 
HETATM    6  C8  UNL     1      26.631   6.154  48.880  1.00  0.00     0.011 C 
HETATM    7  C9  UNL     1      27.502   7.177  48.273  1.00  0.00     0.012 C 
HETATM    8  C10 UNL     1      25.343   5.900  48.262  1.00  0.00     0.012 C 
HETATM    9  C11 UNL     1      24.135   6.059  48.861  1.00  0.00     0.163 C 
HETATM   10  S1  UNL     1      22.413   5.917  48.606  1.00  0.00    -0.221 SA
HETATM   11  C12 UNL     1      21.391   5.400  49.956  1.00  0.00     0.119 C 
HETATM   12  S2  UNL     1      21.577   3.692  50.491  1.00  0.00    -0.153 SA
HETATM   13  C14 UNL     1      23.199   3.519  51.232  1.00  0.00     0.084 C 
HETATM   14  C15 UNL     1      23.599   2.077  51.536  1.00  0.00     0.064 C 
HETATM   15  C19 UNL     1      24.983   2.036  51.841  1.00  0.00     0.138 A 
HETATM   16  O2  UNL     1      25.168   1.618  53.044  1.00  0.00    -0.354 OA
ENDROOT
BRANCH  11  17
HETATM   17  C13 UNL     1      21.395   6.370  51.135  1.00  0.00     0.290 C 
BRANCH  17  18
HETATM   18  N1  UNL     1      21.456   7.710  50.633  1.00  0.00     0.080 N 
HETATM   19  H20 UNL     1      20.823   8.334  51.158  1.00  0.00     0.312 HD
HETATM   20  H21 UNL     1      21.359   7.707  49.609  1.00  0.00     0.312 HD
ENDBRANCH  17  18
ENDBRANCH  11  17
BRANCH  14  21
HETATM   21  C16 UNL     1      22.674   1.567  52.631  1.00  0.00     0.280 C 
BRANCH  21  22
HETATM   22  N2  UNL     1      22.184   0.272  52.216  1.00  0.00     0.080 N 
HETATM   23  C17 UNL     1      20.779   0.279  51.911  1.00  0.00     0.309 C 
HETATM   24  C18 UNL     1      22.562  -0.774  53.148  1.00  0.00     0.309 C 
ENDBRANCH  21  22
ENDBRANCH  14  21
BRANCH   1  25
HETATM   25  C3  UNL     1      27.482   1.729  53.040  1.00  0.00     0.010 C 
HETATM   26  C2  UNL     1      27.912   0.445  53.137  1.00  0.00    -0.032 C 
HETATM   27  C1  UNL     1      29.178  -0.027  53.796  1.00  0.00     0.036 C 
ENDBRANCH   1  25
TORSDOF 5
ENDMDL
MODEL 3
REMARK VINA RESULT:      -6.3      2.230      3.589
REMARK  5 active torsions:
REMARK  status: ('A' for Active; 'I' for Inactive)
REMARK    1  A    between atoms: C3_3  and  C4_4 
REMARK    2  A    between atoms: C12_14  and  C13_15 
REMARK    3  A    between atoms: C13_15  and  N1_16 
REMARK    4  A    between atoms: C15_19  and  C16_20 
REMARK    5  A    between atoms: C16_20  and  N2_21 
ROOT
HETATM    1  C4  UNL     1      24.949   4.457  49.744  1.00  0.00     0.120 A 
HETATM    2  C5  UNL     1      24.913   3.854  51.031  1.00  0.00     0.060 C 
HETATM    3  C6  UNL     1      23.899   3.671  52.157  1.00  0.00     0.176 C 
HETATM    4  O1  UNL     1      23.585   2.479  52.435  1.00  0.00    -0.390 OA
HETATM    5  C7  UNL     1      23.956   1.342  52.892  1.00  0.00     0.172 C 
HETATM    6  C8  UNL     1      22.748   0.368  52.707  1.00  0.00     0.011 C 
HETATM    7  C9  UNL     1      22.980  -0.912  53.401  1.00  0.00     0.012 C 
HETATM    8  C10 UNL     1      21.518   1.085  52.988  1.00  0.00     0.012 C 
HETATM    9  C11 UNL     1      20.560   1.396  52.078  1.00  0.00     0.163 C 
HETATM   10  S1  UNL     1      19.009   2.174  51.885  1.00  0.00    -0.221 SA
HETATM   11  C12 UNL     1      18.673   3.045  50.381  1.00  0.00     0.119 C 
HETATM   12  S2  UNL     1      19.606   4.560  50.109  1.00  0.00    -0.153 SA
HETATM   13  C14 UNL     1      21.320   4.113  49.846  1.00  0.00     0.084 C 
HETATM   14  C15 UNL     1      22.281   5.301  49.822  1.00  0.00     0.064 C 
HETATM   15  C19 UNL     1      23.612   4.819  49.899  1.00  0.00     0.138 A 
HETATM   16  O2  UNL     1      24.271   5.143  48.842  1.00  0.00    -0.354 OA
ENDROOT
BRANCH  11  17
HETATM   17  C13 UNL     1      18.666   2.151  49.143  1.00  0.00     0.290 C 
BRANCH  17  18
HETATM   18  N1  UNL     1      17.998   0.925  49.460  1.00  0.00     0.080 N 
HETATM   19  H20 UNL     1      16.973   1.032  49.398  1.00  0.00     0.312 HD
HETATM   20  H21 UNL     1      18.371   0.538  50.337  1.00  0.00     0.312 HD
ENDBRANCH  17  18
ENDBRANCH  11  17
BRANCH  14  21
HETATM   21  C16 UNL     1      21.956   6.127  48.587  1.00  0.00     0.280 C 
BRANCH  21  22
HETATM   22  N2  UNL     1      21.855   7.507  49.004  1.00  0.00     0.080 N 
HETATM   23  C17 UNL     1      22.943   8.317  48.522  1.00  0.00     0.309 C 
HETATM   24  C18 UNL     1      21.645   7.626  50.434  1.00  0.00     0.309 C 
ENDBRANCH  21  22
ENDBRANCH  14  21
BRANCH   1  25
HETATM   25  C3  UNL     1      26.285   4.169  49.443  1.00  0.00     0.010 C 
HETATM   26  C2  UNL     1      26.976   5.166  48.833  1.00  0.00    -0.032 C 
HETATM   27  C1  UNL     1      28.416   5.126  48.406  1.00  0.00     0.036 C 
ENDBRANCH   1  25
TORSDOF 5
ENDMDL
MODEL 4
REMARK VINA RESULT:      -6.2      1.515      1.817
REMARK  5 active torsions:
REMARK  status: ('A' for Active; 'I' for Inactive)
REMARK    1  A    between atoms: C3_3  and  C4_4 
REMARK    2  A    between atoms: C12_14  and  C13_15 
REMARK    3  A    between atoms: C13_15  and  N1_16 
REMARK    4  A    between atoms: C15_19  and  C16_20 
REMARK    5  A    between atoms: C16_20  and  N2_21 
ROOT
HETATM    1  C4  UNL     1      24.112   1.277  52.096  1.00  0.00     0.120 A 
HETATM    2  C5  UNL     1      22.941   1.098  52.881  1.00  0.00     0.060 C 
HETATM    3  C6  UNL     1      21.589   1.785  53.053  1.00  0.00     0.176 C 
HETATM    4  O1  UNL     1      20.572   1.094  52.762  1.00  0.00    -0.390 OA
HETATM    5  C7  UNL     1      19.837   0.083  53.039  1.00  0.00     0.172 C 
HETATM    6  C8  UNL     1      18.761  -0.012  51.910  1.00  0.00     0.011 C 
HETATM    7  C9  UNL     1      17.721  -1.003  52.243  1.00  0.00     0.012 C 
HETATM    8  C10 UNL     1      18.336   1.328  51.550  1.00  0.00     0.012 C 
HETATM    9  C11 UNL     1      18.578   1.941  50.363  1.00  0.00     0.163 C 
HETATM   10  S1  UNL     1      18.317   3.417  49.468  1.00  0.00    -0.221 SA
HETATM   11  C12 UNL     1      19.580   3.978  48.362  1.00  0.00     0.119 C 
HETATM   12  S2  UNL     1      21.105   4.561  49.119  1.00  0.00    -0.153 SA
HETATM   13  C14 UNL     1      21.927   3.153  49.859  1.00  0.00     0.084 C 
HETATM   14  C15 UNL     1      23.125   3.516  50.735  1.00  0.00     0.064 C 
HETATM   15  C19 UNL     1      23.510   2.376  51.485  1.00  0.00     0.138 A 
HETATM   16  O2  UNL     1      24.710   2.021  51.183  1.00  0.00    -0.354 OA
ENDROOT
BRANCH  11  17
HETATM   17  C13 UNL     1      19.850   3.021  47.203  1.00  0.00     0.290 C 
BRANCH  17  18
HETATM   18  N1  UNL     1      18.641   2.842  46.457  1.00  0.00     0.080 N 
HETATM   19  H20 UNL     1      17.907   3.494  46.775  1.00  0.00     0.312 HD
HETATM   20  H21 UNL     1      18.392   1.844  46.426  1.00  0.00     0.312 HD
ENDBRANCH  17  18
ENDBRANCH  11  17
BRANCH  14  21
HETATM   21  C16 UNL     1      24.200   4.092  49.826  1.00  0.00     0.280 C 
BRANCH  21  22
HETATM   22  N2  UNL     1      24.826   5.185  50.535  1.00  0.00     0.080 N 
HETATM   23  C17 UNL     1      23.878   6.024  51.217  1.00  0.00     0.309 C 
HETATM   24  C18 UNL     1      25.739   5.928  49.686  1.00  0.00     0.309 C 
ENDBRANCH  21  22
ENDBRANCH  14  21
BRANCH   1  25
HETATM   25  C3  UNL     1      24.849   0.207  52.616  1.00  0.00     0.010 C 
HETATM   26  C2  UNL     1      26.145   0.140  52.219  1.00  0.00    -0.032 C 
HETATM   27  C1  UNL     1      27.154  -0.897  52.627  1.00  0.00     0.036 C 
ENDBRANCH   1  25
TORSDOF 5
ENDMDL
MODEL 5
REMARK VINA RESULT:      -6.0      2.790      6.445
REMARK  5 active torsions:
REMARK  status: ('A' for Active; 'I' for Inactive)
REMARK    1  A    between atoms: C3_3  and  C4_4 
REMARK    2  A    between atoms: C12_14  and  C13_15 
REMARK    3  A    between atoms: C13_15  and  N1_16 
REMARK    4  A    between atoms: C15_19  and  C16_20 
REMARK    5  A    between atoms: C16_20  and  N2_21 
ROOT
HETATM    1  C4  UNL     1      20.645  -0.005  53.417  1.00  0.00     0.120 A 
HETATM    2  C5  UNL     1      21.807   0.090  52.604  1.00  0.00     0.060 C 
HETATM    3  C6  UNL     1      22.133   0.373  51.141  1.00  0.00     0.176 C 
HETATM    4  O1  UNL     1      22.825   1.405  50.914  1.00  0.00    -0.390 OA
HETATM    5  C7  UNL     1      23.951   2.002  51.043  1.00  0.00     0.172 C 
HETATM    6  C8  UNL     1      23.765   3.441  50.464  1.00  0.00     0.011 C 
HETATM    7  C9  UNL     1      25.056   4.145  50.353  1.00  0.00     0.012 C 
HETATM    8  C10 UNL     1      22.924   3.368  49.284  1.00  0.00     0.012 C 
HETATM    9  C11 UNL     1      21.668   3.874  49.176  1.00  0.00     0.163 C 
HETATM   10  S1  UNL     1      20.319   4.059  48.084  1.00  0.00    -0.221 SA
HETATM   11  C12 UNL     1      18.676   3.996  48.739  1.00  0.00     0.119 C 
HETATM   12  S2  UNL     1      18.120   2.399  49.351  1.00  0.00    -0.153 SA
HETATM   13  C14 UNL     1      19.067   2.010  50.821  1.00  0.00     0.084 C 
HETATM   14  C15 UNL     1      18.871   0.584  51.334  1.00  0.00     0.064 C 
HETATM   15  C19 UNL     1      19.866   0.302  52.303  1.00  0.00     0.138 A 
HETATM   16  O2  UNL     1      19.326   0.056  53.446  1.00  0.00    -0.354 OA
ENDROOT
BRANCH  11  17
HETATM   17  C13 UNL     1      18.364   5.123  49.722  1.00  0.00     0.290 C 
BRANCH  17  18
HETATM   18  N1  UNL     1      18.695   6.376  49.113  1.00  0.00     0.080 N 
HETATM   19  H20 UNL     1      19.202   6.236  48.225  1.00  0.00     0.312 HD
HETATM   20  H21 UNL     1      19.134   6.998  49.804  1.00  0.00     0.312 HD
ENDBRANCH  17  18
ENDBRANCH  11  17
BRANCH  14  21
HETATM   21  C16 UNL     1      17.434   0.466  51.820  1.00  0.00     0.280 C 
BRANCH  21  22
HETATM   22  N2  UNL     1      16.921  -0.801  51.351  1.00  0.00     0.080 N 
HETATM   23  C17 UNL     1      16.044  -0.664  50.220  1.00  0.00     0.309 C 
HETATM   24  C18 UNL     1      16.346  -1.584  52.429  1.00  0.00     0.309 C 
ENDBRANCH  21  22
ENDBRANCH  14  21
BRANCH   1  25
HETATM   25  C3  UNL     1      21.286  -0.326  54.619  1.00  0.00     0.010 C 
HETATM   26  C2  UNL     1      22.451  -1.014  54.496  1.00  0.00    -0.032 C 
HETATM   27  C1  UNL     1      23.339  -1.478  55.617  1.00  0.00     0.036 C 
ENDBRANCH   1  25
TORSDOF 5
ENDMDL
MODEL 6
REMARK VINA RESULT:      -6.0      3.657      6.941
REMARK  5 active torsions:
REMARK  status: ('A' for Active; 'I' for Inactive)
REMARK    1  A    between atoms: C3_3  and  C4_4 
REMARK    2  A    between atoms: C12_14  and  C13_15 
REMARK    3  A    between atoms: C13_15  and  N1_16 
REMARK    4  A    between atoms: C15_19  and  C16_20 
REMARK    5  A    between atoms: C16_20  and  N2_21 
ROOT
HETATM    1  C4  UNL     1      20.990  -0.155  53.176  1.00  0.00     0.120 A 
HETATM    2  C5  UNL     1      21.690   0.117  51.969  1.00  0.00     0.060 C 
HETATM    3  C6  UNL     1      21.357   0.263  50.487  1.00  0.00     0.176 C 
HETATM    4  O1  UNL     1      21.587   1.395  49.974  1.00  0.00    -0.390 OA
HETATM    5  C7  UNL     1      22.456   2.270  49.631  1.00  0.00     0.172 C 
HETATM    6  C8  UNL     1      21.663   3.518  49.127  1.00  0.00     0.011 C 
HETATM    7  C9  UNL     1      22.559   4.504  48.496  1.00  0.00     0.012 C 
HETATM    8  C10 UNL     1      20.506   3.067  48.375  1.00  0.00     0.012 C 
HETATM    9  C11 UNL     1      19.211   3.216  48.755  1.00  0.00     0.163 C 
HETATM   10  S1  UNL     1      17.563   2.896  48.275  1.00  0.00    -0.221 SA
HETATM   11  C12 UNL     1      16.370   2.511  49.525  1.00  0.00     0.119 C 
HETATM   12  S2  UNL     1      16.566   0.928  50.357  1.00  0.00    -0.153 SA
HETATM   13  C14 UNL     1      18.056   1.004  51.347  1.00  0.00     0.084 C 
HETATM   14  C15 UNL     1      18.485  -0.336  51.941  1.00  0.00     0.064 C 
HETATM   15  C19 UNL     1      19.803  -0.216  52.449  1.00  0.00     0.138 A 
HETATM   16  O2  UNL     1      19.817  -0.427  53.719  1.00  0.00    -0.354 OA
ENDROOT
BRANCH  11  17
HETATM   17  C13 UNL     1      16.131   3.649  50.516  1.00  0.00     0.290 C 
BRANCH  17  18
HETATM   18  N1  UNL     1      15.848   4.848  49.787  1.00  0.00     0.080 N 
HETATM   19  H20 UNL     1      16.486   4.954  48.982  1.00  0.00     0.312 HD
HETATM   20  H21 UNL     1      15.781   5.645  50.433  1.00  0.00     0.312 HD
ENDBRANCH  17  18
ENDBRANCH  11  17
BRANCH  14  21
HETATM   21  C16 UNL     1      17.428  -0.746  52.956  1.00  0.00     0.280 C 
BRANCH  21  22
HETATM   22  N2  UNL     1      17.061  -2.114  52.670  1.00  0.00     0.080 N 
HETATM   23  C17 UNL     1      15.657  -2.269  52.398  1.00  0.00     0.309 C 
HETATM   24  C18 UNL     1      17.551  -3.029  53.684  1.00  0.00     0.309 C 
ENDBRANCH  21  22
ENDBRANCH  14  21
BRANCH   1  25
HETATM   25  C3  UNL     1      22.092  -0.129  54.039  1.00  0.00     0.010 C 
HETATM   26  C2  UNL     1      23.277  -0.497  53.487  1.00  0.00    -0.032 C 
HETATM   27  C1  UNL     1      24.609  -0.554  54.181  1.00  0.00     0.036 C 
ENDBRANCH   1  25
TORSDOF 5
ENDMDL
MODEL 7
REMARK VINA RESULT:      -6.0      2.408      3.442
REMARK  5 active torsions:
REMARK  status: ('A' for Active; 'I' for Inactive)
REMARK    1  A    between atoms: C3_3  and  C4_4 
REMARK    2  A    between atoms: C12_14  and  C13_15 
REMARK    3  A    between atoms: C13_15  and  N1_16 
REMARK    4  A    between atoms: C15_19  and  C16_20 
REMARK    5  A    between atoms: C16_20  and  N2_21 
ROOT
HETATM    1  C4  UNL     1      23.077   1.136  52.529  1.00  0.00     0.120 A 
HETATM    2  C5  UNL     1      22.188   0.531  53.460  1.00  0.00     0.060 C 
HETATM    3  C6  UNL     1      20.770   0.765  53.972  1.00  0.00     0.176 C 
HETATM    4  O1  UNL     1      19.938  -0.159  53.746  1.00  0.00    -0.390 OA
HETATM    5  C7  UNL     1      19.575  -1.366  53.969  1.00  0.00     0.172 C 
HETATM    6  C8  UNL     1      18.351  -1.647  53.040  1.00  0.00     0.011 C 
HETATM    7  C9  UNL     1      17.709  -2.932  53.372  1.00  0.00     0.012 C 
HETATM    8  C10 UNL     1      17.518  -0.460  52.988  1.00  0.00     0.012 C 
HETATM    9  C11 UNL     1      17.330   0.326  51.897  1.00  0.00     0.163 C 
HETATM   10  S1  UNL     1      16.502   1.751  51.320  1.00  0.00    -0.221 SA
HETATM   11  C12 UNL     1      17.306   2.781  50.126  1.00  0.00     0.119 C 
HETATM   12  S2  UNL     1      18.743   3.699  50.701  1.00  0.00    -0.153 SA
HETATM   13  C14 UNL     1      20.049   2.522  51.044  1.00  0.00     0.084 C 
HETATM   14  C15 UNL     1      21.263   3.121  51.752  1.00  0.00     0.064 C 
HETATM   15  C19 UNL     1      22.088   2.069  52.223  1.00  0.00     0.138 A 
HETATM   16  O2  UNL     1      23.247   2.121  51.667  1.00  0.00    -0.354 OA
ENDROOT
BRANCH  11  17
HETATM   17  C13 UNL     1      17.572   2.083  48.794  1.00  0.00     0.290 C 
BRANCH  17  18
HETATM   18  N1  UNL     1      16.444   1.266  48.465  1.00  0.00     0.080 N 
HETATM   19  H20 UNL     1      15.659   1.435  49.114  1.00  0.00     0.312 HD
HETATM   20  H21 UNL     1      16.741   0.289  48.342  1.00  0.00     0.312 HD
ENDBRANCH  17  18
ENDBRANCH  11  17
BRANCH  14  21
HETATM   21  C16 UNL     1      21.928   4.088  50.784  1.00  0.00     0.280 C 
BRANCH  21  22
HETATM   22  N2  UNL     1      22.202   5.307  51.510  1.00  0.00     0.080 N 
HETATM   23  C17 UNL     1      21.519   6.448  50.962  1.00  0.00     0.309 C 
HETATM   24  C18 UNL     1      23.626   5.524  51.684  1.00  0.00     0.309 C 
ENDBRANCH  21  22
ENDBRANCH  14  21
BRANCH   1  25
HETATM   25  C3  UNL     1      24.165   0.279  52.729  1.00  0.00     0.010 C 
HETATM   26  C2  UNL     1      25.347   0.702  52.211  1.00  0.00    -0.032 C 
HETATM   27  C1  UNL     1      26.665  -0.017  52.284  1.00  0.00     0.036 C 
ENDBRANCH   1  25
TORSDOF 5
ENDMDL
MODEL 8
REMARK VINA RESULT:      -5.8      2.389      5.725
REMARK  5 active torsions:
REMARK  status: ('A' for Active; 'I' for Inactive)
REMARK    1  A    between atoms: C3_3  and  C4_4 
REMARK    2  A    between atoms: C12_14  and  C13_15 
REMARK    3  A    between atoms: C13_15  and  N1_16 
REMARK    4  A    between atoms: C15_19  and  C16_20 
REMARK    5  A    between atoms: C16_20  and  N2_21 
ROOT
HETATM    1  C4  UNL     1      24.119   2.438  52.328  1.00  0.00     0.120 A 
HETATM    2  C5  UNL     1      24.935   2.644  51.183  1.00  0.00     0.060 C 
HETATM    3  C6  UNL     1      24.749   3.111  49.742  1.00  0.00     0.176 C 
HETATM    4  O1  UNL     1      25.357   4.170  49.417  1.00  0.00    -0.390 OA
HETATM    5  C7  UNL     1      26.478   4.756  49.221  1.00  0.00     0.172 C 
HETATM    6  C8  UNL     1      26.155   6.255  48.919  1.00  0.00     0.011 C 
HETATM    7  C9  UNL     1      27.353   6.979  48.457  1.00  0.00     0.012 C 
HETATM    8  C10 UNL     1      24.958   6.321  48.100  1.00  0.00     0.012 C 
HETATM    9  C11 UNL     1      23.760   6.824  48.494  1.00  0.00     0.163 C 
HETATM   10  S1  UNL     1      22.125   7.132  47.963  1.00  0.00    -0.221 SA
HETATM   11  C12 UNL     1      20.804   6.973  49.131  1.00  0.00     0.119 C 
HETATM   12  S2  UNL     1      20.437   5.306  49.700  1.00  0.00    -0.153 SA
HETATM   13  C14 UNL     1      21.816   4.746  50.695  1.00  0.00     0.084 C 
HETATM   14  C15 UNL     1      21.760   3.266  51.070  1.00  0.00     0.064 C 
HETATM   15  C19 UNL     1      23.016   2.875  51.596  1.00  0.00     0.138 A 
HETATM   16  O2  UNL     1      22.892   2.482  52.816  1.00  0.00    -0.354 OA
ENDROOT
BRANCH  11  17
HETATM   17  C13 UNL     1      20.887   7.965  50.289  1.00  0.00     0.290 C 
BRANCH  17  18
HETATM   18  N1  UNL     1      19.897   8.982  50.102  1.00  0.00     0.080 N 
HETATM   19  H20 UNL     1      18.960   8.644  50.376  1.00  0.00     0.312 HD
HETATM   20  H21 UNL     1      19.985   9.390  49.162  1.00  0.00     0.312 HD
ENDBRANCH  17  18
ENDBRANCH  11  17
BRANCH  14  21
HETATM   21  C16 UNL     1      20.573   3.075  52.002  1.00  0.00     0.280 C 
BRANCH  21  22
HETATM   22  N2  UNL     1      19.808   1.954  51.505  1.00  0.00     0.080 N 
HETATM   23  C17 UNL     1      19.837   0.822  52.391  1.00  0.00     0.309 C 
HETATM   24  C18 UNL     1      20.163   1.620  50.139  1.00  0.00     0.309 C 
ENDBRANCH  21  22
ENDBRANCH  14  21
BRANCH   1  25
HETATM   25  C3  UNL     1      25.121   1.975  53.188  1.00  0.00     0.010 C 
HETATM   26  C2  UNL     1      25.121   0.638  53.422  1.00  0.00    -0.032 C 
HETATM   27  C1  UNL     1      26.083  -0.118  54.296  1.00  0.00     0.036 C 
ENDBRANCH   1  25
TORSDOF 5
ENDMDL
MODEL 9
REMARK VINA RESULT:      -5.5     25.264     27.092
REMARK  5 active torsions:
REMARK  status: ('A' for Active; 'I' for Inactive)
REMARK    1  A    between atoms: C3_3  and  C4_4 
REMARK    2  A    between atoms: C12_14  and  C13_15 
REMARK    3  A    between atoms: C13_15  and  N1_16 
REMARK    4  A    between atoms: C15_19  and  C16_20 
REMARK    5  A    between atoms: C16_20  and  N2_21 
ROOT
HETATM    1  C4  UNL     1      44.830   4.592  66.798  1.00  0.00     0.120 A 
HETATM    2  C5  UNL     1      44.767   3.211  67.129  1.00  0.00     0.060 C 
HETATM    3  C6  UNL     1      44.513   2.365  68.374  1.00  0.00     0.176 C 
HETATM    4  O1  UNL     1      43.496   1.617  68.340  1.00  0.00    -0.390 OA
HETATM    5  C7  UNL     1      42.915   0.605  67.813  1.00  0.00     0.172 C 
HETATM    6  C8  UNL     1      41.482   0.535  68.433  1.00  0.00     0.011 C 
HETATM    7  C9  UNL     1      40.801  -0.720  68.069  1.00  0.00     0.012 C 
HETATM    8  C10 UNL     1      41.561   0.887  69.839  1.00  0.00     0.012 C 
HETATM    9  C11 UNL     1      41.038   2.005  70.404  1.00  0.00     0.163 C 
HETATM   10  S1  UNL     1      40.849   2.855  71.917  1.00  0.00    -0.221 SA
HETATM   11  C12 UNL     1      40.875   4.626  71.910  1.00  0.00     0.119 C 
HETATM   12  S2  UNL     1      42.454   5.400  71.530  1.00  0.00    -0.153 SA
HETATM   13  C14 UNL     1      42.834   5.066  69.812  1.00  0.00     0.084 C 
HETATM   14  C15 UNL     1      44.247   5.466  69.392  1.00  0.00     0.064 C 
HETATM   15  C19 UNL     1      44.529   4.902  68.123  1.00  0.00     0.138 A 
HETATM   16  O2  UNL     1      44.748   5.828  67.256  1.00  0.00    -0.354 OA
ENDROOT
BRANCH  11  17
HETATM   17  C13 UNL     1      39.728   5.252  71.120  1.00  0.00     0.290 C 
BRANCH  17  18
HETATM   18  N1  UNL     1      39.149   6.306  71.899  1.00  0.00     0.080 N 
HETATM   19  H20 UNL     1      38.957   7.136  71.317  1.00  0.00     0.312 HD
HETATM   20  H21 UNL     1      39.703   6.457  72.752  1.00  0.00     0.312 HD
ENDBRANCH  17  18
ENDBRANCH  11  17
BRANCH  14  21
HETATM   21  C16 UNL     1      44.334   6.983  69.466  1.00  0.00     0.280 C 
BRANCH  21  22
HETATM   22  N2  UNL     1      45.337   7.311  70.454  1.00  0.00     0.080 N 
HETATM   23  C17 UNL     1      44.952   8.411  71.296  1.00  0.00     0.309 C 
HETATM   24  C18 UNL     1      46.649   7.481  69.857  1.00  0.00     0.309 C 
ENDBRANCH  21  22
ENDBRANCH  14  21
BRANCH   1  25
HETATM   25  C3  UNL     1      45.142   4.443  65.441  1.00  0.00     0.010 C 
HETATM   26  C2  UNL     1      45.368   5.597  64.762  1.00  0.00    -0.032 C 
HETATM   27  C1  UNL     1      45.723   5.724  63.307  1.00  0.00     0.036 C 
ENDBRANCH   1  25
TORSDOF 5
ENDMDL
