MODEL 1
REMARK VINA RESULT:      -7.2      0.000      0.000
REMARK  1 active torsions:
REMARK  status: ('A' for Active; 'I' for Inactive)
REMARK    1  A    between atoms: O1_2  and  C2_3 
ROOT
HETATM    1  C2  UNL     1      23.977   5.306  51.066  1.00  0.00     0.052 C 
HETATM    2  C3  UNL     1      24.964   4.641  50.364  1.00  0.00     0.047 C 
HETATM    3  C4  UNL     1      24.977   3.194  49.918  1.00  0.00     0.007 C 
HETATM    4  C5  UNL     1      26.260   3.097  49.570  1.00  0.00     0.093 C 
HETATM    5  N1  UNL     1      26.932   2.950  50.738  1.00  0.00    -0.268 NA
HETATM    6  C6  UNL     1      26.573   2.251  51.925  1.00  0.00     0.267 C 
HETATM    7  N2  UNL     1      25.214   2.489  52.434  1.00  0.00    -0.390 N 
HETATM    8  C7  UNL     1      24.004   2.390  51.613  1.00  0.00     0.071 A 
HETATM    9  C8  UNL     1      22.869   2.049  52.393  1.00  0.00     0.046 A 
HETATM   10  C9  UNL     1      21.637   1.826  51.682  1.00  0.00     0.025 A 
HETATM   11  C10 UNL     1      22.547   2.116  50.762  1.00  0.00     0.071 A 
HETATM   12  C11 UNL     1      22.671   2.255  49.439  1.00  0.00     0.006 A 
HETATM   13 BR1  UNL     1      22.569   2.383  47.587  1.00  0.00    -0.054 Br
HETATM   14  C12 UNL     1      23.760   2.465  50.201  1.00  0.00    -0.003 A 
HETATM   15  C13 UNL     1      20.870   1.578  52.856  1.00  0.00     0.095 C 
HETATM   16  N3  UNL     1      20.259   2.795  52.811  1.00  0.00    -0.304 NA
HETATM   17  C14 UNL     1      20.533   3.716  51.792  1.00  0.00     0.153 C 
HETATM   18  C15 UNL     1      21.423   4.865  51.975  1.00  0.00     0.023 C 
HETATM   19  C16 UNL     1      22.630   5.498  51.749  1.00  0.00     0.059 C 
HETATM   20  H7  UNL     1      24.983   2.729  53.464  1.00  0.00     0.156 HD
ENDROOT
BRANCH   1  21
HETATM   21  O1  UNL     1      24.027   6.659  51.482  1.00  0.00    -0.360 OA
HETATM   22  C1  UNL     1      23.550   7.702  50.684  1.00  0.00     0.209 C 
ENDBRANCH   1  21
TORSDOF 1
ENDMDL
MODEL 2
REMARK VINA RESULT:      -6.9      2.513      3.570
REMARK  1 active torsions:
REMARK  status: ('A' for Active; 'I' for Inactive)
REMARK    1  A    between atoms: O1_2  and  C2_3 
ROOT
HETATM    1  C2  UNL     1      22.959   2.499  48.864  1.00  0.00     0.052 C 
HETATM    2  C3  UNL     1      24.026   3.293  49.236  1.00  0.00     0.047 C 
HETATM    3  C4  UNL     1      24.606   3.485  50.622  1.00  0.00     0.007 C 
HETATM    4  C5  UNL     1      25.383   4.540  50.375  1.00  0.00     0.093 C 
HETATM    5  N1  UNL     1      24.542   5.603  50.365  1.00  0.00    -0.268 NA
HETATM    6  C6  UNL     1      23.389   5.872  51.155  1.00  0.00     0.267 C 
HETATM    7  N2  UNL     1      22.421   4.773  51.288  1.00  0.00    -0.390 N 
HETATM    8  C7  UNL     1      22.781   3.409  51.682  1.00  0.00     0.071 A 
HETATM    9  C8  UNL     1      21.700   2.747  52.321  1.00  0.00     0.046 A 
HETATM   10  C9  UNL     1      21.964   1.431  52.843  1.00  0.00     0.025 A 
HETATM   11  C10 UNL     1      23.103   1.851  52.310  1.00  0.00     0.071 A 
HETATM   12  C11 UNL     1      24.363   1.453  52.118  1.00  0.00     0.006 A 
HETATM   13 BR1  UNL     1      26.041   0.661  51.987  1.00  0.00    -0.054 Br
HETATM   14  C12 UNL     1      24.004   2.661  51.647  1.00  0.00    -0.003 A 
HETATM   15  C13 UNL     1      20.633   1.221  53.304  1.00  0.00     0.095 C 
HETATM   16  N3  UNL     1      20.330   0.367  52.287  1.00  0.00    -0.304 NA
HETATM   17  C14 UNL     1      21.271   0.029  51.307  1.00  0.00     0.153 C 
HETATM   18  C15 UNL     1      21.281   0.627  49.970  1.00  0.00     0.023 C 
HETATM   19  C16 UNL     1      21.837   1.485  49.041  1.00  0.00     0.059 C 
HETATM   20  H7  UNL     1      21.354   4.880  51.136  1.00  0.00     0.156 HD
ENDROOT
BRANCH   1  21
HETATM   21  O1  UNL     1      22.437   2.376  47.553  1.00  0.00    -0.360 OA
HETATM   22  C1  UNL     1      21.913   3.467  46.854  1.00  0.00     0.209 C 
ENDBRANCH   1  21
TORSDOF 1
ENDMDL
MODEL 3
REMARK VINA RESULT:      -6.8      5.670      8.694
REMARK  1 active torsions:
REMARK  status: ('A' for Active; 'I' for Inactive)
REMARK    1  A    between atoms: O1_2  and  C2_3 
ROOT
HETATM    1  C2  UNL     1      27.718   5.713  48.386  1.00  0.00     0.052 C 
HETATM    2  C3  UNL     1      26.629   6.556  48.281  1.00  0.00     0.047 C 
HETATM    3  C4  UNL     1      26.616   8.019  47.891  1.00  0.00     0.007 C 
HETATM    4  C5  UNL     1      25.366   8.316  48.245  1.00  0.00     0.093 C 
HETATM    5  N1  UNL     1      25.409   8.471  49.591  1.00  0.00    -0.268 NA
HETATM    6  C6  UNL     1      26.422   9.028  50.422  1.00  0.00     0.267 C 
HETATM    7  N2  UNL     1      27.796   8.570  50.167  1.00  0.00    -0.390 N 
HETATM    8  C7  UNL     1      28.422   8.559  48.843  1.00  0.00     0.071 A 
HETATM    9  C8  UNL     1      29.834   8.685  48.932  1.00  0.00     0.046 A 
HETATM   10  C9  UNL     1      30.554   8.786  47.689  1.00  0.00     0.025 A 
HETATM   11  C10 UNL     1      29.272   8.690  47.365  1.00  0.00     0.071 A 
HETATM   12  C11 UNL     1      28.476   8.663  46.292  1.00  0.00     0.006 A 
HETATM   13 BR1  UNL     1      27.607   8.654  44.648  1.00  0.00    -0.054 Br
HETATM   14  C12 UNL     1      27.905   8.552  47.506  1.00  0.00    -0.003 A 
HETATM   15  C13 UNL     1      31.837   8.842  48.304  1.00  0.00     0.095 C 
HETATM   16  N3  UNL     1      32.145   7.559  47.965  1.00  0.00    -0.304 NA
HETATM   17  C14 UNL     1      31.255   6.758  47.238  1.00  0.00     0.153 C 
HETATM   18  C15 UNL     1      30.414   5.733  47.860  1.00  0.00     0.023 C 
HETATM   19  C16 UNL     1      29.177   5.290  48.288  1.00  0.00     0.059 C 
HETATM   20  H7  UNL     1      28.476   8.228  50.938  1.00  0.00     0.156 HD
ENDROOT
BRANCH   1  21
HETATM   21  O1  UNL     1      27.677   4.355  48.783  1.00  0.00    -0.360 OA
HETATM   22  C1  UNL     1      26.635   3.835  49.556  1.00  0.00     0.209 C 
ENDBRANCH   1  21
TORSDOF 1
ENDMDL
MODEL 4
REMARK VINA RESULT:      -6.5      7.698     10.714
REMARK  1 active torsions:
REMARK  status: ('A' for Active; 'I' for Inactive)
REMARK    1  A    between atoms: O1_2  and  C2_3 
ROOT
HETATM    1  C2  UNL     1      30.011   6.140  47.806  1.00  0.00     0.052 C 
HETATM    2  C3  UNL     1      29.527   7.401  47.514  1.00  0.00     0.047 C 
HETATM    3  C4  UNL     1      30.314   8.634  47.125  1.00  0.00     0.007 C 
HETATM    4  C5  UNL     1      29.349   9.545  47.261  1.00  0.00     0.093 C 
HETATM    5  N1  UNL     1      29.267   9.775  48.594  1.00  0.00    -0.268 NA
HETATM    6  C6  UNL     1      30.289   9.824  49.585  1.00  0.00     0.267 C 
HETATM    7  N2  UNL     1      31.262   8.721  49.569  1.00  0.00    -0.390 N 
HETATM    8  C7  UNL     1      31.983   8.284  48.372  1.00  0.00     0.071 A 
HETATM    9  C8  UNL     1      33.233   7.696  48.699  1.00  0.00     0.046 A 
HETATM   10  C9  UNL     1      34.078   7.315  47.598  1.00  0.00     0.025 A 
HETATM   11  C10 UNL     1      32.988   7.843  47.060  1.00  0.00     0.071 A 
HETATM   12  C11 UNL     1      32.454   8.122  45.867  1.00  0.00     0.006 A 
HETATM   13 BR1  UNL     1      31.952   8.404  44.099  1.00  0.00    -0.054 Br
HETATM   14  C12 UNL     1      31.735   8.418  46.965  1.00  0.00    -0.003 A 
HETATM   15  C13 UNL     1      35.107   6.778  48.423  1.00  0.00     0.095 C 
HETATM   16  N3  UNL     1      34.769   5.489  48.143  1.00  0.00    -0.304 NA
HETATM   17  C14 UNL     1      33.714   5.177  47.276  1.00  0.00     0.153 C 
HETATM   18  C15 UNL     1      32.390   4.767  47.747  1.00  0.00     0.023 C 
HETATM   19  C16 UNL     1      31.051   5.039  47.959  1.00  0.00     0.059 C 
HETATM   20  H7  UNL     1      31.554   8.155  50.445  1.00  0.00     0.156 HD
ENDROOT
BRANCH   1  21
HETATM   21  O1  UNL     1      29.231   5.023  48.192  1.00  0.00    -0.360 OA
HETATM   22  C1  UNL     1      27.888   5.144  48.561  1.00  0.00     0.209 C 
ENDBRANCH   1  21
TORSDOF 1
ENDMDL
MODEL 5
REMARK VINA RESULT:      -6.5      2.452      4.134
REMARK  1 active torsions:
REMARK  status: ('A' for Active; 'I' for Inactive)
REMARK    1  A    between atoms: O1_2  and  C2_3 
ROOT
HETATM    1  C2  UNL     1      19.920   3.669  51.457  1.00  0.00     0.052 C 
HETATM    2  C3  UNL     1      20.257   4.569  50.464  1.00  0.00     0.047 C 
HETATM    3  C4  UNL     1      21.574   4.695  49.727  1.00  0.00     0.007 C 
HETATM    4  C5  UNL     1      21.370   5.874  49.141  1.00  0.00     0.093 C 
HETATM    5  N1  UNL     1      21.598   6.794  50.110  1.00  0.00    -0.268 NA
HETATM    6  C6  UNL     1      22.552   6.800  51.167  1.00  0.00     0.267 C 
HETATM    7  N2  UNL     1      22.661   5.561  51.952  1.00  0.00    -0.390 N 
HETATM    8  C7  UNL     1      22.832   4.231  51.360  1.00  0.00     0.071 A 
HETATM    9  C8  UNL     1      23.509   3.350  52.243  1.00  0.00     0.046 A 
HETATM   10  C9  UNL     1      23.824   2.040  51.734  1.00  0.00     0.025 A 
HETATM   11  C10 UNL     1      23.213   2.681  50.748  1.00  0.00     0.071 A 
HETATM   12  C11 UNL     1      22.818   2.499  49.485  1.00  0.00     0.006 A 
HETATM   13 BR1  UNL     1      22.384   1.986  47.751  1.00  0.00    -0.054 Br
HETATM   14  C12 UNL     1      22.553   3.684  50.065  1.00  0.00    -0.003 A 
HETATM   15  C13 UNL     1      24.413   1.584  52.948  1.00  0.00     0.095 C 
HETATM   16  N3  UNL     1      23.341   0.809  53.273  1.00  0.00    -0.304 NA
HETATM   17  C14 UNL     1      22.218   0.724  52.440  1.00  0.00     0.153 C 
HETATM   18  C15 UNL     1      20.977   1.458  52.698  1.00  0.00     0.023 C 
HETATM   19  C16 UNL     1      20.103   2.486  52.396  1.00  0.00     0.059 C 
HETATM   20  H7  UNL     1      22.656   5.523  53.034  1.00  0.00     0.156 HD
ENDROOT
BRANCH   1  21
HETATM   21  O1  UNL     1      18.678   3.612  52.134  1.00  0.00    -0.360 OA
HETATM   22  C1  UNL     1      17.457   3.692  51.459  1.00  0.00     0.209 C 
ENDBRANCH   1  21
TORSDOF 1
ENDMDL
MODEL 6
REMARK VINA RESULT:      -6.5      2.617      5.502
REMARK  1 active torsions:
REMARK  status: ('A' for Active; 'I' for Inactive)
REMARK    1  A    between atoms: O1_2  and  C2_3 
ROOT
HETATM    1  C2  UNL     1      25.418   3.548  49.852  1.00  0.00     0.052 C 
HETATM    2  C3  UNL     1      24.069   3.398  50.112  1.00  0.00     0.047 C 
HETATM    3  C4  UNL     1      22.977   4.441  50.001  1.00  0.00     0.007 C 
HETATM    4  C5  UNL     1      22.004   3.789  50.638  1.00  0.00     0.093 C 
HETATM    5  N1  UNL     1      22.285   3.938  51.955  1.00  0.00    -0.268 NA
HETATM    6  C6  UNL     1      22.833   5.046  52.661  1.00  0.00     0.267 C 
HETATM    7  N2  UNL     1      24.027   5.668  52.067  1.00  0.00    -0.390 N 
HETATM    8  C7  UNL     1      24.120   6.088  50.667  1.00  0.00     0.071 A 
HETATM    9  C8  UNL     1      25.038   7.158  50.502  1.00  0.00     0.046 A 
HETATM   10  C9  UNL     1      25.142   7.724  49.182  1.00  0.00     0.025 A 
HETATM   11  C10 UNL     1      24.231   6.764  49.101  1.00  0.00     0.071 A 
HETATM   12  C11 UNL     1      23.415   6.186  48.215  1.00  0.00     0.006 A 
HETATM   13 BR1  UNL     1      22.384   5.569  46.796  1.00  0.00    -0.054 Br
HETATM   14  C12 UNL     1      23.413   5.716  49.476  1.00  0.00    -0.003 A 
HETATM   15  C13 UNL     1      26.157   8.657  49.538  1.00  0.00     0.095 C 
HETATM   16  N3  UNL     1      27.141   7.945  48.921  1.00  0.00    -0.304 NA
HETATM   17  C14 UNL     1      26.869   6.748  48.248  1.00  0.00     0.153 C 
HETATM   18  C15 UNL     1      27.137   5.429  48.827  1.00  0.00     0.023 C 
HETATM   19  C16 UNL     1      26.688   4.254  49.399  1.00  0.00     0.059 C 
HETATM   20  H7  UNL     1      24.931   5.898  52.618  1.00  0.00     0.156 HD
ENDROOT
BRANCH   1  21
HETATM   21  O1  UNL     1      26.405   2.543  49.999  1.00  0.00    -0.360 OA
HETATM   22  C1  UNL     1      26.700   1.964  51.236  1.00  0.00     0.209 C 
ENDBRANCH   1  21
TORSDOF 1
ENDMDL
MODEL 7
REMARK VINA RESULT:      -6.2      9.691     11.558
REMARK  1 active torsions:
REMARK  status: ('A' for Active; 'I' for Inactive)
REMARK    1  A    between atoms: O1_2  and  C2_3 
ROOT
HETATM    1  C2  UNL     1      32.777   5.146  44.814  1.00  0.00     0.052 C 
HETATM    2  C3  UNL     1      32.729   4.213  45.833  1.00  0.00     0.047 C 
HETATM    3  C4  UNL     1      32.495   4.457  47.309  1.00  0.00     0.007 C 
HETATM    4  C5  UNL     1      32.843   3.256  47.773  1.00  0.00     0.093 C 
HETATM    5  N1  UNL     1      34.198   3.262  47.785  1.00  0.00    -0.268 NA
HETATM    6  C6  UNL     1      35.112   4.313  48.080  1.00  0.00     0.267 C 
HETATM    7  N2  UNL     1      34.851   5.605  47.427  1.00  0.00    -0.390 N 
HETATM    8  C7  UNL     1      33.551   6.281  47.444  1.00  0.00     0.071 A 
HETATM    9  C8  UNL     1      33.693   7.689  47.323  1.00  0.00     0.046 A 
HETATM   10  C9  UNL     1      32.489   8.472  47.426  1.00  0.00     0.025 A 
HETATM   11  C10 UNL     1      32.121   7.208  47.577  1.00  0.00     0.071 A 
HETATM   12  C11 UNL     1      31.028   6.468  47.789  1.00  0.00     0.006 A 
HETATM   13 BR1  UNL     1      29.368   5.685  48.089  1.00  0.00    -0.054 Br
HETATM   14  C12 UNL     1      32.206   5.831  47.655  1.00  0.00    -0.003 A 
HETATM   15  C13 UNL     1      33.144   9.717  47.206  1.00  0.00     0.095 C 
HETATM   16  N3  UNL     1      32.681   9.828  45.930  1.00  0.00    -0.304 NA
HETATM   17  C14 UNL     1      31.848   8.854  45.364  1.00  0.00     0.153 C 
HETATM   18  C15 UNL     1      32.334   7.830  44.437  1.00  0.00     0.023 C 
HETATM   19  C16 UNL     1      32.677   6.519  44.166  1.00  0.00     0.059 C 
HETATM   20  H7  UNL     1      35.600   6.184  46.902  1.00  0.00     0.156 HD
ENDROOT
BRANCH   1  21
HETATM   21  O1  UNL     1      33.027   4.866  43.449  1.00  0.00    -0.360 OA
HETATM   22  C1  UNL     1      34.293   5.020  42.876  1.00  0.00     0.209 C 
ENDBRANCH   1  21
TORSDOF 1
ENDMDL
MODEL 8
REMARK VINA RESULT:      -6.2      2.747      4.253
REMARK  1 active torsions:
REMARK  status: ('A' for Active; 'I' for Inactive)
REMARK    1  A    between atoms: O1_2  and  C2_3 
ROOT
HETATM    1  C2  UNL     1      25.887   3.689  49.925  1.00  0.00     0.052 C 
HETATM    2  C3  UNL     1      24.831   4.541  49.664  1.00  0.00     0.047 C 
HETATM    3  C4  UNL     1      23.483   4.592  50.350  1.00  0.00     0.007 C 
HETATM    4  C5  UNL     1      22.843   5.384  49.490  1.00  0.00     0.093 C 
HETATM    5  N1  UNL     1      22.506   4.580  48.453  1.00  0.00    -0.268 NA
HETATM    6  C6  UNL     1      22.094   3.217  48.441  1.00  0.00     0.267 C 
HETATM    7  N2  UNL     1      22.904   2.286  49.242  1.00  0.00    -0.390 N 
HETATM    8  C7  UNL     1      23.261   2.511  50.645  1.00  0.00     0.071 A 
HETATM    9  C8  UNL     1      23.469   1.288  51.334  1.00  0.00     0.046 A 
HETATM   10  C9  UNL     1      23.729   1.378  52.748  1.00  0.00     0.025 A 
HETATM   11  C10 UNL     1      23.559   2.622  52.325  1.00  0.00     0.071 A 
HETATM   12  C11 UNL     1      23.551   3.878  52.782  1.00  0.00     0.006 A 
HETATM   13 BR1  UNL     1      23.592   5.509  53.673  1.00  0.00    -0.054 Br
HETATM   14  C12 UNL     1      23.340   3.683  51.467  1.00  0.00    -0.003 A 
HETATM   15  C13 UNL     1      23.895  -0.026  52.922  1.00  0.00     0.095 C 
HETATM   16  N3  UNL     1      25.249   0.066  53.030  1.00  0.00    -0.304 NA
HETATM   17  C14 UNL     1      25.910   1.299  52.959  1.00  0.00     0.153 C 
HETATM   18  C15 UNL     1      26.598   1.766  51.754  1.00  0.00     0.023 C 
HETATM   19  C16 UNL     1      26.660   2.597  50.651  1.00  0.00     0.059 C 
HETATM   20  H7  UNL     1      23.281   1.340  48.877  1.00  0.00     0.156 HD
ENDROOT
BRANCH   1  21
HETATM   21  O1  UNL     1      27.122   3.666  49.232  1.00  0.00    -0.360 OA
HETATM   22  C1  UNL     1      27.657   4.805  48.625  1.00  0.00     0.209 C 
ENDBRANCH   1  21
TORSDOF 1
ENDMDL
MODEL 9
REMARK VINA RESULT:      -6.1      5.971      8.894
REMARK  1 active torsions:
REMARK  status: ('A' for Active; 'I' for Inactive)
REMARK    1  A    between atoms: O1_2  and  C2_3 
ROOT
HETATM    1  C2  UNL     1      29.289   6.509  48.389  1.00  0.00     0.052 C 
HETATM    2  C3  UNL     1      27.949   6.224  48.209  1.00  0.00     0.047 C 
HETATM    3  C4  UNL     1      26.833   7.181  47.848  1.00  0.00     0.007 C 
HETATM    4  C5  UNL     1      25.792   6.389  48.103  1.00  0.00     0.093 C 
HETATM    5  N1  UNL     1      25.648   6.419  49.450  1.00  0.00    -0.268 NA
HETATM    6  C6  UNL     1      25.837   7.487  50.373  1.00  0.00     0.267 C 
HETATM    7  N2  UNL     1      27.078   8.262  50.225  1.00  0.00    -0.390 N 
HETATM    8  C7  UNL     1      27.538   8.835  48.957  1.00  0.00     0.071 A 
HETATM    9  C8  UNL     1      28.341   9.987  49.165  1.00  0.00     0.046 A 
HETATM   10  C9  UNL     1      28.772  10.696  47.989  1.00  0.00     0.025 A 
HETATM   11  C10 UNL     1      28.038   9.680  47.558  1.00  0.00     0.071 A 
HETATM   12  C11 UNL     1      27.591   9.136  46.422  1.00  0.00     0.006 A 
HETATM   13 BR1  UNL     1      27.104   8.592  44.712  1.00  0.00    -0.054 Br
HETATM   14  C12 UNL     1      27.264   8.537  47.582  1.00  0.00    -0.003 A 
HETATM   15  C13 UNL     1      29.526  11.665  48.710  1.00  0.00     0.095 C 
HETATM   16  N3  UNL     1      30.721  11.105  48.373  1.00  0.00    -0.304 NA
HETATM   17  C14 UNL     1      30.795   9.967  47.559  1.00  0.00     0.153 C 
HETATM   18  C15 UNL     1      31.020   8.621  48.089  1.00  0.00     0.023 C 
HETATM   19  C16 UNL     1      30.551   7.359  48.404  1.00  0.00     0.059 C 
HETATM   20  H7  UNL     1      27.745   8.504  51.042  1.00  0.00     0.156 HD
ENDROOT
BRANCH   1  21
HETATM   21  O1  UNL     1      30.290   5.576  48.754  1.00  0.00    -0.360 OA
HETATM   22  C1  UNL     1      31.213   5.075  47.833  1.00  0.00     0.209 C 
ENDBRANCH   1  21
TORSDOF 1
ENDMDL
