MODEL 1
REMARK VINA RESULT:      -8.5      0.000      0.000
REMARK  5 active torsions:
REMARK  status: ('A' for Active; 'I' for Inactive)
REMARK    1  A    between atoms: N3_11  and  C9_12 
REMARK    2  A    between atoms: C16_21  and  C17_22 
REMARK    3  A    between atoms: C17_22  and  C18_24 
REMARK    4  A    between atoms: N5_28  and  C21_29 
REMARK    5  A    between atoms: C21_29  and  C22_30 
ROOT
HETATM    1  C1  UNL     1      24.052   3.110  48.883  1.00  0.00     0.044 C 
HETATM    2  C2  UNL     1      24.306   4.320  49.752  1.00  0.00    -0.069 C 
HETATM    3  C3  UNL     1      24.289   5.513  50.309  1.00  0.00     0.022 C 
HETATM    4  C4  UNL     1      24.428   6.746  51.052  1.00  0.00     0.116 C 
HETATM    5  N1  UNL     1      23.392   7.529  50.760  1.00  0.00    -0.272 NA
HETATM    6  C5  UNL     1      22.464   6.897  49.828  1.00  0.00     0.136 C 
HETATM    7  C6  UNL     1      21.999   5.864  50.625  1.00  0.00     0.057 C 
HETATM    8  C7  UNL     1      21.032   5.111  49.812  1.00  0.00     0.098 C 
HETATM    9  N2  UNL     1      20.255   4.497  49.137  1.00  0.00    -0.192 NA
HETATM   10  C8  UNL     1      21.956   5.158  51.952  1.00  0.00     0.174 C 
HETATM   11  N3  UNL     1      22.522   3.825  51.849  1.00  0.00    -0.375 N 
HETATM   12  C15 UNL     1      23.897   3.315  51.971  1.00  0.00     0.140 C 
HETATM   13  C16 UNL     1      24.870   3.917  51.037  1.00  0.00     0.106 C 
ENDROOT
BRANCH  11  14
HETATM   14  C9  UNL     1      21.560   2.768  51.627  1.00  0.00     0.032 A 
HETATM   15  C10 UNL     1      21.886   1.506  51.183  1.00  0.00     0.032 A 
HETATM   16  C11 UNL     1      21.016   0.466  50.963  1.00  0.00     0.046 A 
HETATM   17  C12 UNL     1      19.683   0.669  51.202  1.00  0.00     0.138 A 
HETATM   18  F1  UNL     1      18.804  -0.338  50.996  1.00  0.00    -0.204 F 
HETATM   19  C13 UNL     1      19.268   1.904  51.650  1.00  0.00     0.074 A 
HETATM   20 CL1  UNL     1      17.556   2.126  51.943  1.00  0.00    -0.081 Cl
HETATM   21  C14 UNL     1      20.207   2.883  51.839  1.00  0.00     0.056 A 
ENDBRANCH  11  14
BRANCH  13  22
HETATM   22  C17 UNL     1      26.086   3.047  50.809  1.00  0.00     0.159 C 
HETATM   23  O1  UNL     1      26.931   3.532  50.016  1.00  0.00    -0.292 OA
BRANCH  22  24
HETATM   24  C18 UNL     1      26.201   1.766  51.484  1.00  0.00     0.061 C 
HETATM   25  C19 UNL     1      26.962   1.583  52.523  1.00  0.00    -0.016 C 
HETATM   26  C20 UNL     1      27.813   2.552  53.202  1.00  0.00     0.147 C 
HETATM   27  C23 UNL     1      27.139   0.305  53.275  1.00  0.00     0.184 C 
HETATM   28  N4  UNL     1      28.598   1.948  54.030  1.00  0.00    -0.189 NA
HETATM   29  N5  UNL     1      28.368   0.572  53.998  1.00  0.00    -0.299 N 
BRANCH  29  30
HETATM   30  C21 UNL     1      29.087  -0.588  54.521  1.00  0.00     0.176 C 
BRANCH  30  31
HETATM   31  C22 UNL     1      29.740  -1.338  53.369  1.00  0.00     0.243 C 
HETATM   32  F2  UNL     1      29.375  -2.682  53.415  1.00  0.00    -0.254 F 
ENDBRANCH  30  31
ENDBRANCH  29  30
ENDBRANCH  22  24
ENDBRANCH  13  22
TORSDOF 5
ENDMDL
MODEL 2
REMARK VINA RESULT:      -8.4      3.426      5.143
REMARK  5 active torsions:
REMARK  status: ('A' for Active; 'I' for Inactive)
REMARK    1  A    between atoms: N3_11  and  C9_12 
REMARK    2  A    between atoms: C16_21  and  C17_22 
REMARK    3  A    between atoms: C17_22  and  C18_24 
REMARK    4  A    between atoms: N5_28  and  C21_29 
REMARK    5  A    between atoms: C21_29  and  C22_30 
ROOT
HETATM    1  C1  UNL     1      22.006   4.234  52.337  1.00  0.00     0.044 C 
HETATM    2  C2  UNL     1      21.830   3.121  51.330  1.00  0.00    -0.069 C 
HETATM    3  C3  UNL     1      21.431   2.355  50.337  1.00  0.00     0.022 C 
HETATM    4  C4  UNL     1      21.145   1.373  49.315  1.00  0.00     0.116 C 
HETATM    5  N1  UNL     1      20.376   1.944  48.389  1.00  0.00    -0.272 NA
HETATM    6  C5  UNL     1      20.100   3.346  48.686  1.00  0.00     0.136 C 
HETATM    7  C6  UNL     1      21.376   3.868  48.555  1.00  0.00     0.057 C 
HETATM    8  C7  UNL     1      21.267   5.308  48.832  1.00  0.00     0.098 C 
HETATM    9  N2  UNL     1      21.170   6.479  49.072  1.00  0.00    -0.192 NA
HETATM   10  C8  UNL     1      22.828   3.694  48.210  1.00  0.00     0.174 C 
HETATM   11  N3  UNL     1      23.668   3.908  49.375  1.00  0.00    -0.375 N 
HETATM   12  C15 UNL     1      24.133   3.011  50.445  1.00  0.00     0.140 C 
HETATM   13  C16 UNL     1      23.060   2.343  51.209  1.00  0.00     0.106 C 
ENDROOT
BRANCH  11  14
HETATM   14  C9  UNL     1      24.201   5.246  49.506  1.00  0.00     0.032 A 
HETATM   15  C10 UNL     1      24.268   5.938  50.695  1.00  0.00     0.032 A 
HETATM   16  C11 UNL     1      24.770   7.203  50.877  1.00  0.00     0.046 A 
HETATM   17  C12 UNL     1      25.261   7.873  49.789  1.00  0.00     0.138 A 
HETATM   18  F1  UNL     1      25.763   9.120  49.939  1.00  0.00    -0.204 F 
HETATM   19  C13 UNL     1      25.234   7.255  48.558  1.00  0.00     0.074 A 
HETATM   20 CL1  UNL     1      25.872   8.141  47.190  1.00  0.00    -0.081 Cl
HETATM   21  C14 UNL     1      24.714   5.990  48.471  1.00  0.00     0.056 A 
ENDBRANCH  11  14
BRANCH  13  22
HETATM   22  C17 UNL     1      23.508   1.881  52.577  1.00  0.00     0.159 C 
HETATM   23  O1  UNL     1      22.663   1.186  53.194  1.00  0.00    -0.292 OA
BRANCH  22  24
HETATM   24  C18 UNL     1      24.822   2.249  53.075  1.00  0.00     0.061 C 
HETATM   25  C19 UNL     1      25.855   1.464  52.986  1.00  0.00    -0.016 C 
HETATM   26  C20 UNL     1      25.927   0.128  52.406  1.00  0.00     0.147 C 
HETATM   27  C23 UNL     1      27.236   1.761  53.470  1.00  0.00     0.184 C 
HETATM   28  N4  UNL     1      27.048  -0.430  52.721  1.00  0.00    -0.189 NA
HETATM   29  N5  UNL     1      27.812   0.430  53.510  1.00  0.00    -0.299 N 
BRANCH  29  30
HETATM   30  C21 UNL     1      29.014   0.260  54.324  1.00  0.00     0.176 C 
BRANCH  30  31
HETATM   31  C22 UNL     1      30.027  -0.579  53.559  1.00  0.00     0.243 C 
HETATM   32  F2  UNL     1      29.758  -1.932  53.750  1.00  0.00    -0.254 F 
ENDBRANCH  30  31
ENDBRANCH  29  30
ENDBRANCH  22  24
ENDBRANCH  13  22
TORSDOF 5
ENDMDL
MODEL 3
REMARK VINA RESULT:      -8.4      2.303      3.156
REMARK  5 active torsions:
REMARK  status: ('A' for Active; 'I' for Inactive)
REMARK    1  A    between atoms: N3_11  and  C9_12 
REMARK    2  A    between atoms: C16_21  and  C17_22 
REMARK    3  A    between atoms: C17_22  and  C18_24 
REMARK    4  A    between atoms: N5_28  and  C21_29 
REMARK    5  A    between atoms: C21_29  and  C22_30 
ROOT
HETATM    1  C1  UNL     1      21.540   0.230  50.703  1.00  0.00     0.044 C 
HETATM    2  C2  UNL     1      22.529   1.371  50.779  1.00  0.00    -0.069 C 
HETATM    3  C3  UNL     1      23.321   2.388  50.513  1.00  0.00     0.022 C 
HETATM    4  C4  UNL     1      24.246   3.497  50.432  1.00  0.00     0.116 C 
HETATM    5  N1  UNL     1      24.049   4.123  49.273  1.00  0.00    -0.272 NA
HETATM    6  C5  UNL     1      22.975   3.518  48.492  1.00  0.00     0.136 C 
HETATM    7  C6  UNL     1      21.898   3.805  49.314  1.00  0.00     0.057 C 
HETATM    8  C7  UNL     1      20.709   3.246  48.654  1.00  0.00     0.098 C 
HETATM    9  N2  UNL     1      19.747   2.776  48.113  1.00  0.00    -0.192 NA
HETATM   10  C8  UNL     1      21.332   4.465  50.540  1.00  0.00     0.174 C 
HETATM   11  N3  UNL     1      20.823   3.476  51.474  1.00  0.00    -0.375 N 
HETATM   12  C15 UNL     1      21.460   2.711  52.557  1.00  0.00     0.140 C 
HETATM   13  C16 UNL     1      22.612   1.884  52.143  1.00  0.00     0.106 C 
ENDROOT
BRANCH  11  14
HETATM   14  C9  UNL     1      19.406   3.206  51.368  1.00  0.00     0.032 A 
HETATM   15  C10 UNL     1      18.455   4.166  51.104  1.00  0.00     0.032 A 
HETATM   16  C11 UNL     1      17.101   3.964  50.985  1.00  0.00     0.046 A 
HETATM   17  C12 UNL     1      16.616   2.693  51.136  1.00  0.00     0.138 A 
HETATM   18  F1  UNL     1      15.287   2.464  51.022  1.00  0.00    -0.204 F 
HETATM   19  C13 UNL     1      17.499   1.669  51.402  1.00  0.00     0.074 A 
HETATM   20 CL1  UNL     1      16.841   0.058  51.588  1.00  0.00    -0.081 Cl
HETATM   21  C14 UNL     1      18.833   1.965  51.505  1.00  0.00     0.056 A 
ENDBRANCH  11  14
BRANCH  13  22
HETATM   22  C17 UNL     1      22.897   0.747  53.098  1.00  0.00     0.159 C 
HETATM   23  O1  UNL     1      21.953   0.476  53.881  1.00  0.00    -0.292 OA
BRANCH  22  24
HETATM   24  C18 UNL     1      24.181   0.068  53.060  1.00  0.00     0.061 C 
HETATM   25  C19 UNL     1      25.285   0.622  53.469  1.00  0.00    -0.016 C 
HETATM   26  C20 UNL     1      25.474   1.957  54.024  1.00  0.00     0.147 C 
HETATM   27  C23 UNL     1      26.641  -0.001  53.465  1.00  0.00     0.184 C 
HETATM   28  N4  UNL     1      26.733   2.237  54.083  1.00  0.00    -0.189 NA
HETATM   29  N5  UNL     1      27.489   1.169  53.597  1.00  0.00    -0.299 N 
BRANCH  29  30
HETATM   30  C21 UNL     1      28.890   1.010  53.216  1.00  0.00     0.176 C 
BRANCH  30  31
HETATM   31  C22 UNL     1      29.475  -0.196  53.937  1.00  0.00     0.243 C 
HETATM   32  F2  UNL     1      29.790  -1.190  53.012  1.00  0.00    -0.254 F 
ENDBRANCH  30  31
ENDBRANCH  29  30
ENDBRANCH  22  24
ENDBRANCH  13  22
TORSDOF 5
ENDMDL
MODEL 4
REMARK VINA RESULT:      -8.1      2.682      4.248
REMARK  5 active torsions:
REMARK  status: ('A' for Active; 'I' for Inactive)
REMARK    1  A    between atoms: N3_11  and  C9_12 
REMARK    2  A    between atoms: C16_21  and  C17_22 
REMARK    3  A    between atoms: C17_22  and  C18_24 
REMARK    4  A    between atoms: N5_28  and  C21_29 
REMARK    5  A    between atoms: C21_29  and  C22_30 
ROOT
HETATM    1  C1  UNL     1      22.827   3.987  52.308  1.00  0.00     0.044 C 
HETATM    2  C2  UNL     1      22.725   2.479  52.276  1.00  0.00    -0.069 C 
HETATM    3  C3  UNL     1      22.357   1.226  52.434  1.00  0.00     0.022 C 
HETATM    4  C4  UNL     1      22.132  -0.202  52.492  1.00  0.00     0.116 C 
HETATM    5  N1  UNL     1      20.887  -0.413  52.916  1.00  0.00    -0.272 NA
HETATM    6  C5  UNL     1      20.164   0.833  53.154  1.00  0.00     0.136 C 
HETATM    7  C6  UNL     1      20.092   1.313  51.857  1.00  0.00     0.057 C 
HETATM    8  C7  UNL     1      19.377   2.596  51.926  1.00  0.00     0.098 C 
HETATM    9  N2  UNL     1      18.804   3.647  51.994  1.00  0.00    -0.192 NA
HETATM   10  C8  UNL     1      20.341   1.137  50.385  1.00  0.00     0.174 C 
HETATM   11  N3  UNL     1      21.297   2.117  49.899  1.00  0.00    -0.375 N 
HETATM   12  C15 UNL     1      22.766   2.126  49.832  1.00  0.00     0.140 C 
HETATM   13  C16 UNL     1      23.451   1.943  51.129  1.00  0.00     0.106 C 
ENDROOT
BRANCH  11  14
HETATM   14  C9  UNL     1      20.711   3.308  49.323  1.00  0.00     0.032 A 
HETATM   15  C10 UNL     1      19.596   3.308  48.516  1.00  0.00     0.032 A 
HETATM   16  C11 UNL     1      18.995   4.406  47.950  1.00  0.00     0.046 A 
HETATM   17  C12 UNL     1      19.534   5.641  48.194  1.00  0.00     0.138 A 
HETATM   18  F1  UNL     1      18.963   6.741  47.651  1.00  0.00    -0.204 F 
HETATM   19  C13 UNL     1      20.653   5.734  48.993  1.00  0.00     0.074 A 
HETATM   20 CL1  UNL     1      21.313   7.330  49.282  1.00  0.00    -0.081 Cl
HETATM   21  C14 UNL     1      21.185   4.583  49.513  1.00  0.00     0.056 A 
ENDBRANCH  11  14
BRANCH  13  22
HETATM   22  C17 UNL     1      24.867   2.472  51.129  1.00  0.00     0.159 C 
HETATM   23  O1  UNL     1      24.960   3.711  50.943  1.00  0.00    -0.292 OA
BRANCH  22  24
HETATM   24  C18 UNL     1      25.983   1.565  51.334  1.00  0.00     0.061 C 
HETATM   25  C19 UNL     1      26.372   1.180  52.514  1.00  0.00    -0.016 C 
HETATM   26  C20 UNL     1      25.815   1.545  53.812  1.00  0.00     0.147 C 
HETATM   27  C23 UNL     1      27.504   0.254  52.815  1.00  0.00     0.184 C 
HETATM   28  N4  UNL     1      26.612   1.168  54.756  1.00  0.00    -0.189 NA
HETATM   29  N5  UNL     1      27.736   0.539  54.218  1.00  0.00    -0.299 N 
BRANCH  29  30
HETATM   30  C21 UNL     1      29.030   0.136  54.764  1.00  0.00     0.176 C 
BRANCH  30  31
HETATM   31  C22 UNL     1      29.924  -0.354  53.634  1.00  0.00     0.243 C 
HETATM   32  F2  UNL     1      30.119  -1.729  53.750  1.00  0.00    -0.254 F 
ENDBRANCH  30  31
ENDBRANCH  29  30
ENDBRANCH  22  24
ENDBRANCH  13  22
TORSDOF 5
ENDMDL
MODEL 5
REMARK VINA RESULT:      -8.1      3.213      5.058
REMARK  5 active torsions:
REMARK  status: ('A' for Active; 'I' for Inactive)
REMARK    1  A    between atoms: N3_11  and  C9_12 
REMARK    2  A    between atoms: C16_21  and  C17_22 
REMARK    3  A    between atoms: C17_22  and  C18_24 
REMARK    4  A    between atoms: N5_28  and  C21_29 
REMARK    5  A    between atoms: C21_29  and  C22_30 
ROOT
HETATM    1  C1  UNL     1      21.180   3.485  52.579  1.00  0.00     0.044 C 
HETATM    2  C2  UNL     1      20.558   2.205  52.069  1.00  0.00    -0.069 C 
HETATM    3  C3  UNL     1      19.755   1.297  51.557  1.00  0.00     0.022 C 
HETATM    4  C4  UNL     1      19.033   0.156  51.038  1.00  0.00     0.116 C 
HETATM    5  N1  UNL     1      17.987   0.603  50.346  1.00  0.00    -0.272 NA
HETATM    6  C5  UNL     1      17.924   2.061  50.315  1.00  0.00     0.136 C 
HETATM    7  C6  UNL     1      19.064   2.329  49.576  1.00  0.00     0.057 C 
HETATM    8  C7  UNL     1      19.149   3.792  49.454  1.00  0.00     0.098 C 
HETATM    9  N2  UNL     1      19.216   4.986  49.371  1.00  0.00    -0.192 NA
HETATM   10  C8  UNL     1      20.244   1.849  48.778  1.00  0.00     0.174 C 
HETATM   11  N3  UNL     1      21.492   2.200  49.433  1.00  0.00    -0.375 N 
HETATM   12  C15 UNL     1      22.302   1.524  50.458  1.00  0.00     0.140 C 
HETATM   13  C16 UNL     1      21.595   1.237  51.723  1.00  0.00     0.106 C 
ENDROOT
BRANCH  11  14
HETATM   14  C9  UNL     1      22.099   3.430  48.972  1.00  0.00     0.032 A 
HETATM   15  C10 UNL     1      22.004   3.902  47.683  1.00  0.00     0.032 A 
HETATM   16  C11 UNL     1      22.552   5.064  47.195  1.00  0.00     0.046 A 
HETATM   17  C12 UNL     1      23.270   5.856  48.051  1.00  0.00     0.138 A 
HETATM   18  F1  UNL     1      23.820   7.006  47.599  1.00  0.00    -0.204 F 
HETATM   19  C13 UNL     1      23.415   5.459  49.363  1.00  0.00     0.074 A 
HETATM   20 CL1  UNL     1      24.338   6.497  50.427  1.00  0.00    -0.081 Cl
HETATM   21  C14 UNL     1      22.833   4.283  49.760  1.00  0.00     0.056 A 
ENDBRANCH  11  14
BRANCH  13  22
HETATM   22  C17 UNL     1      22.531   1.052  52.895  1.00  0.00     0.159 C 
HETATM   23  O1  UNL     1      21.998   0.542  53.912  1.00  0.00    -0.292 OA
BRANCH  22  24
HETATM   24  C18 UNL     1      23.923   1.452  52.785  1.00  0.00     0.061 C 
HETATM   25  C19 UNL     1      24.911   0.666  53.099  1.00  0.00    -0.016 C 
HETATM   26  C20 UNL     1      24.852  -0.703  53.598  1.00  0.00     0.147 C 
HETATM   27  C23 UNL     1      26.365   0.995  53.017  1.00  0.00     0.184 C 
HETATM   28  N4  UNL     1      26.014  -1.067  54.028  1.00  0.00    -0.189 NA
HETATM   29  N5  UNL     1      26.934  -0.030  53.871  1.00  0.00    -0.299 N 
BRANCH  29  30
HETATM   30  C21 UNL     1      28.286   0.210  54.372  1.00  0.00     0.176 C 
BRANCH  30  31
HETATM   31  C22 UNL     1      29.255  -0.743  53.688  1.00  0.00     0.243 C 
HETATM   32  F2  UNL     1      30.504  -0.138  53.567  1.00  0.00    -0.254 F 
ENDBRANCH  30  31
ENDBRANCH  29  30
ENDBRANCH  22  24
ENDBRANCH  13  22
TORSDOF 5
ENDMDL
MODEL 6
REMARK VINA RESULT:      -7.9      6.676      8.056
REMARK  5 active torsions:
REMARK  status: ('A' for Active; 'I' for Inactive)
REMARK    1  A    between atoms: N3_11  and  C9_12 
REMARK    2  A    between atoms: C16_21  and  C17_22 
REMARK    3  A    between atoms: C17_22  and  C18_24 
REMARK    4  A    between atoms: N5_28  and  C21_29 
REMARK    5  A    between atoms: C21_29  and  C22_30 
ROOT
HETATM    1  C1  UNL     1      29.266   8.184  46.349  1.00  0.00     0.044 C 
HETATM    2  C2  UNL     1      29.028   9.555  46.940  1.00  0.00    -0.069 C 
HETATM    3  C3  UNL     1      28.556  10.746  47.241  1.00  0.00     0.022 C 
HETATM    4  C4  UNL     1      28.206  12.069  47.709  1.00  0.00     0.116 C 
HETATM    5  N1  UNL     1      26.966  12.341  47.308  1.00  0.00    -0.272 NA
HETATM    6  C5  UNL     1      26.367  11.235  46.568  1.00  0.00     0.136 C 
HETATM    7  C6  UNL     1      26.287  10.293  47.579  1.00  0.00     0.057 C 
HETATM    8  C7  UNL     1      25.693   9.087  46.981  1.00  0.00     0.098 C 
HETATM    9  N2  UNL     1      25.219   8.106  46.481  1.00  0.00    -0.192 NA
HETATM   10  C8  UNL     1      26.459   9.909  49.023  1.00  0.00     0.174 C 
HETATM   11  N3  UNL     1      27.478   8.885  49.170  1.00  0.00    -0.375 N 
HETATM   12  C15 UNL     1      28.939   8.951  49.333  1.00  0.00     0.140 C 
HETATM   13  C16 UNL     1      29.656   9.661  48.253  1.00  0.00     0.106 C 
ENDROOT
BRANCH  11  14
HETATM   14  C9  UNL     1      26.979   7.529  49.212  1.00  0.00     0.032 A 
HETATM   15  C10 UNL     1      27.579   6.465  48.576  1.00  0.00     0.032 A 
HETATM   16  C11 UNL     1      27.154   5.158  48.590  1.00  0.00     0.046 A 
HETATM   17  C12 UNL     1      26.023   4.848  49.297  1.00  0.00     0.138 A 
HETATM   18  F1  UNL     1      25.582   3.570  49.329  1.00  0.00    -0.204 F 
HETATM   19  C13 UNL     1      25.359   5.853  49.965  1.00  0.00     0.074 A 
HETATM   20 CL1  UNL     1      23.918   5.418  50.859  1.00  0.00    -0.081 Cl
HETATM   21  C14 UNL     1      25.856   7.128  49.895  1.00  0.00     0.056 A 
ENDBRANCH  11  14
BRANCH  13  22
HETATM   22  C17 UNL     1      31.113   9.269  48.155  1.00  0.00     0.159 C 
HETATM   23  O1  UNL     1      31.817  10.052  47.470  1.00  0.00    -0.292 OA
BRANCH  22  24
HETATM   24  C18 UNL     1      31.591   8.071  48.823  1.00  0.00     0.061 C 
HETATM   25  C19 UNL     1      32.273   7.147  48.211  1.00  0.00    -0.016 C 
HETATM   26  C20 UNL     1      32.685   7.104  46.813  1.00  0.00     0.147 C 
HETATM   27  C23 UNL     1      32.801   5.889  48.819  1.00  0.00     0.184 C 
HETATM   28  N4  UNL     1      33.125   5.927  46.518  1.00  0.00    -0.189 NA
HETATM   29  N5  UNL     1      33.059   5.092  47.635  1.00  0.00    -0.299 N 
BRANCH  29  30
HETATM   30  C21 UNL     1      33.192   3.650  47.831  1.00  0.00     0.176 C 
BRANCH  30  31
HETATM   31  C22 UNL     1      34.667   3.275  47.832  1.00  0.00     0.243 C 
HETATM   32  F2  UNL     1      35.093   3.034  46.528  1.00  0.00    -0.254 F 
ENDBRANCH  30  31
ENDBRANCH  29  30
ENDBRANCH  22  24
ENDBRANCH  13  22
TORSDOF 5
ENDMDL
MODEL 7
REMARK VINA RESULT:      -7.9      3.248      6.867
REMARK  5 active torsions:
REMARK  status: ('A' for Active; 'I' for Inactive)
REMARK    1  A    between atoms: N3_11  and  C9_12 
REMARK    2  A    between atoms: C16_21  and  C17_22 
REMARK    3  A    between atoms: C17_22  and  C18_24 
REMARK    4  A    between atoms: N5_28  and  C21_29 
REMARK    5  A    between atoms: C21_29  and  C22_30 
ROOT
HETATM    1  C1  UNL     1      20.361   3.577  51.980  1.00  0.00     0.044 C 
HETATM    2  C2  UNL     1      21.063   4.103  50.748  1.00  0.00    -0.069 C 
HETATM    3  C3  UNL     1      21.839   4.750  49.905  1.00  0.00     0.022 C 
HETATM    4  C4  UNL     1      22.589   5.347  48.823  1.00  0.00     0.116 C 
HETATM    5  N1  UNL     1      23.633   5.991  49.342  1.00  0.00    -0.272 NA
HETATM    6  C5  UNL     1      23.694   5.867  50.795  1.00  0.00     0.136 C 
HETATM    7  C6  UNL     1      23.940   4.509  50.904  1.00  0.00     0.057 C 
HETATM    8  C7  UNL     1      24.028   4.214  52.342  1.00  0.00     0.098 C 
HETATM    9  N2  UNL     1      24.086   3.983  53.517  1.00  0.00    -0.192 NA
HETATM   10  C8  UNL     1      24.221   3.178  50.264  1.00  0.00     0.174 C 
HETATM   11  N3  UNL     1      23.138   2.243  50.514  1.00  0.00    -0.375 N 
HETATM   12  C15 UNL     1      21.877   1.969  49.808  1.00  0.00     0.140 C 
HETATM   13  C16 UNL     1      20.979   3.133  49.660  1.00  0.00     0.106 C 
ENDROOT
BRANCH  11  14
HETATM   14  C9  UNL     1      23.337   1.367  51.648  1.00  0.00     0.032 A 
HETATM   15  C10 UNL     1      24.561   0.869  52.034  1.00  0.00     0.032 A 
HETATM   16  C11 UNL     1      24.807   0.043  53.104  1.00  0.00     0.046 A 
HETATM   17  C12 UNL     1      23.752  -0.341  53.888  1.00  0.00     0.138 A 
HETATM   18  F1  UNL     1      23.965  -1.152  54.948  1.00  0.00    -0.204 F 
HETATM   19  C13 UNL     1      22.490   0.113  53.574  1.00  0.00     0.074 A 
HETATM   20 CL1  UNL     1      21.166  -0.400  54.598  1.00  0.00    -0.081 Cl
HETATM   21  C14 UNL     1      22.339   0.933  52.486  1.00  0.00     0.056 A 
ENDBRANCH  11  14
BRANCH  13  22
HETATM   22  C17 UNL     1      19.536   2.742  49.436  1.00  0.00     0.159 C 
HETATM   23  O1  UNL     1      18.791   3.686  49.074  1.00  0.00    -0.292 OA
BRANCH  22  24
HETATM   24  C18 UNL     1      19.114   1.367  49.641  1.00  0.00     0.061 C 
HETATM   25  C19 UNL     1      18.116   1.043  50.410  1.00  0.00    -0.016 C 
HETATM   26  C20 UNL     1      17.252   1.923  51.188  1.00  0.00     0.147 C 
HETATM   27  C23 UNL     1      17.617  -0.339  50.676  1.00  0.00     0.184 C 
HETATM   28  N4  UNL     1      16.541   1.228  52.012  1.00  0.00    -0.189 NA
HETATM   29  N5  UNL     1      16.838  -0.129  51.881  1.00  0.00    -0.299 N 
BRANCH  29  30
HETATM   30  C21 UNL     1      16.532  -1.315  52.679  1.00  0.00     0.176 C 
BRANCH  30  31
HETATM   31  C22 UNL     1      17.780  -1.750  53.435  1.00  0.00     0.243 C 
HETATM   32  F2  UNL     1      17.560  -2.989  54.033  1.00  0.00    -0.254 F 
ENDBRANCH  30  31
ENDBRANCH  29  30
ENDBRANCH  22  24
ENDBRANCH  13  22
TORSDOF 5
ENDMDL
MODEL 8
REMARK VINA RESULT:      -7.8      2.361      3.077
REMARK  5 active torsions:
REMARK  status: ('A' for Active; 'I' for Inactive)
REMARK    1  A    between atoms: N3_11  and  C9_12 
REMARK    2  A    between atoms: C16_21  and  C17_22 
REMARK    3  A    between atoms: C17_22  and  C18_24 
REMARK    4  A    between atoms: N5_28  and  C21_29 
REMARK    5  A    between atoms: C21_29  and  C22_30 
ROOT
HETATM    1  C1  UNL     1      21.903   0.973  50.108  1.00  0.00     0.044 C 
HETATM    2  C2  UNL     1      22.171   2.390  50.561  1.00  0.00    -0.069 C 
HETATM    3  C3  UNL     1      22.296   3.698  50.642  1.00  0.00     0.022 C 
HETATM    4  C4  UNL     1      22.509   5.098  50.933  1.00  0.00     0.116 C 
HETATM    5  N1  UNL     1      21.890   5.818  49.999  1.00  0.00    -0.272 NA
HETATM    6  C5  UNL     1      21.194   4.983  49.025  1.00  0.00     0.136 C 
HETATM    7  C6  UNL     1      20.224   4.429  49.843  1.00  0.00     0.057 C 
HETATM    8  C7  UNL     1      19.421   3.538  48.992  1.00  0.00     0.098 C 
HETATM    9  N2  UNL     1      18.779   2.804  48.293  1.00  0.00    -0.192 NA
HETATM   10  C8  UNL     1      19.543   4.333  51.180  1.00  0.00     0.174 C 
HETATM   11  N3  UNL     1      19.722   3.013  51.759  1.00  0.00    -0.375 N 
HETATM   12  C15 UNL     1      20.779   2.430  52.601  1.00  0.00     0.140 C 
HETATM   13  C16 UNL     1      22.136   2.475  52.018  1.00  0.00     0.106 C 
ENDROOT
BRANCH  11  14
HETATM   14  C9  UNL     1      18.640   2.086  51.511  1.00  0.00     0.032 A 
HETATM   15  C10 UNL     1      18.813   0.739  51.283  1.00  0.00     0.032 A 
HETATM   16  C11 UNL     1      17.824  -0.185  51.050  1.00  0.00     0.046 A 
HETATM   17  C12 UNL     1      16.523   0.241  51.040  1.00  0.00     0.138 A 
HETATM   18  F1  UNL     1      15.528  -0.647  50.815  1.00  0.00    -0.204 F 
HETATM   19  C13 UNL     1      16.257   1.575  51.261  1.00  0.00     0.074 A 
HETATM   20 CL1  UNL     1      14.582   2.083  51.240  1.00  0.00    -0.081 Cl
HETATM   21  C14 UNL     1      17.309   2.425  51.483  1.00  0.00     0.056 A 
ENDBRANCH  11  14
BRANCH  13  22
HETATM   22  C17 UNL     1      23.068   1.444  52.612  1.00  0.00     0.159 C 
HETATM   23  O1  UNL     1      22.548   0.721  53.498  1.00  0.00    -0.292 OA
BRANCH  22  24
HETATM   24  C18 UNL     1      24.441   1.351  52.149  1.00  0.00     0.061 C 
HETATM   25  C19 UNL     1      25.251   0.405  52.526  1.00  0.00    -0.016 C 
HETATM   26  C20 UNL     1      24.984  -0.703  53.436  1.00  0.00     0.147 C 
HETATM   27  C23 UNL     1      26.672   0.235  52.100  1.00  0.00     0.184 C 
HETATM   28  N4  UNL     1      26.090  -1.286  53.757  1.00  0.00    -0.189 NA
HETATM   29  N5  UNL     1      27.167  -0.662  53.127  1.00  0.00    -0.299 N 
BRANCH  29  30
HETATM   30  C21 UNL     1      28.618  -0.733  53.292  1.00  0.00     0.176 C 
BRANCH  30  31
HETATM   31  C22 UNL     1      29.026   0.070  54.518  1.00  0.00     0.243 C 
HETATM   32  F2  UNL     1      27.967   0.880  54.925  1.00  0.00    -0.254 F 
ENDBRANCH  30  31
ENDBRANCH  29  30
ENDBRANCH  22  24
ENDBRANCH  13  22
TORSDOF 5
ENDMDL
MODEL 9
REMARK VINA RESULT:      -7.8      3.816      4.840
REMARK  5 active torsions:
REMARK  status: ('A' for Active; 'I' for Inactive)
REMARK    1  A    between atoms: N3_11  and  C9_12 
REMARK    2  A    between atoms: C16_21  and  C17_22 
REMARK    3  A    between atoms: C17_22  and  C18_24 
REMARK    4  A    between atoms: N5_28  and  C21_29 
REMARK    5  A    between atoms: C21_29  and  C22_30 
ROOT
HETATM    1  C1  UNL     1      23.244   2.616  49.712  1.00  0.00     0.044 C 
HETATM    2  C2  UNL     1      22.378   3.853  49.764  1.00  0.00    -0.069 C 
HETATM    3  C3  UNL     1      21.425   4.747  49.603  1.00  0.00     0.022 C 
HETATM    4  C4  UNL     1      20.501   5.858  49.555  1.00  0.00     0.116 C 
HETATM    5  N1  UNL     1      19.349   5.423  49.047  1.00  0.00    -0.272 NA
HETATM    6  C5  UNL     1      19.384   3.997  48.735  1.00  0.00     0.136 C 
HETATM    7  C6  UNL     1      19.503   3.481  50.015  1.00  0.00     0.057 C 
HETATM    8  C7  UNL     1      19.556   2.018  49.872  1.00  0.00     0.098 C 
HETATM    9  N2  UNL     1      19.610   0.827  49.743  1.00  0.00    -0.192 NA
HETATM   10  C8  UNL     1      19.549   3.682  51.504  1.00  0.00     0.174 C 
HETATM   11  N3  UNL     1      20.845   3.307  52.039  1.00  0.00    -0.375 N 
HETATM   12  C15 UNL     1      22.104   4.050  52.211  1.00  0.00     0.140 C 
HETATM   13  C16 UNL     1      22.663   4.625  50.970  1.00  0.00     0.106 C 
ENDROOT
BRANCH  11  14
HETATM   14  C9  UNL     1      20.928   1.956  52.550  1.00  0.00     0.032 A 
HETATM   15  C10 UNL     1      19.837   1.200  52.915  1.00  0.00     0.032 A 
HETATM   16  C11 UNL     1      19.858  -0.086  53.397  1.00  0.00     0.046 A 
HETATM   17  C12 UNL     1      21.069  -0.709  53.541  1.00  0.00     0.138 A 
HETATM   18  F1  UNL     1      21.119  -1.976  54.012  1.00  0.00    -0.204 F 
HETATM   19  C13 UNL     1      22.214  -0.025  53.199  1.00  0.00     0.074 A 
HETATM   20 CL1  UNL     1      23.743  -0.854  53.396  1.00  0.00    -0.081 Cl
HETATM   21  C14 UNL     1      22.097   1.256  52.727  1.00  0.00     0.056 A 
ENDBRANCH  11  14
BRANCH  13  22
HETATM   22  C17 UNL     1      24.147   4.898  51.062  1.00  0.00     0.159 C 
HETATM   23  O1  UNL     1      24.736   4.271  51.977  1.00  0.00    -0.292 OA
BRANCH  22  24
HETATM   24  C18 UNL     1      24.776   5.823  50.135  1.00  0.00     0.061 C 
HETATM   25  C19 UNL     1      25.825   5.511  49.432  1.00  0.00    -0.016 C 
HETATM   26  C20 UNL     1      26.559   4.252  49.413  1.00  0.00     0.147 C 
HETATM   27  C23 UNL     1      26.532   6.397  48.459  1.00  0.00     0.184 C 
HETATM   28  N4  UNL     1      27.677   4.402  48.785  1.00  0.00    -0.189 NA
HETATM   29  N5  UNL     1      27.807   5.716  48.335  1.00  0.00    -0.299 N 
BRANCH  29  30
HETATM   30  C21 UNL     1      28.918   6.497  47.794  1.00  0.00     0.176 C 
BRANCH  30  31
HETATM   31  C22 UNL     1      30.233   5.915  48.290  1.00  0.00     0.243 C 
HETATM   32  F2  UNL     1      30.533   4.755  47.580  1.00  0.00    -0.254 F 
ENDBRANCH  30  31
ENDBRANCH  29  30
ENDBRANCH  22  24
ENDBRANCH  13  22
TORSDOF 5
ENDMDL
