MODEL 1
REMARK VINA RESULT:      -8.1      0.000      0.000
REMARK  3 active torsions:
REMARK  status: ('A' for Active; 'I' for Inactive)
REMARK    1  A    between atoms: C2_3  and  C3_4 
REMARK    2  A    between atoms: C3_4  and  C4_5 
REMARK    3  A    between atoms: C3_4  and  N2_10 
ROOT
HETATM    1  N1  UNL     1      24.834  -1.291  56.224  1.00  0.00    -0.197 NA
HETATM    2  C1  UNL     1      25.057  -0.978  55.128  1.00  0.00     0.061 C 
HETATM    3  C2  UNL     1      25.312  -0.586  53.752  1.00  0.00     0.151 C 
ENDROOT
BRANCH   3   4
HETATM    4  C3  UNL     1      26.354   0.461  53.602  1.00  0.00     0.126 C 
BRANCH   4   5
HETATM    5  C4  UNL     1      27.735   0.042  53.313  1.00  0.00     0.011 C 
HETATM    6  C5  UNL     1      28.763   0.213  54.374  1.00  0.00     0.007 C 
HETATM    7  C6  UNL     1      29.992  -0.357  53.626  1.00  0.00     0.000 C 
HETATM    8  C7  UNL     1      29.376  -1.679  53.155  1.00  0.00     0.000 C 
HETATM    9  C8  UNL     1      27.895  -1.424  52.965  1.00  0.00     0.007 C 
ENDBRANCH   4   5
BRANCH   4  10
HETATM   10  N2  UNL     1      25.972   1.413  52.542  1.00  0.00    -0.272 N 
HETATM   11  C9  UNL     1      24.793   1.512  51.912  1.00  0.00     0.123 A 
HETATM   12  C10 UNL     1      24.852   2.553  50.970  1.00  0.00     0.007 A 
HETATM   13  C11 UNL     1      26.135   3.049  51.094  1.00  0.00     0.152 A 
HETATM   14  C16 UNL     1      23.692   2.892  50.118  1.00  0.00     0.048 C 
HETATM   15  N3  UNL     1      26.757   2.334  52.043  1.00  0.00    -0.154 NA
HETATM   16  N4  UNL     1      26.566   4.124  50.290  1.00  0.00    -0.357 N 
HETATM   17  C12 UNL     1      27.163   4.253  49.008  1.00  0.00     0.244 C 
HETATM   18  H14 UNL     1      26.350   4.977  50.894  1.00  0.00     0.162 HD
HETATM   19  N5  UNL     1      27.094   5.675  48.651  1.00  0.00    -0.383 N 
HETATM   20  C13 UNL     1      25.746   5.710  49.102  1.00  0.00     0.080 C 
HETATM   21  H17 UNL     1      27.668   6.423  48.249  1.00  0.00     0.160 HD
HETATM   22  C14 UNL     1      24.604   5.057  49.238  1.00  0.00    -0.010 C 
HETATM   23  C15 UNL     1      24.054   3.741  48.942  1.00  0.00     0.033 C 
ENDBRANCH   4  10
ENDBRANCH   3   4
TORSDOF 3
ENDMDL
MODEL 2
REMARK VINA RESULT:      -7.9      1.379      1.948
REMARK  3 active torsions:
REMARK  status: ('A' for Active; 'I' for Inactive)
REMARK    1  A    between atoms: C2_3  and  C3_4 
REMARK    2  A    between atoms: C3_4  and  C4_5 
REMARK    3  A    between atoms: C3_4  and  N2_10 
ROOT
HETATM    1  N1  UNL     1      24.322  -1.263  55.893  1.00  0.00    -0.197 NA
HETATM    2  C1  UNL     1      24.734  -0.968  54.848  1.00  0.00     0.061 C 
HETATM    3  C2  UNL     1      25.225  -0.598  53.531  1.00  0.00     0.151 C 
ENDROOT
BRANCH   3   4
HETATM    4  C3  UNL     1      26.286   0.441  53.549  1.00  0.00     0.126 C 
BRANCH   4   5
HETATM    5  C4  UNL     1      27.677   0.031  53.298  1.00  0.00     0.011 C 
HETATM    6  C5  UNL     1      28.679   0.227  54.379  1.00  0.00     0.007 C 
HETATM    7  C6  UNL     1      29.930  -0.343  53.668  1.00  0.00     0.000 C 
HETATM    8  C7  UNL     1      29.337  -1.677  53.204  1.00  0.00     0.000 C 
HETATM    9  C8  UNL     1      27.858  -1.440  52.977  1.00  0.00     0.007 C 
ENDBRANCH   4   5
BRANCH   4  10
HETATM   10  N2  UNL     1      25.977   1.502  52.572  1.00  0.00    -0.272 N 
HETATM   11  C9  UNL     1      26.689   1.861  51.495  1.00  0.00     0.123 A 
HETATM   12  C10 UNL     1      26.039   2.918  50.836  1.00  0.00     0.007 A 
HETATM   13  C11 UNL     1      24.909   3.147  51.596  1.00  0.00     0.152 A 
HETATM   14  C16 UNL     1      26.601   3.526  49.610  1.00  0.00     0.048 C 
HETATM   15  N3  UNL     1      24.923   2.277  52.616  1.00  0.00    -0.154 NA
HETATM   16  N4  UNL     1      23.996   4.157  51.230  1.00  0.00    -0.357 N 
HETATM   17  C12 UNL     1      23.863   5.546  51.497  1.00  0.00     0.244 C 
HETATM   18  H14 UNL     1      23.289   3.635  50.627  1.00  0.00     0.162 HD
HETATM   19  N5  UNL     1      22.842   6.058  50.576  1.00  0.00    -0.383 N 
HETATM   20  C13 UNL     1      23.447   5.326  49.518  1.00  0.00     0.080 C 
HETATM   21  H17 UNL     1      22.019   6.670  50.561  1.00  0.00     0.160 HD
HETATM   22  C14 UNL     1      24.565   4.857  48.991  1.00  0.00    -0.010 C 
HETATM   23  C15 UNL     1      25.994   4.852  49.280  1.00  0.00     0.033 C 
ENDBRANCH   4  10
ENDBRANCH   3   4
TORSDOF 3
ENDMDL
MODEL 3
REMARK VINA RESULT:      -7.6      3.266      6.279
REMARK  3 active torsions:
REMARK  status: ('A' for Active; 'I' for Inactive)
REMARK    1  A    between atoms: C2_3  and  C3_4 
REMARK    2  A    between atoms: C3_4  and  C4_5 
REMARK    3  A    between atoms: C3_4  and  N2_10 
ROOT
HETATM    1  N1  UNL     1      22.011  -1.690  55.340  1.00  0.00    -0.197 NA
HETATM    2  C1  UNL     1      21.835  -0.807  54.607  1.00  0.00     0.061 C 
HETATM    3  C2  UNL     1      21.614   0.315  53.709  1.00  0.00     0.151 C 
ENDROOT
BRANCH   3   4
HETATM    4  C3  UNL     1      22.441   0.278  52.477  1.00  0.00     0.126 C 
BRANCH   4   5
HETATM    5  C4  UNL     1      22.143   1.237  51.401  1.00  0.00     0.011 C 
HETATM    6  C5  UNL     1      21.485   0.734  50.166  1.00  0.00     0.007 C 
HETATM    7  C6  UNL     1      21.379   2.063  49.379  1.00  0.00     0.000 C 
HETATM    8  C7  UNL     1      20.734   2.921  50.473  1.00  0.00     0.000 C 
HETATM    9  C8  UNL     1      21.220   2.372  51.798  1.00  0.00     0.007 C 
ENDBRANCH   4   5
BRANCH   4  10
HETATM   10  N2  UNL     1      23.866   0.452  52.814  1.00  0.00    -0.272 N 
HETATM   11  C9  UNL     1      24.549   1.599  52.935  1.00  0.00     0.123 A 
HETATM   12  C10 UNL     1      25.885   1.316  53.266  1.00  0.00     0.007 A 
HETATM   13  C11 UNL     1      25.933  -0.063  53.330  1.00  0.00     0.152 A 
HETATM   14  C16 UNL     1      26.878   2.394  53.460  1.00  0.00     0.048 C 
HETATM   15  N3  UNL     1      24.705  -0.525  53.052  1.00  0.00    -0.154 NA
HETATM   16  N4  UNL     1      27.139  -0.721  53.645  1.00  0.00    -0.357 N 
HETATM   17  C12 UNL     1      28.252  -1.203  52.906  1.00  0.00     0.244 C 
HETATM   18  H14 UNL     1      27.080  -0.835  54.704  1.00  0.00     0.162 HD
HETATM   19  N5  UNL     1      29.295  -1.536  53.882  1.00  0.00    -0.383 N 
HETATM   20  C13 UNL     1      29.035  -0.314  54.559  1.00  0.00     0.080 C 
HETATM   21  H17 UNL     1      29.978  -2.270  54.097  1.00  0.00     0.160 HD
HETATM   22  C14 UNL     1      28.673   0.954  54.460  1.00  0.00    -0.010 C 
HETATM   23  C15 UNL     1      28.291   1.906  53.425  1.00  0.00     0.033 C 
ENDBRANCH   4  10
ENDBRANCH   3   4
TORSDOF 3
ENDMDL
MODEL 4
REMARK VINA RESULT:      -7.6      1.880      3.576
REMARK  3 active torsions:
REMARK  status: ('A' for Active; 'I' for Inactive)
REMARK    1  A    between atoms: C2_3  and  C3_4 
REMARK    2  A    between atoms: C3_4  and  C4_5 
REMARK    3  A    between atoms: C3_4  and  N2_10 
ROOT
HETATM    1  N1  UNL     1      27.516  -1.922  53.037  1.00  0.00    -0.197 NA
HETATM    2  C1  UNL     1      26.787  -1.050  53.277  1.00  0.00     0.061 C 
HETATM    3  C2  UNL     1      25.894   0.056  53.577  1.00  0.00     0.151 C 
ENDROOT
BRANCH   3   4
HETATM    4  C3  UNL     1      24.680   0.106  52.724  1.00  0.00     0.126 C 
BRANCH   4   5
HETATM    5  C4  UNL     1      23.361   0.058  53.374  1.00  0.00     0.011 C 
HETATM    6  C5  UNL     1      22.209  -0.478  52.602  1.00  0.00     0.007 C 
HETATM    7  C6  UNL     1      21.100  -0.335  53.673  1.00  0.00     0.000 C 
HETATM    8  C7  UNL     1      21.821  -1.025  54.836  1.00  0.00     0.000 C 
HETATM    9  C8  UNL     1      23.302  -0.783  54.634  1.00  0.00     0.007 C 
ENDBRANCH   4   5
BRANCH   4  10
HETATM   10  N2  UNL     1      24.694   1.320  51.887  1.00  0.00    -0.272 N 
HETATM   11  C9  UNL     1      23.669   1.874  51.224  1.00  0.00     0.123 A 
HETATM   12  C10 UNL     1      24.115   3.023  50.549  1.00  0.00     0.007 A 
HETATM   13  C11 UNL     1      25.459   3.099  50.862  1.00  0.00     0.152 A 
HETATM   14  C16 UNL     1      23.198   3.841  49.726  1.00  0.00     0.048 C 
HETATM   15  N3  UNL     1      25.749   2.061  51.660  1.00  0.00    -0.154 NA
HETATM   16  N4  UNL     1      26.252   4.147  50.352  1.00  0.00    -0.357 N 
HETATM   17  C12 UNL     1      27.014   4.357  49.172  1.00  0.00     0.244 C 
HETATM   18  H14 UNL     1      26.195   4.886  51.119  1.00  0.00     0.162 HD
HETATM   19  N5  UNL     1      27.366   5.782  49.144  1.00  0.00    -0.383 N 
HETATM   20  C13 UNL     1      26.030   6.106  49.507  1.00  0.00     0.080 C 
HETATM   21  H17 UNL     1      28.161   6.401  48.959  1.00  0.00     0.160 HD
HETATM   22  C14 UNL     1      24.749   5.790  49.420  1.00  0.00    -0.010 C 
HETATM   23  C15 UNL     1      23.912   4.771  48.799  1.00  0.00     0.033 C 
ENDBRANCH   4  10
ENDBRANCH   3   4
TORSDOF 3
ENDMDL
MODEL 5
REMARK VINA RESULT:      -7.3      3.416      5.287
REMARK  3 active torsions:
REMARK  status: ('A' for Active; 'I' for Inactive)
REMARK    1  A    between atoms: C2_3  and  C3_4 
REMARK    2  A    between atoms: C3_4  and  C4_5 
REMARK    3  A    between atoms: C3_4  and  N2_10 
ROOT
HETATM    1  N1  UNL     1      29.260   2.851  53.189  1.00  0.00    -0.197 NA
HETATM    2  C1  UNL     1      28.284   2.315  53.518  1.00  0.00     0.061 C 
HETATM    3  C2  UNL     1      27.052   1.665  53.933  1.00  0.00     0.151 C 
ENDROOT
BRANCH   3   4
HETATM    4  C3  UNL     1      26.648   0.522  53.075  1.00  0.00     0.126 C 
BRANCH   4   5
HETATM    5  C4  UNL     1      27.296  -0.781  53.291  1.00  0.00     0.011 C 
HETATM    6  C5  UNL     1      27.147  -1.828  52.245  1.00  0.00     0.007 C 
HETATM    7  C6  UNL     1      27.977  -2.958  52.901  1.00  0.00     0.000 C 
HETATM    8  C7  UNL     1      29.243  -2.153  53.215  1.00  0.00     0.000 C 
HETATM    9  C8  UNL     1      28.802  -0.725  53.454  1.00  0.00     0.007 C 
ENDBRANCH   4   5
BRANCH   4  10
HETATM   10  N2  UNL     1      25.195   0.294  53.179  1.00  0.00    -0.272 N 
HETATM   11  C9  UNL     1      24.545  -0.473  54.065  1.00  0.00     0.123 A 
HETATM   12  C10 UNL     1      23.164  -0.412  53.812  1.00  0.00     0.007 A 
HETATM   13  C11 UNL     1      23.056   0.437  52.728  1.00  0.00     0.152 A 
HETATM   14  C16 UNL     1      22.194  -1.167  54.633  1.00  0.00     0.048 C 
HETATM   15  N3  UNL     1      24.294   0.827  52.393  1.00  0.00    -0.154 NA
HETATM   16  N4  UNL     1      21.792   0.742  52.184  1.00  0.00    -0.357 N 
HETATM   17  C12 UNL     1      20.949   0.166  51.197  1.00  0.00     0.244 C 
HETATM   18  H14 UNL     1      21.515   1.632  52.704  1.00  0.00     0.162 HD
HETATM   19  N5  UNL     1      19.644   0.826  51.317  1.00  0.00    -0.383 N 
HETATM   20  C13 UNL     1      19.719   0.690  52.730  1.00  0.00     0.080 C 
HETATM   21  H17 UNL     1      18.906   1.240  50.739  1.00  0.00     0.160 HD
HETATM   22  C14 UNL     1      20.133  -0.037  53.754  1.00  0.00    -0.010 C 
HETATM   23  C15 UNL     1      20.847  -1.285  53.993  1.00  0.00     0.033 C 
ENDBRANCH   4  10
ENDBRANCH   3   4
TORSDOF 3
ENDMDL
MODEL 6
REMARK VINA RESULT:      -7.1      1.929      6.775
REMARK  3 active torsions:
REMARK  status: ('A' for Active; 'I' for Inactive)
REMARK    1  A    between atoms: C2_3  and  C3_4 
REMARK    2  A    between atoms: C3_4  and  C4_5 
REMARK    3  A    between atoms: C3_4  and  N2_10 
ROOT
HETATM    1  N1  UNL     1      22.343   4.255  47.245  1.00  0.00    -0.197 NA
HETATM    2  C1  UNL     1      22.851   4.163  48.286  1.00  0.00     0.061 C 
HETATM    3  C2  UNL     1      23.470   4.030  49.594  1.00  0.00     0.151 C 
ENDROOT
BRANCH   3   4
HETATM    4  C3  UNL     1      24.954   4.023  49.566  1.00  0.00     0.126 C 
BRANCH   4   5
HETATM    5  C4  UNL     1      25.667   5.301  49.722  1.00  0.00     0.011 C 
HETATM    6  C5  UNL     1      26.013   6.074  48.500  1.00  0.00     0.007 C 
HETATM    7  C6  UNL     1      26.711   7.288  49.160  1.00  0.00     0.000 C 
HETATM    8  C7  UNL     1      25.629   7.639  50.186  1.00  0.00     0.000 C 
HETATM    9  C8  UNL     1      24.932   6.342  50.544  1.00  0.00     0.007 C 
ENDBRANCH   4   5
BRANCH   4  10
HETATM   10  N2  UNL     1      25.480   3.117  50.603  1.00  0.00    -0.272 N 
HETATM   11  C9  UNL     1      24.798   2.234  51.346  1.00  0.00     0.123 A 
HETATM   12  C10 UNL     1      25.682   1.574  52.217  1.00  0.00     0.007 A 
HETATM   13  C11 UNL     1      26.914   2.127  51.931  1.00  0.00     0.152 A 
HETATM   14  C16 UNL     1      25.207   0.543  53.165  1.00  0.00     0.048 C 
HETATM   15  N3  UNL     1      26.736   3.039  50.965  1.00  0.00    -0.154 NA
HETATM   16  N4  UNL     1      28.066   1.700  52.623  1.00  0.00    -0.357 N 
HETATM   17  C12 UNL     1      28.721   2.075  53.826  1.00  0.00     0.244 C 
HETATM   18  H14 UNL     1      28.448   0.925  51.998  1.00  0.00     0.162 HD
HETATM   19  N5  UNL     1      29.717   1.035  54.107  1.00  0.00    -0.383 N 
HETATM   20  C13 UNL     1      28.748   0.041  53.798  1.00  0.00     0.080 C 
HETATM   21  H17 UNL     1      30.692   0.926  54.404  1.00  0.00     0.160 HD
HETATM   22  C14 UNL     1      27.473  -0.311  53.820  1.00  0.00    -0.010 C 
HETATM   23  C15 UNL     1      26.193   0.239  54.246  1.00  0.00     0.033 C 
ENDBRANCH   4  10
ENDBRANCH   3   4
TORSDOF 3
ENDMDL
MODEL 7
REMARK VINA RESULT:      -7.1      2.167      3.688
REMARK  3 active torsions:
REMARK  status: ('A' for Active; 'I' for Inactive)
REMARK    1  A    between atoms: C2_3  and  C3_4 
REMARK    2  A    between atoms: C3_4  and  C4_5 
REMARK    3  A    between atoms: C3_4  and  N2_10 
ROOT
HETATM    1  N1  UNL     1      28.123   2.578  54.130  1.00  0.00    -0.197 NA
HETATM    2  C1  UNL     1      27.763   1.635  53.556  1.00  0.00     0.061 C 
HETATM    3  C2  UNL     1      27.321   0.440  52.856  1.00  0.00     0.151 C 
ENDROOT
BRANCH   3   4
HETATM    4  C3  UNL     1      25.954   0.542  52.284  1.00  0.00     0.126 C 
BRANCH   4   5
HETATM    5  C4  UNL     1      24.802   0.363  53.182  1.00  0.00     0.011 C 
HETATM    6  C5  UNL     1      23.543  -0.191  52.617  1.00  0.00     0.007 C 
HETATM    7  C6  UNL     1      22.673  -0.196  53.897  1.00  0.00     0.000 C 
HETATM    8  C7  UNL     1      23.652  -0.918  54.830  1.00  0.00     0.000 C 
HETATM    9  C8  UNL     1      25.046  -0.566  54.354  1.00  0.00     0.007 C 
ENDBRANCH   4   5
BRANCH   4  10
HETATM   10  N2  UNL     1      25.774   1.847  51.622  1.00  0.00    -0.272 N 
HETATM   11  C9  UNL     1      26.473   2.351  50.594  1.00  0.00     0.123 A 
HETATM   12  C10 UNL     1      25.976   3.625  50.271  1.00  0.00     0.007 A 
HETATM   13  C11 UNL     1      24.949   3.827  51.173  1.00  0.00     0.152 A 
HETATM   14  C16 UNL     1      26.560   4.427  49.175  1.00  0.00     0.048 C 
HETATM   15  N3  UNL     1      24.873   2.738  51.952  1.00  0.00    -0.154 NA
HETATM   16  N4  UNL     1      24.203   5.022  51.149  1.00  0.00    -0.357 N 
HETATM   17  C12 UNL     1      24.327   6.304  51.748  1.00  0.00     0.244 C 
HETATM   18  H14 UNL     1      23.382   4.781  50.513  1.00  0.00     0.162 HD
HETATM   19  N5  UNL     1      23.356   7.179  51.081  1.00  0.00    -0.383 N 
HETATM   20  C13 UNL     1      23.762   6.651  49.825  1.00  0.00     0.080 C 
HETATM   21  H17 UNL     1      22.652   7.893  51.292  1.00  0.00     0.160 HD
HETATM   22  C14 UNL     1      24.750   6.163  49.093  1.00  0.00    -0.010 C 
HETATM   23  C15 UNL     1      26.171   5.870  49.229  1.00  0.00     0.033 C 
ENDBRANCH   4  10
ENDBRANCH   3   4
TORSDOF 3
ENDMDL
MODEL 8
REMARK VINA RESULT:      -7.0      2.193      6.776
REMARK  3 active torsions:
REMARK  status: ('A' for Active; 'I' for Inactive)
REMARK    1  A    between atoms: C2_3  and  C3_4 
REMARK    2  A    between atoms: C3_4  and  C4_5 
REMARK    3  A    between atoms: C3_4  and  N2_10 
ROOT
HETATM    1  N1  UNL     1      23.032   5.463  48.080  1.00  0.00    -0.197 NA
HETATM    2  C1  UNL     1      23.434   4.509  48.607  1.00  0.00     0.061 C 
HETATM    3  C2  UNL     1      23.960   3.322  49.261  1.00  0.00     0.151 C 
ENDROOT
BRANCH   3   4
HETATM    4  C3  UNL     1      23.353   3.040  50.587  1.00  0.00     0.126 C 
BRANCH   4   5
HETATM    5  C4  UNL     1      22.115   2.246  50.639  1.00  0.00     0.011 C 
HETATM    6  C5  UNL     1      20.822   2.960  50.809  1.00  0.00     0.007 C 
HETATM    7  C6  UNL     1      19.862   1.746  50.795  1.00  0.00     0.000 C 
HETATM    8  C7  UNL     1      20.371   1.072  49.516  1.00  0.00     0.000 C 
HETATM    9  C8  UNL     1      21.843   1.411  49.403  1.00  0.00     0.007 C 
ENDBRANCH   4   5
BRANCH   4  10
HETATM   10  N2  UNL     1      24.328   2.360  51.459  1.00  0.00    -0.272 N 
HETATM   11  C9  UNL     1      24.093   1.396  52.361  1.00  0.00     0.123 A 
HETATM   12  C10 UNL     1      25.300   1.027  52.977  1.00  0.00     0.007 A 
HETATM   13  C11 UNL     1      26.247   1.835  52.377  1.00  0.00     0.152 A 
HETATM   14  C16 UNL     1      25.347  -0.017  54.023  1.00  0.00     0.048 C 
HETATM   15  N3  UNL     1      25.613   2.608  51.483  1.00  0.00    -0.154 NA
HETATM   16  N4  UNL     1      27.603   1.742  52.750  1.00  0.00    -0.357 N 
HETATM   17  C12 UNL     1      28.424   2.346  53.739  1.00  0.00     0.244 C 
HETATM   18  H14 UNL     1      27.996   1.038  52.053  1.00  0.00     0.162 HD
HETATM   19  N5  UNL     1      29.684   1.594  53.760  1.00  0.00    -0.383 N 
HETATM   20  C13 UNL     1      28.945   0.380  53.721  1.00  0.00     0.080 C 
HETATM   21  H17 UNL     1      30.698   1.741  53.795  1.00  0.00     0.160 HD
HETATM   22  C14 UNL     1      27.844  -0.261  54.074  1.00  0.00    -0.010 C 
HETATM   23  C15 UNL     1      26.615  -0.001  54.814  1.00  0.00     0.033 C 
ENDBRANCH   4  10
ENDBRANCH   3   4
TORSDOF 3
ENDMDL
MODEL 9
REMARK VINA RESULT:      -6.8      2.454      3.928
REMARK  3 active torsions:
REMARK  status: ('A' for Active; 'I' for Inactive)
REMARK    1  A    between atoms: C2_3  and  C3_4 
REMARK    2  A    between atoms: C3_4  and  C4_5 
REMARK    3  A    between atoms: C3_4  and  N2_10 
ROOT
HETATM    1  N1  UNL     1      26.819   2.146  54.207  1.00  0.00    -0.197 NA
HETATM    2  C1  UNL     1      26.380   1.310  53.530  1.00  0.00     0.061 C 
HETATM    3  C2  UNL     1      25.844   0.248  52.696  1.00  0.00     0.151 C 
ENDROOT
BRANCH   3   4
HETATM    4  C3  UNL     1      24.388   0.362  52.427  1.00  0.00     0.126 C 
BRANCH   4   5
HETATM    5  C4  UNL     1      23.446   0.007  53.501  1.00  0.00     0.011 C 
HETATM    6  C5  UNL     1      22.220  -0.754  53.144  1.00  0.00     0.007 C 
HETATM    7  C6  UNL     1      21.588  -0.885  54.551  1.00  0.00     0.000 C 
HETATM    8  C7  UNL     1      22.812  -1.424  55.298  1.00  0.00     0.000 C 
HETATM    9  C8  UNL     1      24.031  -0.854  54.602  1.00  0.00     0.007 C 
ENDBRANCH   4   5
BRANCH   4  10
HETATM   10  N2  UNL     1      24.053   1.735  52.008  1.00  0.00    -0.272 N 
HETATM   11  C9  UNL     1      23.215   2.595  52.603  1.00  0.00     0.123 A 
HETATM   12  C10 UNL     1      23.184   3.797  51.875  1.00  0.00     0.007 A 
HETATM   13  C11 UNL     1      24.055   3.580  50.826  1.00  0.00     0.152 A 
HETATM   14  C16 UNL     1      22.336   4.933  52.296  1.00  0.00     0.048 C 
HETATM   15  N3  UNL     1      24.543   2.338  50.954  1.00  0.00    -0.154 NA
HETATM   16  N4  UNL     1      24.285   4.589  49.869  1.00  0.00    -0.357 N 
HETATM   17  C12 UNL     1      23.679   4.980  48.645  1.00  0.00     0.244 C 
HETATM   18  H14 UNL     1      25.136   5.101  50.259  1.00  0.00     0.162 HD
HETATM   19  N5  UNL     1      24.240   6.290  48.295  1.00  0.00    -0.383 N 
HETATM   20  C13 UNL     1      24.067   6.710  49.642  1.00  0.00     0.080 C 
HETATM   21  H17 UNL     1      24.616   6.806  47.493  1.00  0.00     0.160 HD
HETATM   22  C14 UNL     1      23.341   6.631  50.745  1.00  0.00    -0.010 C 
HETATM   23  C15 UNL     1      22.142   5.952  51.219  1.00  0.00     0.033 C 
ENDBRANCH   4  10
ENDBRANCH   3   4
TORSDOF 3
ENDMDL
