MODEL 1
REMARK VINA RESULT:      -7.6      0.000      0.000
REMARK  7 active torsions:
REMARK  status: ('A' for Active; 'I' for Inactive)
REMARK    1  A    between atoms: C2_2  and  N1_3 
REMARK    2  A    between atoms: C5_7  and  N3_8 
REMARK    3  A    between atoms: N3_8  and  C6_9 
REMARK    4  A    between atoms: C12_17  and  N5_18 
REMARK    5  A    between atoms: N5_18  and  C13_19 
REMARK    6  A    between atoms: C13_19  and  C14_20 
REMARK    7  A    between atoms: C14_20  and  N6_21 
ROOT
HETATM    1  N1  UNL     1      28.023   0.661  54.041  1.00  0.00    -0.340 N 
HETATM    2  C3  UNL     1      27.352  -0.161  54.886  1.00  0.00     0.211 A 
HETATM    3  N2  UNL     1      26.045   0.049  54.634  1.00  0.00    -0.238 NA
HETATM    4  C4  UNL     1      25.963   0.959  53.684  1.00  0.00     0.131 A 
HETATM    5  C5  UNL     1      24.880   1.528  52.998  1.00  0.00     0.161 A 
HETATM    6  N4  UNL     1      24.945   2.458  52.000  1.00  0.00    -0.211 NA
HETATM    7  C12 UNL     1      26.176   2.869  51.637  1.00  0.00     0.128 A 
HETATM    8  C15 UNL     1      27.264   2.350  52.248  1.00  0.00     0.082 A 
HETATM    9  C16 UNL     1      27.254   1.414  53.243  1.00  0.00     0.072 A 
ENDROOT
BRANCH   5  10
HETATM   10  N3  UNL     1      23.589   0.893  53.071  1.00  0.00    -0.339 N 
HETATM   11  H7  UNL     1      23.148   1.585  52.593  1.00  0.00     0.167 HD
BRANCH  10  12
HETATM   12  C6  UNL     1      22.405   0.261  53.177  1.00  0.00     0.035 A 
HETATM   13  C7  UNL     1      22.361  -0.757  54.171  1.00  0.00     0.029 A 
HETATM   14  C8  UNL     1      21.201  -1.477  54.487  1.00  0.00     0.004 A 
HETATM   15  C9  UNL     1      20.171  -1.072  53.740  1.00  0.00     0.024 A 
HETATM   16  C10 UNL     1      20.071  -0.147  52.793  1.00  0.00     0.036 A 
HETATM   17 CL1  UNL     1      18.651   0.310  51.864  1.00  0.00    -0.084 Cl
HETATM   18  C11 UNL     1      21.250   0.571  52.481  1.00  0.00     0.053 A 
ENDBRANCH  10  12
ENDBRANCH   5  10
BRANCH   7  19
HETATM   19  N5  UNL     1      26.385   3.869  50.639  1.00  0.00    -0.373 N 
HETATM   20  H12 UNL     1      26.297   4.834  51.048  1.00  0.00     0.161 HD
BRANCH  19  21
HETATM   21  C13 UNL     1      26.702   3.692  49.269  1.00  0.00     0.151 C 
BRANCH  21  22
HETATM   22  C14 UNL     1      27.531   4.844  48.690  1.00  0.00     0.286 C 
BRANCH  22  23
HETATM   23  N6  UNL     1      27.112   6.030  49.352  1.00  0.00     0.079 N 
HETATM   24  H17 UNL     1      27.199   6.864  48.698  1.00  0.00     0.312 HD
HETATM   25  H18 UNL     1      27.681   6.263  50.203  1.00  0.00     0.312 HD
ENDBRANCH  22  23
ENDBRANCH  21  22
ENDBRANCH  19  21
ENDBRANCH   7  19
BRANCH   1  26
HETATM   26  C2  UNL     1      29.419   0.572  53.797  1.00  0.00     0.125 C 
HETATM   27  C1  UNL     1      30.014  -0.755  53.581  1.00  0.00     0.027 C 
ENDBRANCH   1  26
TORSDOF 7
ENDMDL
MODEL 2
REMARK VINA RESULT:      -7.6      2.944      6.848
REMARK  7 active torsions:
REMARK  status: ('A' for Active; 'I' for Inactive)
REMARK    1  A    between atoms: C2_2  and  N1_3 
REMARK    2  A    between atoms: C5_7  and  N3_8 
REMARK    3  A    between atoms: N3_8  and  C6_9 
REMARK    4  A    between atoms: C12_17  and  N5_18 
REMARK    5  A    between atoms: N5_18  and  C13_19 
REMARK    6  A    between atoms: C13_19  and  C14_20 
REMARK    7  A    between atoms: C14_20  and  N6_21 
ROOT
HETATM    1  N1  UNL     1      22.486  -0.064  53.697  1.00  0.00    -0.340 N 
HETATM    2  C3  UNL     1      21.801   0.990  53.186  1.00  0.00     0.211 A 
HETATM    3  N2  UNL     1      22.730   1.783  52.617  1.00  0.00    -0.238 NA
HETATM    4  C4  UNL     1      23.905   1.214  52.796  1.00  0.00     0.131 A 
HETATM    5  C5  UNL     1      25.203   1.554  52.388  1.00  0.00     0.161 A 
HETATM    6  N4  UNL     1      26.345   0.845  52.627  1.00  0.00    -0.211 NA
HETATM    7  C12 UNL     1      26.210  -0.300  53.324  1.00  0.00     0.128 A 
HETATM    8  C15 UNL     1      24.985  -0.694  53.736  1.00  0.00     0.082 A 
HETATM    9  C16 UNL     1      23.813  -0.028  53.517  1.00  0.00     0.072 A 
ENDROOT
BRANCH   5  10
HETATM   10  N3  UNL     1      25.379   2.543  51.355  1.00  0.00    -0.339 N 
HETATM   11  H7  UNL     1      25.351   1.907  50.650  1.00  0.00     0.167 HD
BRANCH  10  12
HETATM   12  C6  UNL     1      25.555   3.507  50.431  1.00  0.00     0.035 A 
HETATM   13  C7  UNL     1      24.386   4.261  50.129  1.00  0.00     0.029 A 
HETATM   14  C8  UNL     1      24.379   5.354  49.252  1.00  0.00     0.004 A 
HETATM   15  C9  UNL     1      25.600   5.579  48.761  1.00  0.00     0.024 A 
HETATM   16  C10 UNL     1      26.760   4.965  48.954  1.00  0.00     0.036 A 
HETATM   17 CL1  UNL     1      28.325   5.347  48.249  1.00  0.00    -0.084 Cl
HETATM   18  C11 UNL     1      26.754   3.860  49.839  1.00  0.00     0.053 A 
ENDBRANCH  10  12
ENDBRANCH   5  10
BRANCH   7  19
HETATM   19  N5  UNL     1      27.328  -1.114  53.681  1.00  0.00    -0.373 N 
HETATM   20  H12 UNL     1      27.020  -1.956  54.232  1.00  0.00     0.161 HD
BRANCH  19  21
HETATM   21  C13 UNL     1      28.695  -0.921  53.362  1.00  0.00     0.151 C 
BRANCH  21  22
HETATM   22  C14 UNL     1      29.504  -2.223  53.371  1.00  0.00     0.286 C 
BRANCH  22  23
HETATM   23  N6  UNL     1      28.587  -3.283  53.135  1.00  0.00     0.079 N 
HETATM   24  H17 UNL     1      28.657  -4.008  53.911  1.00  0.00     0.312 HD
HETATM   25  H18 UNL     1      28.757  -3.798  52.236  1.00  0.00     0.312 HD
ENDBRANCH  22  23
ENDBRANCH  21  22
ENDBRANCH  19  21
ENDBRANCH   7  19
BRANCH   1  26
HETATM   26  C2  UNL     1      21.869  -1.257  54.157  1.00  0.00     0.125 C 
HETATM   27  C1  UNL     1      20.418  -1.416  53.976  1.00  0.00     0.027 C 
ENDBRANCH   1  26
TORSDOF 7
ENDMDL
MODEL 3
REMARK VINA RESULT:      -7.1      3.145      6.324
REMARK  7 active torsions:
REMARK  status: ('A' for Active; 'I' for Inactive)
REMARK    1  A    between atoms: C2_2  and  N1_3 
REMARK    2  A    between atoms: C5_7  and  N3_8 
REMARK    3  A    between atoms: N3_8  and  C6_9 
REMARK    4  A    between atoms: C12_17  and  N5_18 
REMARK    5  A    between atoms: N5_18  and  C13_19 
REMARK    6  A    between atoms: C13_19  and  C14_20 
REMARK    7  A    between atoms: C14_20  and  N6_21 
ROOT
HETATM    1  N1  UNL     1      21.355   0.220  53.013  1.00  0.00    -0.340 N 
HETATM    2  C3  UNL     1      22.107  -0.840  53.400  1.00  0.00     0.211 A 
HETATM    3  N2  UNL     1      23.378  -0.511  53.098  1.00  0.00    -0.238 NA
HETATM    4  C4  UNL     1      23.361   0.688  52.554  1.00  0.00     0.131 A 
HETATM    5  C5  UNL     1      24.375   1.542  52.093  1.00  0.00     0.161 A 
HETATM    6  N4  UNL     1      24.211   2.792  51.567  1.00  0.00    -0.211 NA
HETATM    7  C12 UNL     1      22.947   3.252  51.485  1.00  0.00     0.128 A 
HETATM    8  C15 UNL     1      21.925   2.485  51.924  1.00  0.00     0.082 A 
HETATM    9  C16 UNL     1      22.034   1.236  52.464  1.00  0.00     0.072 A 
ENDROOT
BRANCH   5  10
HETATM   10  N3  UNL     1      25.740   1.282  52.472  1.00  0.00    -0.339 N 
HETATM   11  H7  UNL     1      26.034   1.157  51.577  1.00  0.00     0.167 HD
BRANCH  10  12
HETATM   12  C6  UNL     1      26.999   1.037  52.882  1.00  0.00     0.035 A 
HETATM   13  C7  UNL     1      27.695   2.175  53.377  1.00  0.00     0.029 A 
HETATM   14  C8  UNL     1      28.986   2.114  53.919  1.00  0.00     0.004 A 
HETATM   15  C9  UNL     1      29.449   0.861  53.907  1.00  0.00     0.024 A 
HETATM   16  C10 UNL     1      28.915  -0.277  53.484  1.00  0.00     0.036 A 
HETATM   17 CL1  UNL     1      29.620  -1.888  53.515  1.00  0.00    -0.084 Cl
HETATM   18  C11 UNL     1      27.612  -0.202  52.935  1.00  0.00     0.053 A 
ENDBRANCH  10  12
ENDBRANCH   5  10
BRANCH   7  19
HETATM   19  N5  UNL     1      22.632   4.523  50.915  1.00  0.00    -0.373 N 
HETATM   20  H12 UNL     1      21.611   4.746  51.035  1.00  0.00     0.161 HD
BRANCH  19  21
HETATM   21  C13 UNL     1      23.503   5.445  50.282  1.00  0.00     0.151 C 
BRANCH  21  22
HETATM   22  C14 UNL     1      23.547   6.807  50.982  1.00  0.00     0.286 C 
BRANCH  22  23
HETATM   23  N6  UNL     1      24.404   6.668  52.108  1.00  0.00     0.079 N 
HETATM   24  H17 UNL     1      25.421   6.700  51.799  1.00  0.00     0.312 HD
HETATM   25  H18 UNL     1      24.281   5.763  52.624  1.00  0.00     0.312 HD
ENDBRANCH  22  23
ENDBRANCH  21  22
ENDBRANCH  19  21
ENDBRANCH   7  19
BRANCH   1  26
HETATM   26  C2  UNL     1      19.995   0.398  53.381  1.00  0.00     0.125 C 
HETATM   27  C1  UNL     1      18.979  -0.472  52.769  1.00  0.00     0.027 C 
ENDBRANCH   1  26
TORSDOF 7
ENDMDL
MODEL 4
REMARK VINA RESULT:      -6.9      1.854      2.118
REMARK  7 active torsions:
REMARK  status: ('A' for Active; 'I' for Inactive)
REMARK    1  A    between atoms: C2_2  and  N1_3 
REMARK    2  A    between atoms: C5_7  and  N3_8 
REMARK    3  A    between atoms: N3_8  and  C6_9 
REMARK    4  A    between atoms: C12_17  and  N5_18 
REMARK    5  A    between atoms: N5_18  and  C13_19 
REMARK    6  A    between atoms: C13_19  and  C14_20 
REMARK    7  A    between atoms: C14_20  and  N6_21 
ROOT
HETATM    1  N1  UNL     1      26.459   0.069  53.330  1.00  0.00    -0.340 N 
HETATM    2  C3  UNL     1      25.681  -0.893  53.886  1.00  0.00     0.211 A 
HETATM    3  N2  UNL     1      24.411  -0.510  53.655  1.00  0.00    -0.238 NA
HETATM    4  C4  UNL     1      24.452   0.631  52.996  1.00  0.00     0.131 A 
HETATM    5  C5  UNL     1      23.456   1.459  52.458  1.00  0.00     0.161 A 
HETATM    6  N4  UNL     1      23.648   2.620  51.764  1.00  0.00    -0.211 NA
HETATM    7  C12 UNL     1      24.925   3.007  51.576  1.00  0.00     0.128 A 
HETATM    8  C15 UNL     1      25.934   2.247  52.057  1.00  0.00     0.082 A 
HETATM    9  C16 UNL     1      25.797   1.077  52.748  1.00  0.00     0.072 A 
ENDROOT
BRANCH   5  10
HETATM   10  N3  UNL     1      22.120   0.943  52.302  1.00  0.00    -0.339 N 
HETATM   11  H7  UNL     1      21.876   1.587  51.647  1.00  0.00     0.167 HD
BRANCH  10  12
HETATM   12  C6  UNL     1      20.880   0.426  52.203  1.00  0.00     0.035 A 
HETATM   13  C7  UNL     1      20.455  -0.320  53.338  1.00  0.00     0.029 A 
HETATM   14  C8  UNL     1      19.173  -0.873  53.461  1.00  0.00     0.004 A 
HETATM   15  C9  UNL     1      18.430  -0.597  52.386  1.00  0.00     0.024 A 
HETATM   16  C10 UNL     1      18.695   0.078  51.274  1.00  0.00     0.036 A 
HETATM   17 CL1  UNL     1      17.632   0.383  49.907  1.00  0.00    -0.084 Cl
HETATM   18  C11 UNL     1      19.994   0.628  51.160  1.00  0.00     0.053 A 
ENDBRANCH  10  12
ENDBRANCH   5  10
BRANCH   7  19
HETATM   19  N5  UNL     1      25.265   4.221  50.907  1.00  0.00    -0.373 N 
HETATM   20  H12 UNL     1      26.308   4.331  50.832  1.00  0.00     0.161 HD
BRANCH  19  21
HETATM   21  C13 UNL     1      24.396   5.196  50.355  1.00  0.00     0.151 C 
BRANCH  21  22
HETATM   22  C14 UNL     1      24.850   6.633  50.633  1.00  0.00     0.286 C 
BRANCH  22  23
HETATM   23  N6  UNL     1      24.441   6.948  51.958  1.00  0.00     0.079 N 
HETATM   24  H17 UNL     1      23.929   7.881  51.970  1.00  0.00     0.312 HD
HETATM   25  H18 UNL     1      25.236   7.041  52.636  1.00  0.00     0.312 HD
ENDBRANCH  22  23
ENDBRANCH  21  22
ENDBRANCH  19  21
ENDBRANCH   7  19
BRANCH   1  26
HETATM   26  C2  UNL     1      27.857  -0.070  53.123  1.00  0.00     0.125 C 
HETATM   27  C1  UNL     1      28.757   0.048  54.281  1.00  0.00     0.027 C 
ENDBRANCH   1  26
TORSDOF 7
ENDMDL
MODEL 5
REMARK VINA RESULT:      -6.9      3.229      7.334
REMARK  7 active torsions:
REMARK  status: ('A' for Active; 'I' for Inactive)
REMARK    1  A    between atoms: C2_2  and  N1_3 
REMARK    2  A    between atoms: C5_7  and  N3_8 
REMARK    3  A    between atoms: N3_8  and  C6_9 
REMARK    4  A    between atoms: C12_17  and  N5_18 
REMARK    5  A    between atoms: N5_18  and  C13_19 
REMARK    6  A    between atoms: C13_19  and  C14_20 
REMARK    7  A    between atoms: C14_20  and  N6_21 
ROOT
HETATM    1  N1  UNL     1      23.139   3.245  49.447  1.00  0.00    -0.340 N 
HETATM    2  C3  UNL     1      24.393   3.761  49.391  1.00  0.00     0.211 A 
HETATM    3  N2  UNL     1      25.079   3.151  50.376  1.00  0.00    -0.238 NA
HETATM    4  C4  UNL     1      24.256   2.319  50.981  1.00  0.00     0.131 A 
HETATM    5  C5  UNL     1      24.424   1.401  52.028  1.00  0.00     0.161 A 
HETATM    6  N4  UNL     1      23.471   0.570  52.545  1.00  0.00    -0.211 NA
HETATM    7  C12 UNL     1      22.246   0.637  51.989  1.00  0.00     0.128 A 
HETATM    8  C15 UNL     1      22.019   1.491  50.966  1.00  0.00     0.082 A 
HETATM    9  C16 UNL     1      22.936   2.335  50.408  1.00  0.00     0.072 A 
ENDROOT
BRANCH   5  10
HETATM   10  N3  UNL     1      25.756   1.017  52.420  1.00  0.00    -0.339 N 
HETATM   11  H7  UNL     1      25.940   0.571  51.601  1.00  0.00     0.167 HD
BRANCH  10  12
HETATM   12  C6  UNL     1      26.989   0.677  52.840  1.00  0.00     0.035 A 
HETATM   13  C7  UNL     1      27.741   1.744  53.406  1.00  0.00     0.029 A 
HETATM   14  C8  UNL     1      29.014   1.579  53.968  1.00  0.00     0.004 A 
HETATM   15  C9  UNL     1      29.402   0.303  53.900  1.00  0.00     0.024 A 
HETATM   16  C10 UNL     1      28.811  -0.778  53.408  1.00  0.00     0.036 A 
HETATM   17 CL1  UNL     1      29.419  -2.428  53.369  1.00  0.00    -0.084 Cl
HETATM   18  C11 UNL     1      27.528  -0.598  52.840  1.00  0.00     0.053 A 
ENDBRANCH  10  12
ENDBRANCH   5  10
BRANCH   7  19
HETATM   19  N5  UNL     1      21.148  -0.144  52.462  1.00  0.00    -0.373 N 
HETATM   20  H12 UNL     1      20.716  -0.699  51.680  1.00  0.00     0.161 HD
BRANCH  19  21
HETATM   21  C13 UNL     1      20.649  -0.252  53.785  1.00  0.00     0.151 C 
BRANCH  21  22
HETATM   22  C14 UNL     1      21.128  -1.517  54.506  1.00  0.00     0.286 C 
BRANCH  22  23
HETATM   23  N6  UNL     1      22.501  -1.322  54.818  1.00  0.00     0.079 N 
HETATM   24  H17 UNL     1      22.622  -1.181  55.865  1.00  0.00     0.312 HD
HETATM   25  H18 UNL     1      22.925  -0.480  54.357  1.00  0.00     0.312 HD
ENDBRANCH  22  23
ENDBRANCH  21  22
ENDBRANCH  19  21
ENDBRANCH   7  19
BRANCH   1  26
HETATM   26  C2  UNL     1      22.167   3.425  48.428  1.00  0.00     0.125 C 
HETATM   27  C1  UNL     1      22.280   2.629  47.197  1.00  0.00     0.027 C 
ENDBRANCH   1  26
TORSDOF 7
ENDMDL
MODEL 6
REMARK VINA RESULT:      -6.9      1.557      2.190
REMARK  7 active torsions:
REMARK  status: ('A' for Active; 'I' for Inactive)
REMARK    1  A    between atoms: C2_2  and  N1_3 
REMARK    2  A    between atoms: C5_7  and  N3_8 
REMARK    3  A    between atoms: N3_8  and  C6_9 
REMARK    4  A    between atoms: C12_17  and  N5_18 
REMARK    5  A    between atoms: N5_18  and  C13_19 
REMARK    6  A    between atoms: C13_19  and  C14_20 
REMARK    7  A    between atoms: C14_20  and  N6_21 
ROOT
HETATM    1  N1  UNL     1      26.810  -0.101  53.224  1.00  0.00    -0.340 N 
HETATM    2  C3  UNL     1      25.815  -0.850  53.761  1.00  0.00     0.211 A 
HETATM    3  N2  UNL     1      24.668  -0.285  53.338  1.00  0.00    -0.238 NA
HETATM    4  C4  UNL     1      24.987   0.752  52.589  1.00  0.00     0.131 A 
HETATM    5  C5  UNL     1      24.222   1.672  51.857  1.00  0.00     0.161 A 
HETATM    6  N4  UNL     1      24.695   2.699  51.091  1.00  0.00    -0.211 NA
HETATM    7  C12 UNL     1      26.034   2.840  51.031  1.00  0.00     0.128 A 
HETATM    8  C15 UNL     1      26.830   1.979  51.703  1.00  0.00     0.082 A 
HETATM    9  C16 UNL     1      26.409   0.933  52.473  1.00  0.00     0.072 A 
ENDROOT
BRANCH   5  10
HETATM   10  N3  UNL     1      22.839   1.376  51.581  1.00  0.00    -0.339 N 
HETATM   11  H7  UNL     1      22.910   1.586  50.657  1.00  0.00     0.167 HD
BRANCH  10  12
HETATM   12  C6  UNL     1      21.538   1.095  51.380  1.00  0.00     0.035 A 
HETATM   13  C7  UNL     1      21.019   1.540  50.132  1.00  0.00     0.029 A 
HETATM   14  C8  UNL     1      19.710   1.280  49.703  1.00  0.00     0.004 A 
HETATM   15  C9  UNL     1      19.044   0.566  50.613  1.00  0.00     0.024 A 
HETATM   16  C10 UNL     1      19.399   0.089  51.799  1.00  0.00     0.036 A 
HETATM   17 CL1  UNL     1      18.432  -0.849  52.929  1.00  0.00    -0.084 Cl
HETATM   18  C11 UNL     1      20.722   0.362  52.223  1.00  0.00     0.053 A 
ENDBRANCH  10  12
ENDBRANCH   5  10
BRANCH   7  19
HETATM   19  N5  UNL     1      26.659   3.898  50.303  1.00  0.00    -0.373 N 
HETATM   20  H12 UNL     1      27.704   3.775  50.284  1.00  0.00     0.161 HD
BRANCH  19  21
HETATM   21  C13 UNL     1      26.048   4.989  49.636  1.00  0.00     0.151 C 
BRANCH  21  22
HETATM   22  C14 UNL     1      26.977   5.672  48.626  1.00  0.00     0.286 C 
BRANCH  22  23
HETATM   23  N6  UNL     1      28.310   5.397  49.036  1.00  0.00     0.079 N 
HETATM   24  H17 UNL     1      28.394   5.489  50.093  1.00  0.00     0.312 HD
HETATM   25  H18 UNL     1      29.022   6.051  48.627  1.00  0.00     0.312 HD
ENDBRANCH  22  23
ENDBRANCH  21  22
ENDBRANCH  19  21
ENDBRANCH   7  19
BRANCH   1  26
HETATM   26  C2  UNL     1      28.174  -0.497  53.208  1.00  0.00     0.125 C 
HETATM   27  C1  UNL     1      29.110   0.162  54.131  1.00  0.00     0.027 C 
ENDBRANCH   1  26
TORSDOF 7
ENDMDL
MODEL 7
REMARK VINA RESULT:      -6.7      3.345      6.016
REMARK  7 active torsions:
REMARK  status: ('A' for Active; 'I' for Inactive)
REMARK    1  A    between atoms: C2_2  and  N1_3 
REMARK    2  A    between atoms: C5_7  and  N3_8 
REMARK    3  A    between atoms: N3_8  and  C6_9 
REMARK    4  A    between atoms: C12_17  and  N5_18 
REMARK    5  A    between atoms: N5_18  and  C13_19 
REMARK    6  A    between atoms: C13_19  and  C14_20 
REMARK    7  A    between atoms: C14_20  and  N6_21 
ROOT
HETATM    1  N1  UNL     1      22.340   4.296  48.015  1.00  0.00    -0.340 N 
HETATM    2  C3  UNL     1      21.832   3.044  48.141  1.00  0.00     0.211 A 
HETATM    3  N2  UNL     1      22.667   2.397  48.976  1.00  0.00    -0.238 NA
HETATM    4  C4  UNL     1      23.622   3.238  49.317  1.00  0.00     0.131 A 
HETATM    5  C5  UNL     1      24.722   3.136  50.183  1.00  0.00     0.161 A 
HETATM    6  N4  UNL     1      25.631   4.115  50.465  1.00  0.00    -0.211 NA
HETATM    7  C12 UNL     1      25.452   5.300  49.850  1.00  0.00     0.128 A 
HETATM    8  C15 UNL     1      24.405   5.471  49.014  1.00  0.00     0.082 A 
HETATM    9  C16 UNL     1      23.464   4.530  48.705  1.00  0.00     0.072 A 
ENDROOT
BRANCH   5  10
HETATM   10  N3  UNL     1      24.771   2.052  51.131  1.00  0.00    -0.339 N 
HETATM   11  H7  UNL     1      23.885   1.762  50.946  1.00  0.00     0.167 HD
BRANCH  10  12
HETATM   12  C6  UNL     1      24.868   1.061  52.037  1.00  0.00     0.035 A 
HETATM   13  C7  UNL     1      26.185   0.557  52.228  1.00  0.00     0.029 A 
HETATM   14  C8  UNL     1      26.506  -0.422  53.179  1.00  0.00     0.004 A 
HETATM   15  C9  UNL     1      25.422  -0.794  53.863  1.00  0.00     0.024 A 
HETATM   16  C10 UNL     1      24.153  -0.412  53.792  1.00  0.00     0.036 A 
HETATM   17 CL1  UNL     1      22.791  -0.974  54.752  1.00  0.00    -0.084 Cl
HETATM   18  C11 UNL     1      23.841   0.574  52.826  1.00  0.00     0.053 A 
ENDBRANCH  10  12
ENDBRANCH   5  10
BRANCH   7  19
HETATM   19  N5  UNL     1      26.354   6.394  50.022  1.00  0.00    -0.373 N 
HETATM   20  H12 UNL     1      27.353   6.066  49.998  1.00  0.00     0.161 HD
BRANCH  19  21
HETATM   21  C13 UNL     1      26.050   7.769  50.180  1.00  0.00     0.151 C 
BRANCH  21  22
HETATM   22  C14 UNL     1      27.191   8.692  49.738  1.00  0.00     0.286 C 
BRANCH  22  23
HETATM   23  N6  UNL     1      27.668   9.351  50.904  1.00  0.00     0.079 N 
HETATM   24  H17 UNL     1      28.634   8.987  51.160  1.00  0.00     0.312 HD
HETATM   25  H18 UNL     1      27.064   9.204  51.749  1.00  0.00     0.312 HD
ENDBRANCH  22  23
ENDBRANCH  21  22
ENDBRANCH  19  21
ENDBRANCH   7  19
BRANCH   1  26
HETATM   26  C2  UNL     1      21.633   5.379  47.430  1.00  0.00     0.125 C 
HETATM   27  C1  UNL     1      22.043   5.852  46.099  1.00  0.00     0.027 C 
ENDBRANCH   1  26
TORSDOF 7
ENDMDL
MODEL 8
REMARK VINA RESULT:      -6.7      3.833      6.216
REMARK  7 active torsions:
REMARK  status: ('A' for Active; 'I' for Inactive)
REMARK    1  A    between atoms: C2_2  and  N1_3 
REMARK    2  A    between atoms: C5_7  and  N3_8 
REMARK    3  A    between atoms: N3_8  and  C6_9 
REMARK    4  A    between atoms: C12_17  and  N5_18 
REMARK    5  A    between atoms: N5_18  and  C13_19 
REMARK    6  A    between atoms: C13_19  and  C14_20 
REMARK    7  A    between atoms: C14_20  and  N6_21 
ROOT
HETATM    1  N1  UNL     1      23.359   5.195  50.340  1.00  0.00    -0.340 N 
HETATM    2  C3  UNL     1      22.805   4.375  51.268  1.00  0.00     0.211 A 
HETATM    3  N2  UNL     1      23.757   3.469  51.564  1.00  0.00    -0.238 NA
HETATM    4  C4  UNL     1      24.817   3.750  50.833  1.00  0.00     0.131 A 
HETATM    5  C5  UNL     1      26.099   3.187  50.755  1.00  0.00     0.161 A 
HETATM    6  N4  UNL     1      27.126   3.605  49.957  1.00  0.00    -0.211 NA
HETATM    7  C12 UNL     1      26.882   4.669  49.167  1.00  0.00     0.128 A 
HETATM    8  C15 UNL     1      25.671   5.268  49.204  1.00  0.00     0.082 A 
HETATM    9  C16 UNL     1      24.616   4.896  49.987  1.00  0.00     0.072 A 
ENDROOT
BRANCH   5  10
HETATM   10  N3  UNL     1      26.544   2.302  51.801  1.00  0.00    -0.339 N 
HETATM   11  H7  UNL     1      25.736   1.803  51.813  1.00  0.00     0.167 HD
BRANCH  10  12
HETATM   12  C6  UNL     1      27.006   1.509  52.786  1.00  0.00     0.035 A 
HETATM   13  C7  UNL     1      26.123   1.361  53.893  1.00  0.00     0.029 A 
HETATM   14  C8  UNL     1      26.386   0.520  54.983  1.00  0.00     0.004 A 
HETATM   15  C9  UNL     1      27.554  -0.107  54.829  1.00  0.00     0.024 A 
HETATM   16  C10 UNL     1      28.463  -0.065  53.863  1.00  0.00     0.036 A 
HETATM   17 CL1  UNL     1      29.984  -0.942  53.760  1.00  0.00    -0.084 Cl
HETATM   18  C11 UNL     1      28.188   0.790  52.769  1.00  0.00     0.053 A 
ENDBRANCH  10  12
ENDBRANCH   5  10
BRANCH   7  19
HETATM   19  N5  UNL     1      27.853   5.181  48.253  1.00  0.00    -0.373 N 
HETATM   20  H12 UNL     1      28.103   4.463  47.527  1.00  0.00     0.161 HD
BRANCH  19  21
HETATM   21  C13 UNL     1      28.438   6.472  48.223  1.00  0.00     0.151 C 
BRANCH  21  22
HETATM   22  C14 UNL     1      29.962   6.437  48.070  1.00  0.00     0.286 C 
BRANCH  22  23
HETATM   23  N6  UNL     1      30.505   6.216  49.365  1.00  0.00     0.079 N 
HETATM   24  H17 UNL     1      30.216   7.002  50.021  1.00  0.00     0.312 HD
HETATM   25  H18 UNL     1      31.554   6.187  49.384  1.00  0.00     0.312 HD
ENDBRANCH  22  23
ENDBRANCH  21  22
ENDBRANCH  19  21
ENDBRANCH   7  19
BRANCH   1  26
HETATM   26  C2  UNL     1      22.791   6.435  49.944  1.00  0.00     0.125 C 
HETATM   27  C1  UNL     1      23.257   7.666  50.601  1.00  0.00     0.027 C 
ENDBRANCH   1  26
TORSDOF 7
ENDMDL
MODEL 9
REMARK VINA RESULT:      -6.5      3.176      5.787
REMARK  7 active torsions:
REMARK  status: ('A' for Active; 'I' for Inactive)
REMARK    1  A    between atoms: C2_2  and  N1_3 
REMARK    2  A    between atoms: C5_7  and  N3_8 
REMARK    3  A    between atoms: N3_8  and  C6_9 
REMARK    4  A    between atoms: C12_17  and  N5_18 
REMARK    5  A    between atoms: N5_18  and  C13_19 
REMARK    6  A    between atoms: C13_19  and  C14_20 
REMARK    7  A    between atoms: C14_20  and  N6_21 
ROOT
HETATM    1  N1  UNL     1      22.959   6.248  50.570  1.00  0.00    -0.340 N 
HETATM    2  C3  UNL     1      22.106   5.418  51.222  1.00  0.00     0.211 A 
HETATM    3  N2  UNL     1      22.746   4.237  51.310  1.00  0.00    -0.238 NA
HETATM    4  C4  UNL     1      23.921   4.376  50.728  1.00  0.00     0.131 A 
HETATM    5  C5  UNL     1      25.011   3.509  50.560  1.00  0.00     0.161 A 
HETATM    6  N4  UNL     1      26.197   3.801  49.948  1.00  0.00    -0.211 NA
HETATM    7  C12 UNL     1      26.333   5.048  49.458  1.00  0.00     0.128 A 
HETATM    8  C15 UNL     1      25.325   5.938  49.599  1.00  0.00     0.082 A 
HETATM    9  C16 UNL     1      24.126   5.701  50.207  1.00  0.00     0.072 A 
ENDROOT
BRANCH   5  10
HETATM   10  N3  UNL     1      25.085   2.309  51.353  1.00  0.00    -0.339 N 
HETATM   11  H7  UNL     1      24.385   2.574  51.939  1.00  0.00     0.167 HD
BRANCH  10  12
HETATM   12  C6  UNL     1      25.203   1.174  52.067  1.00  0.00     0.035 A 
HETATM   13  C7  UNL     1      26.452   0.507  51.922  1.00  0.00     0.029 A 
HETATM   14  C8  UNL     1      26.798  -0.647  52.637  1.00  0.00     0.004 A 
HETATM   15  C9  UNL     1      25.810  -1.014  53.457  1.00  0.00     0.024 A 
HETATM   16  C10 UNL     1      24.613  -0.493  53.690  1.00  0.00     0.036 A 
HETATM   17 CL1  UNL     1      23.376  -1.063  54.802  1.00  0.00    -0.084 Cl
HETATM   18  C11 UNL     1      24.273   0.671  52.959  1.00  0.00     0.053 A 
ENDBRANCH  10  12
ENDBRANCH   5  10
BRANCH   7  19
HETATM   19  N5  UNL     1      27.503   5.471  48.757  1.00  0.00    -0.373 N 
HETATM   20  H12 UNL     1      28.131   4.655  48.545  1.00  0.00     0.161 HD
BRANCH  19  21
HETATM   21  C13 UNL     1      27.851   6.778  48.332  1.00  0.00     0.151 C 
BRANCH  21  22
HETATM   22  C14 UNL     1      29.358   6.960  48.120  1.00  0.00     0.286 C 
BRANCH  22  23
HETATM   23  N6  UNL     1      30.013   6.048  48.992  1.00  0.00     0.079 N 
HETATM   24  H17 UNL     1      29.528   6.034  49.939  1.00  0.00     0.312 HD
HETATM   25  H18 UNL     1      31.017   6.289  49.179  1.00  0.00     0.312 HD
ENDBRANCH  22  23
ENDBRANCH  21  22
ENDBRANCH  19  21
ENDBRANCH   7  19
BRANCH   1  26
HETATM   26  C2  UNL     1      22.784   7.655  50.492  1.00  0.00     0.125 C 
HETATM   27  C1  UNL     1      21.663   8.184  49.700  1.00  0.00     0.027 C 
ENDBRANCH   1  26
TORSDOF 7
ENDMDL
