MODEL 1
REMARK VINA RESULT:      -7.2      0.000      0.000
REMARK  7 active torsions:
REMARK  status: ('A' for Active; 'I' for Inactive)
REMARK    1  A    between atoms: O1_2  and  C2_3 
REMARK    2  A    between atoms: C6_9  and  O2_10 
REMARK    3  A    between atoms: O2_10  and  C7_11 
REMARK    4  A    between atoms: C7_11  and  C8_12 
REMARK    5  A    between atoms: C9_13  and  C10_14 
REMARK    6  A    between atoms: C10_14  and  N3_15 
REMARK       I    between atoms: N3_15  and  C11_16 
REMARK    7  A    between atoms: C15_21  and  O4_22 
ROOT
HETATM    1  C2  UNL     1      27.002  -0.172  53.653  1.00  0.00     0.103 A 
HETATM    2  C3  UNL     1      25.755  -0.727  53.857  1.00  0.00     0.072 A 
HETATM    3  C4  UNL     1      24.675  -0.030  53.357  1.00  0.00     0.075 A 
HETATM    4  N1  UNL     1      23.461  -0.585  53.564  1.00  0.00    -0.241 NA
HETATM    5  C5  UNL     1      22.327  -0.008  53.128  1.00  0.00     0.236 A 
HETATM    6  N2  UNL     1      22.370   1.159  52.462  1.00  0.00    -0.217 NA
HETATM    7  C6  UNL     1      23.560   1.782  52.216  1.00  0.00     0.178 A 
HETATM    8  C13 UNL     1      24.733   1.170  52.674  1.00  0.00     0.048 A 
HETATM    9  C14 UNL     1      26.008   1.691  52.493  1.00  0.00     0.057 A 
HETATM   10  C15 UNL     1      27.117   1.027  52.976  1.00  0.00     0.102 A 
ENDROOT
BRANCH   7  11
HETATM   11  O2  UNL     1      23.820   2.963  51.560  1.00  0.00    -0.330 OA
BRANCH  11  12
HETATM   12  C7  UNL     1      23.566   3.229  50.197  1.00  0.00     0.204 C 
BRANCH  12  13
HETATM   13  C8  UNL     1      24.859   3.468  49.517  1.00  0.00    -0.003 C 
HETATM   14  C9  UNL     1      26.004   4.117  49.650  1.00  0.00    -0.009 C 
BRANCH  14  15
HETATM   15  C10 UNL     1      27.284   4.322  48.922  1.00  0.00     0.149 C 
BRANCH  15  16
HETATM   16  N3  UNL     1      27.717   5.697  48.912  1.00  0.00    -0.358 N 
HETATM   17  C11 UNL     1      29.039   5.841  48.395  1.00  0.00     0.213 C 
HETATM   18  C12 UNL     1      29.683   7.186  48.293  1.00  0.00     0.117 C 
HETATM   19  O3  UNL     1      29.872   4.992  47.958  1.00  0.00    -0.274 OA
HETATM   20  H12 UNL     1      27.251   6.581  49.208  1.00  0.00     0.162 HD
ENDBRANCH  15  16
ENDBRANCH  14  15
ENDBRANCH  12  13
ENDBRANCH  11  12
ENDBRANCH   7  11
BRANCH  10  21
HETATM   21  O4  UNL     1      28.380   1.572  52.781  1.00  0.00    -0.353 OA
HETATM   22  C16 UNL     1      28.847   2.501  53.746  1.00  0.00     0.210 C 
ENDBRANCH  10  21
BRANCH   1  23
HETATM   23  O1  UNL     1      28.155  -0.784  54.111  1.00  0.00    -0.353 OA
HETATM   24  C1  UNL     1      28.875  -1.652  53.260  1.00  0.00     0.210 C 
ENDBRANCH   1  23
TORSDOF 7
ENDMDL
MODEL 2
REMARK VINA RESULT:      -7.0      2.608      3.620
REMARK  7 active torsions:
REMARK  status: ('A' for Active; 'I' for Inactive)
REMARK    1  A    between atoms: O1_2  and  C2_3 
REMARK    2  A    between atoms: C6_9  and  O2_10 
REMARK    3  A    between atoms: O2_10  and  C7_11 
REMARK    4  A    between atoms: C7_11  and  C8_12 
REMARK    5  A    between atoms: C9_13  and  C10_14 
REMARK    6  A    between atoms: C10_14  and  N3_15 
REMARK       I    between atoms: N3_15  and  C11_16 
REMARK    7  A    between atoms: C15_21  and  O4_22 
ROOT
HETATM    1  C2  UNL     1      27.413   0.725  53.464  1.00  0.00     0.103 A 
HETATM    2  C3  UNL     1      26.863  -0.042  54.470  1.00  0.00     0.072 A 
HETATM    3  C4  UNL     1      25.514  -0.318  54.373  1.00  0.00     0.075 A 
HETATM    4  N1  UNL     1      24.989  -1.069  55.365  1.00  0.00    -0.241 NA
HETATM    5  C5  UNL     1      23.688  -1.410  55.392  1.00  0.00     0.236 A 
HETATM    6  N2  UNL     1      22.858  -1.004  54.415  1.00  0.00    -0.217 NA
HETATM    7  C6  UNL     1      23.316  -0.239  53.379  1.00  0.00     0.178 A 
HETATM    8  C13 UNL     1      24.673   0.107  53.364  1.00  0.00     0.048 A 
HETATM    9  C14 UNL     1      25.271   0.877  52.374  1.00  0.00     0.057 A 
HETATM   10  C15 UNL     1      26.617   1.176  52.429  1.00  0.00     0.102 A 
ENDROOT
BRANCH   7  11
HETATM   11  O2  UNL     1      22.643   0.272  52.294  1.00  0.00    -0.330 OA
BRANCH  11  12
HETATM   12  C7  UNL     1      21.418   0.973  52.333  1.00  0.00     0.204 C 
BRANCH  12  13
HETATM   13  C8  UNL     1      21.706   2.410  52.539  1.00  0.00    -0.003 C 
HETATM   14  C9  UNL     1      22.541   3.370  52.176  1.00  0.00    -0.009 C 
BRANCH  14  15
HETATM   15  C10 UNL     1      22.783   4.817  52.420  1.00  0.00     0.149 C 
BRANCH  15  16
HETATM   16  N3  UNL     1      24.075   5.260  51.960  1.00  0.00    -0.358 N 
HETATM   17  C11 UNL     1      23.985   6.438  51.159  1.00  0.00     0.213 C 
HETATM   18  C12 UNL     1      25.210   7.070  50.581  1.00  0.00     0.117 C 
HETATM   19  O3  UNL     1      22.994   7.138  50.794  1.00  0.00    -0.274 OA
HETATM   20  H12 UNL     1      25.037   4.886  52.102  1.00  0.00     0.162 HD
ENDBRANCH  15  16
ENDBRANCH  14  15
ENDBRANCH  12  13
ENDBRANCH  11  12
ENDBRANCH   7  11
BRANCH  10  21
HETATM   21  O4  UNL     1      27.188   1.949  51.425  1.00  0.00    -0.353 OA
HETATM   22  C16 UNL     1      26.324   2.786  50.674  1.00  0.00     0.210 C 
ENDBRANCH  10  21
BRANCH   1  23
HETATM   23  O1  UNL     1      28.755   1.063  53.458  1.00  0.00    -0.353 OA
HETATM   24  C1  UNL     1      29.732   0.068  53.692  1.00  0.00     0.210 C 
ENDBRANCH   1  23
TORSDOF 7
ENDMDL
MODEL 3
REMARK VINA RESULT:      -7.0      3.705      6.612
REMARK  7 active torsions:
REMARK  status: ('A' for Active; 'I' for Inactive)
REMARK    1  A    between atoms: O1_2  and  C2_3 
REMARK    2  A    between atoms: C6_9  and  O2_10 
REMARK    3  A    between atoms: O2_10  and  C7_11 
REMARK    4  A    between atoms: C7_11  and  C8_12 
REMARK    5  A    between atoms: C9_13  and  C10_14 
REMARK    6  A    between atoms: C10_14  and  N3_15 
REMARK       I    between atoms: N3_15  and  C11_16 
REMARK    7  A    between atoms: C15_21  and  O4_22 
ROOT
HETATM    1  C2  UNL     1      19.475  -0.512  52.902  1.00  0.00     0.103 A 
HETATM    2  C3  UNL     1      19.159   0.104  51.708  1.00  0.00     0.072 A 
HETATM    3  C4  UNL     1      20.192   0.724  51.036  1.00  0.00     0.075 A 
HETATM    4  N1  UNL     1      19.868   1.323  49.870  1.00  0.00    -0.241 NA
HETATM    5  C5  UNL     1      20.780   1.963  49.117  1.00  0.00     0.236 A 
HETATM    6  N2  UNL     1      22.064   2.026  49.511  1.00  0.00    -0.217 NA
HETATM    7  C6  UNL     1      22.468   1.445  50.680  1.00  0.00     0.178 A 
HETATM    8  C13 UNL     1      21.507   0.782  51.453  1.00  0.00     0.048 A 
HETATM    9  C14 UNL     1      21.779   0.149  52.660  1.00  0.00     0.057 A 
HETATM   10  C15 UNL     1      20.776  -0.484  53.366  1.00  0.00     0.102 A 
ENDROOT
BRANCH   7  11
HETATM   11  O2  UNL     1      23.716   1.394  51.256  1.00  0.00    -0.330 OA
BRANCH  11  12
HETATM   12  C7  UNL     1      24.359   2.451  51.937  1.00  0.00     0.204 C 
BRANCH  12  13
HETATM   13  C8  UNL     1      25.192   1.875  53.016  1.00  0.00    -0.003 C 
HETATM   14  C9  UNL     1      25.424   0.746  53.666  1.00  0.00    -0.009 C 
BRANCH  14  15
HETATM   15  C10 UNL     1      26.287   0.221  54.758  1.00  0.00     0.149 C 
BRANCH  15  16
HETATM   16  N3  UNL     1      27.381  -0.584  54.278  1.00  0.00    -0.358 N 
HETATM   17  C11 UNL     1      28.617   0.130  54.284  1.00  0.00     0.213 C 
HETATM   18  C12 UNL     1      29.883  -0.520  53.827  1.00  0.00     0.117 C 
HETATM   19  O3  UNL     1      28.907   1.314  54.630  1.00  0.00    -0.274 OA
HETATM   20  H12 UNL     1      27.432  -1.566  53.934  1.00  0.00     0.162 HD
ENDBRANCH  15  16
ENDBRANCH  14  15
ENDBRANCH  12  13
ENDBRANCH  11  12
ENDBRANCH   7  11
BRANCH  10  21
HETATM   21  O4  UNL     1      21.076  -1.109  54.570  1.00  0.00    -0.353 OA
HETATM   22  C16 UNL     1      22.441  -1.169  54.953  1.00  0.00     0.210 C 
ENDBRANCH  10  21
BRANCH   1  23
HETATM   23  O1  UNL     1      18.519  -1.164  53.660  1.00  0.00    -0.353 OA
HETATM   24  C1  UNL     1      17.323  -1.609  53.051  1.00  0.00     0.210 C 
ENDBRANCH   1  23
TORSDOF 7
ENDMDL
MODEL 4
REMARK VINA RESULT:      -6.9      3.264      7.535
REMARK  7 active torsions:
REMARK  status: ('A' for Active; 'I' for Inactive)
REMARK    1  A    between atoms: O1_2  and  C2_3 
REMARK    2  A    between atoms: C6_9  and  O2_10 
REMARK    3  A    between atoms: O2_10  and  C7_11 
REMARK    4  A    between atoms: C7_11  and  C8_12 
REMARK    5  A    between atoms: C9_13  and  C10_14 
REMARK    6  A    between atoms: C10_14  and  N3_15 
REMARK       I    between atoms: N3_15  and  C11_16 
REMARK    7  A    between atoms: C15_21  and  O4_22 
ROOT
HETATM    1  C2  UNL     1      27.358   0.234  53.876  1.00  0.00     0.103 A 
HETATM    2  C3  UNL     1      27.687   1.103  52.856  1.00  0.00     0.072 A 
HETATM    3  C4  UNL     1      26.638   1.687  52.176  1.00  0.00     0.075 A 
HETATM    4  N1  UNL     1      26.975   2.535  51.180  1.00  0.00    -0.241 NA
HETATM    5  C5  UNL     1      26.050   3.171  50.438  1.00  0.00     0.236 A 
HETATM    6  N2  UNL     1      24.740   2.977  50.672  1.00  0.00    -0.217 NA
HETATM    7  C6  UNL     1      24.322   2.133  51.662  1.00  0.00     0.178 A 
HETATM    8  C13 UNL     1      25.296   1.478  52.426  1.00  0.00     0.048 A 
HETATM    9  C14 UNL     1      25.013   0.596  53.461  1.00  0.00     0.057 A 
HETATM   10  C15 UNL     1      26.030  -0.011  54.169  1.00  0.00     0.102 A 
ENDROOT
BRANCH   7  11
HETATM   11  O2  UNL     1      23.048   1.800  52.059  1.00  0.00    -0.330 OA
BRANCH  11  12
HETATM   12  C7  UNL     1      22.128   1.020  51.326  1.00  0.00     0.204 C 
BRANCH  12  13
HETATM   13  C8  UNL     1      20.966   0.726  52.194  1.00  0.00    -0.003 C 
HETATM   14  C9  UNL     1      20.011  -0.168  52.393  1.00  0.00    -0.009 C 
BRANCH  14  15
HETATM   15  C10 UNL     1      18.854  -0.412  53.295  1.00  0.00     0.149 C 
BRANCH  15  16
HETATM   16  N3  UNL     1      18.763  -1.779  53.742  1.00  0.00    -0.358 N 
HETATM   17  C11 UNL     1      17.540  -2.396  53.342  1.00  0.00     0.213 C 
HETATM   18  C12 UNL     1      17.241  -3.816  53.699  1.00  0.00     0.117 C 
HETATM   19  O3  UNL     1      16.550  -1.959  52.683  1.00  0.00    -0.274 OA
HETATM   20  H12 UNL     1      19.412  -2.382  54.290  1.00  0.00     0.162 HD
ENDBRANCH  15  16
ENDBRANCH  14  15
ENDBRANCH  12  13
ENDBRANCH  11  12
ENDBRANCH   7  11
BRANCH  10  21
HETATM   21  O4  UNL     1      25.717  -0.890  55.199  1.00  0.00    -0.353 OA
HETATM   22  C16 UNL     1      24.356  -1.255  55.355  1.00  0.00     0.210 C 
ENDBRANCH  10  21
BRANCH   1  23
HETATM   23  O1  UNL     1      28.327  -0.410  54.625  1.00  0.00    -0.353 OA
HETATM   24  C1  UNL     1      29.539  -0.806  54.013  1.00  0.00     0.210 C 
ENDBRANCH   1  23
TORSDOF 7
ENDMDL
MODEL 5
REMARK VINA RESULT:      -6.9      2.922      7.733
REMARK  7 active torsions:
REMARK  status: ('A' for Active; 'I' for Inactive)
REMARK    1  A    between atoms: O1_2  and  C2_3 
REMARK    2  A    between atoms: C6_9  and  O2_10 
REMARK    3  A    between atoms: O2_10  and  C7_11 
REMARK    4  A    between atoms: C7_11  and  C8_12 
REMARK    5  A    between atoms: C9_13  and  C10_14 
REMARK    6  A    between atoms: C10_14  and  N3_15 
REMARK       I    between atoms: N3_15  and  C11_16 
REMARK    7  A    between atoms: C15_21  and  O4_22 
ROOT
HETATM    1  C2  UNL     1      25.702   2.639  51.341  1.00  0.00     0.103 A 
HETATM    2  C3  UNL     1      26.843   2.496  52.103  1.00  0.00     0.072 A 
HETATM    3  C4  UNL     1      26.842   1.481  53.038  1.00  0.00     0.075 A 
HETATM    4  N1  UNL     1      27.965   1.352  53.776  1.00  0.00    -0.241 NA
HETATM    5  C5  UNL     1      28.095   0.404  54.722  1.00  0.00     0.236 A 
HETATM    6  N2  UNL     1      27.091  -0.458  54.963  1.00  0.00    -0.217 NA
HETATM    7  C6  UNL     1      25.923  -0.389  54.257  1.00  0.00     0.178 A 
HETATM    8  C13 UNL     1      25.803   0.602  53.275  1.00  0.00     0.048 A 
HETATM    9  C14 UNL     1      24.675   0.785  52.486  1.00  0.00     0.057 A 
HETATM   10  C15 UNL     1      24.632   1.787  51.538  1.00  0.00     0.102 A 
ENDROOT
BRANCH   7  11
HETATM   11  O2  UNL     1      24.791  -1.164  54.346  1.00  0.00    -0.330 OA
BRANCH  11  12
HETATM   12  C7  UNL     1      23.844  -1.133  55.392  1.00  0.00     0.204 C 
BRANCH  12  13
HETATM   13  C8  UNL     1      22.496  -0.975  54.801  1.00  0.00    -0.003 C 
HETATM   14  C9  UNL     1      21.664  -0.062  54.329  1.00  0.00    -0.009 C 
BRANCH  14  15
HETATM   15  C10 UNL     1      20.302   0.037  53.739  1.00  0.00     0.149 C 
BRANCH  15  16
HETATM   16  N3  UNL     1      19.454  -1.076  54.083  1.00  0.00    -0.358 N 
HETATM   17  C11 UNL     1      18.404  -1.265  53.135  1.00  0.00     0.213 C 
HETATM   18  C12 UNL     1      17.409  -2.368  53.299  1.00  0.00     0.117 C 
HETATM   19  O3  UNL     1      18.100  -0.639  52.076  1.00  0.00    -0.274 OA
HETATM   20  H12 UNL     1      19.468  -1.749  54.878  1.00  0.00     0.162 HD
ENDBRANCH  15  16
ENDBRANCH  14  15
ENDBRANCH  12  13
ENDBRANCH  11  12
ENDBRANCH   7  11
BRANCH  10  21
HETATM   21  O4  UNL     1      23.491   1.947  50.762  1.00  0.00    -0.353 OA
HETATM   22  C16 UNL     1      22.369   2.567  51.370  1.00  0.00     0.210 C 
ENDBRANCH  10  21
BRANCH   1  23
HETATM   23  O1  UNL     1      25.591   3.623  50.374  1.00  0.00    -0.353 OA
HETATM   24  C1  UNL     1      26.578   3.732  49.367  1.00  0.00     0.210 C 
ENDBRANCH   1  23
TORSDOF 7
ENDMDL
MODEL 6
REMARK VINA RESULT:      -6.9      2.271      2.867
REMARK  7 active torsions:
REMARK  status: ('A' for Active; 'I' for Inactive)
REMARK    1  A    between atoms: O1_2  and  C2_3 
REMARK    2  A    between atoms: C6_9  and  O2_10 
REMARK    3  A    between atoms: O2_10  and  C7_11 
REMARK    4  A    between atoms: C7_11  and  C8_12 
REMARK    5  A    between atoms: C9_13  and  C10_14 
REMARK    6  A    between atoms: C10_14  and  N3_15 
REMARK       I    between atoms: N3_15  and  C11_16 
REMARK    7  A    between atoms: C15_21  and  O4_22 
ROOT
HETATM    1  C2  UNL     1      26.045  -0.404  53.371  1.00  0.00     0.103 A 
HETATM    2  C3  UNL     1      25.088  -0.942  54.208  1.00  0.00     0.072 A 
HETATM    3  C4  UNL     1      23.796  -0.484  54.049  1.00  0.00     0.075 A 
HETATM    4  N1  UNL     1      22.871  -1.019  54.875  1.00  0.00    -0.241 NA
HETATM    5  C5  UNL     1      21.575  -0.660  54.825  1.00  0.00     0.236 A 
HETATM    6  N2  UNL     1      21.157   0.258  53.936  1.00  0.00    -0.217 NA
HETATM    7  C6  UNL     1      22.035   0.844  53.068  1.00  0.00     0.178 A 
HETATM    8  C13 UNL     1      23.381   0.460  53.131  1.00  0.00     0.048 A 
HETATM    9  C14 UNL     1      24.377   0.974  52.310  1.00  0.00     0.057 A 
HETATM   10  C15 UNL     1      25.683   0.544  52.434  1.00  0.00     0.102 A 
ENDROOT
BRANCH   7  11
HETATM   11  O2  UNL     1      21.816   1.790  52.095  1.00  0.00    -0.330 OA
BRANCH  11  12
HETATM   12  C7  UNL     1      21.046   2.965  52.238  1.00  0.00     0.204 C 
BRANCH  12  13
HETATM   13  C8  UNL     1      21.817   4.102  51.686  1.00  0.00    -0.003 C 
HETATM   14  C9  UNL     1      22.874   4.859  51.926  1.00  0.00    -0.009 C 
BRANCH  14  15
HETATM   15  C10 UNL     1      23.610   6.004  51.325  1.00  0.00     0.149 C 
BRANCH  15  16
HETATM   16  N3  UNL     1      24.973   5.684  50.983  1.00  0.00    -0.358 N 
HETATM   17  C11 UNL     1      25.115   5.344  49.604  1.00  0.00     0.213 C 
HETATM   18  C12 UNL     1      26.449   4.981  49.035  1.00  0.00     0.117 C 
HETATM   19  O3  UNL     1      24.273   5.277  48.660  1.00  0.00    -0.274 OA
HETATM   20  H12 UNL     1      25.849   5.655  51.545  1.00  0.00     0.162 HD
ENDBRANCH  15  16
ENDBRANCH  14  15
ENDBRANCH  12  13
ENDBRANCH  11  12
ENDBRANCH   7  11
BRANCH  10  21
HETATM   21  O4  UNL     1      26.660   1.075  51.600  1.00  0.00    -0.353 OA
HETATM   22  C16 UNL     1      26.831   2.483  51.608  1.00  0.00     0.210 C 
ENDBRANCH  10  21
BRANCH   1  23
HETATM   23  O1  UNL     1      27.372  -0.789  53.441  1.00  0.00    -0.353 OA
HETATM   24  C1  UNL     1      28.240  -0.152  54.357  1.00  0.00     0.210 C 
ENDBRANCH   1  23
TORSDOF 7
ENDMDL
MODEL 7
REMARK VINA RESULT:      -6.8      3.680      6.454
REMARK  7 active torsions:
REMARK  status: ('A' for Active; 'I' for Inactive)
REMARK    1  A    between atoms: O1_2  and  C2_3 
REMARK    2  A    between atoms: C6_9  and  O2_10 
REMARK    3  A    between atoms: O2_10  and  C7_11 
REMARK    4  A    between atoms: C7_11  and  C8_12 
REMARK    5  A    between atoms: C9_13  and  C10_14 
REMARK    6  A    between atoms: C10_14  and  N3_15 
REMARK       I    between atoms: N3_15  and  C11_16 
REMARK    7  A    between atoms: C15_21  and  O4_22 
ROOT
HETATM    1  C2  UNL     1      19.827   0.157  52.837  1.00  0.00     0.103 A 
HETATM    2  C3  UNL     1      20.366  -0.550  53.893  1.00  0.00     0.072 A 
HETATM    3  C4  UNL     1      21.742  -0.551  54.001  1.00  0.00     0.075 A 
HETATM    4  N1  UNL     1      22.255  -1.246  55.039  1.00  0.00    -0.241 NA
HETATM    5  C5  UNL     1      23.580  -1.329  55.259  1.00  0.00     0.236 A 
HETATM    6  N2  UNL     1      24.446  -0.711  54.437  1.00  0.00    -0.217 NA
HETATM    7  C6  UNL     1      24.001   0.010  53.365  1.00  0.00     0.178 A 
HETATM    8  C13 UNL     1      22.620   0.088  53.149  1.00  0.00     0.048 A 
HETATM    9  C14 UNL     1      22.033   0.786  52.100  1.00  0.00     0.057 A 
HETATM   10  C15 UNL     1      20.661   0.815  51.953  1.00  0.00     0.102 A 
ENDROOT
BRANCH   7  11
HETATM   11  O2  UNL     1      24.710   0.709  52.417  1.00  0.00    -0.330 OA
BRANCH  11  12
HETATM   12  C7  UNL     1      25.232   2.013  52.564  1.00  0.00     0.204 C 
BRANCH  12  13
HETATM   13  C8  UNL     1      26.678   1.909  52.866  1.00  0.00    -0.003 C 
HETATM   14  C9  UNL     1      27.600   2.333  53.714  1.00  0.00    -0.009 C 
BRANCH  14  15
HETATM   15  C10 UNL     1      29.058   2.191  53.969  1.00  0.00     0.149 C 
BRANCH  15  16
HETATM   16  N3  UNL     1      29.627   1.012  53.367  1.00  0.00    -0.358 N 
HETATM   17  C11 UNL     1      29.228  -0.181  54.041  1.00  0.00     0.213 C 
HETATM   18  C12 UNL     1      29.703  -1.521  53.578  1.00  0.00     0.117 C 
HETATM   19  O3  UNL     1      28.483  -0.374  55.047  1.00  0.00    -0.274 OA
HETATM   20  H12 UNL     1      30.261   0.877  52.552  1.00  0.00     0.162 HD
ENDBRANCH  15  16
ENDBRANCH  14  15
ENDBRANCH  12  13
ENDBRANCH  11  12
ENDBRANCH   7  11
BRANCH  10  21
HETATM   21  O4  UNL     1      20.101   1.521  50.895  1.00  0.00    -0.353 OA
HETATM   22  C16 UNL     1      20.338   1.031  49.586  1.00  0.00     0.210 C 
ENDBRANCH  10  21
BRANCH   1  23
HETATM   23  O1  UNL     1      18.461   0.227  52.630  1.00  0.00    -0.353 OA
HETATM   24  C1  UNL     1      17.753  -0.925  52.216  1.00  0.00     0.210 C 
ENDBRANCH   1  23
TORSDOF 7
ENDMDL
MODEL 8
REMARK VINA RESULT:      -6.7      2.453      4.116
REMARK  7 active torsions:
REMARK  status: ('A' for Active; 'I' for Inactive)
REMARK    1  A    between atoms: O1_2  and  C2_3 
REMARK    2  A    between atoms: C6_9  and  O2_10 
REMARK    3  A    between atoms: O2_10  and  C7_11 
REMARK    4  A    between atoms: C7_11  and  C8_12 
REMARK    5  A    between atoms: C9_13  and  C10_14 
REMARK    6  A    between atoms: C10_14  and  N3_15 
REMARK       I    between atoms: N3_15  and  C11_16 
REMARK    7  A    between atoms: C15_21  and  O4_22 
ROOT
HETATM    1  C2  UNL     1      23.392  -0.070  53.097  1.00  0.00     0.103 A 
HETATM    2  C3  UNL     1      24.656  -0.290  53.605  1.00  0.00     0.072 A 
HETATM    3  C4  UNL     1      25.664   0.530  53.140  1.00  0.00     0.075 A 
HETATM    4  N1  UNL     1      26.895   0.303  53.647  1.00  0.00    -0.241 NA
HETATM    5  C5  UNL     1      27.965   1.030  53.278  1.00  0.00     0.236 A 
HETATM    6  N2  UNL     1      27.837   2.020  52.378  1.00  0.00    -0.217 NA
HETATM    7  C6  UNL     1      26.623   2.308  51.820  1.00  0.00     0.178 A 
HETATM    8  C13 UNL     1      25.518   1.544  52.214  1.00  0.00     0.048 A 
HETATM    9  C14 UNL     1      24.229   1.728  51.729  1.00  0.00     0.057 A 
HETATM   10  C15 UNL     1      23.190   0.932  52.167  1.00  0.00     0.102 A 
ENDROOT
BRANCH   7  11
HETATM   11  O2  UNL     1      26.281   3.267  50.896  1.00  0.00    -0.330 OA
BRANCH  11  12
HETATM   12  C7  UNL     1      26.496   3.190  49.502  1.00  0.00     0.204 C 
BRANCH  12  13
HETATM   13  C8  UNL     1      26.889   4.531  49.013  1.00  0.00    -0.003 C 
HETATM   14  C9  UNL     1      27.931   5.217  48.574  1.00  0.00    -0.009 C 
BRANCH  14  15
HETATM   15  C10 UNL     1      28.269   6.582  48.090  1.00  0.00     0.149 C 
BRANCH  15  16
HETATM   16  N3  UNL     1      29.659   6.917  48.267  1.00  0.00    -0.358 N 
HETATM   17  C11 UNL     1      29.830   8.162  48.944  1.00  0.00     0.213 C 
HETATM   18  C12 UNL     1      31.194   8.699  49.234  1.00  0.00     0.117 C 
HETATM   19  O3  UNL     1      28.993   8.996  49.401  1.00  0.00    -0.274 OA
HETATM   20  H12 UNL     1      30.539   6.429  47.996  1.00  0.00     0.162 HD
ENDBRANCH  15  16
ENDBRANCH  14  15
ENDBRANCH  12  13
ENDBRANCH  11  12
ENDBRANCH   7  11
BRANCH  10  21
HETATM   21  O4  UNL     1      21.911   1.139  51.665  1.00  0.00    -0.353 OA
HETATM   22  C16 UNL     1      21.691   0.842  50.296  1.00  0.00     0.210 C 
ENDBRANCH  10  21
BRANCH   1  23
HETATM   23  O1  UNL     1      22.306  -0.831  53.491  1.00  0.00    -0.353 OA
HETATM   24  C1  UNL     1      21.847  -0.761  54.827  1.00  0.00     0.210 C 
ENDBRANCH   1  23
TORSDOF 7
ENDMDL
MODEL 9
REMARK VINA RESULT:      -6.6      2.786      4.198
REMARK  7 active torsions:
REMARK  status: ('A' for Active; 'I' for Inactive)
REMARK    1  A    between atoms: O1_2  and  C2_3 
REMARK    2  A    between atoms: C6_9  and  O2_10 
REMARK    3  A    between atoms: O2_10  and  C7_11 
REMARK    4  A    between atoms: C7_11  and  C8_12 
REMARK    5  A    between atoms: C9_13  and  C10_14 
REMARK    6  A    between atoms: C10_14  and  N3_15 
REMARK       I    between atoms: N3_15  and  C11_16 
REMARK    7  A    between atoms: C15_21  and  O4_22 
ROOT
HETATM    1  C2  UNL     1      27.544   0.913  53.436  1.00  0.00     0.103 A 
HETATM    2  C3  UNL     1      27.040   0.049  54.387  1.00  0.00     0.072 A 
HETATM    3  C4  UNL     1      25.685  -0.204  54.341  1.00  0.00     0.075 A 
HETATM    4  N1  UNL     1      25.206  -1.051  55.278  1.00  0.00    -0.241 NA
HETATM    5  C5  UNL     1      23.904  -1.382  55.345  1.00  0.00     0.236 A 
HETATM    6  N2  UNL     1      23.026  -0.869  54.466  1.00  0.00    -0.217 NA
HETATM    7  C6  UNL     1      23.435  -0.004  53.490  1.00  0.00     0.178 A 
HETATM    8  C13 UNL     1      24.793   0.331  53.432  1.00  0.00     0.048 A 
HETATM    9  C14 UNL     1      25.344   1.196  52.494  1.00  0.00     0.057 A 
HETATM   10  C15 UNL     1      26.695   1.476  52.502  1.00  0.00     0.102 A 
ENDROOT
BRANCH   7  11
HETATM   11  O2  UNL     1      22.708   0.624  52.506  1.00  0.00    -0.330 OA
BRANCH  11  12
HETATM   12  C7  UNL     1      21.513   0.147  51.924  1.00  0.00     0.204 C 
BRANCH  12  13
HETATM   13  C8  UNL     1      21.267   0.900  50.674  1.00  0.00    -0.003 C 
HETATM   14  C9  UNL     1      21.613   0.946  49.398  1.00  0.00    -0.009 C 
BRANCH  14  15
HETATM   15  C10 UNL     1      21.327   1.737  48.172  1.00  0.00     0.149 C 
BRANCH  15  16
HETATM   16  N3  UNL     1      22.381   2.660  47.835  1.00  0.00    -0.358 N 
HETATM   17  C11 UNL     1      22.217   3.923  48.480  1.00  0.00     0.213 C 
HETATM   18  C12 UNL     1      23.203   5.027  48.271  1.00  0.00     0.117 C 
HETATM   19  O3  UNL     1      21.330   4.357  49.273  1.00  0.00    -0.274 OA
HETATM   20  H12 UNL     1      23.218   2.575  47.221  1.00  0.00     0.162 HD
ENDBRANCH  15  16
ENDBRANCH  14  15
ENDBRANCH  12  13
ENDBRANCH  11  12
ENDBRANCH   7  11
BRANCH  10  21
HETATM   21  O4  UNL     1      27.220   2.345  51.552  1.00  0.00    -0.353 OA
HETATM   22  C16 UNL     1      26.321   2.893  50.602  1.00  0.00     0.210 C 
ENDBRANCH  10  21
BRANCH   1  23
HETATM   23  O1  UNL     1      28.888   1.239  53.387  1.00  0.00    -0.353 OA
HETATM   24  C1  UNL     1      29.484   1.923  54.471  1.00  0.00     0.210 C 
ENDBRANCH   1  23
TORSDOF 7
ENDMDL
