MODEL 1
REMARK VINA RESULT:      -9.2      0.000      0.000
REMARK  0 active torsions:
REMARK  status: ('A' for Active; 'I' for Inactive)
ROOT
HETATM    1 CL1  UNL     1      21.708  -2.037  54.274  1.00  0.00    -0.089 Cl
HETATM    2  C1  UNL     1      22.502  -0.632  53.555  1.00  0.00     0.011 C 
HETATM    3  C2  UNL     1      21.860  -0.230  52.438  1.00  0.00     0.018 C 
HETATM    4  C3  UNL     1      22.190   0.911  51.525  1.00  0.00     0.197 C 
HETATM    5  O1  UNL     1      23.000   1.863  52.148  1.00  0.00    -0.380 OA
HETATM    6  C4  UNL     1      24.338   1.501  52.066  1.00  0.00     0.151 C 
HETATM    7  C5  UNL     1      25.203   2.713  52.216  1.00  0.00     0.147 C 
HETATM    8  N1  UNL     1      26.551   2.731  52.070  1.00  0.00    -0.415 N 
HETATM    9  C6  UNL     1      27.559   2.252  52.847  1.00  0.00     0.149 C 
HETATM   10  C7  UNL     1      27.709   0.759  52.915  1.00  0.00    -0.045 C 
HETATM   11  C8  UNL     1      28.782   0.465  53.679  1.00  0.00     0.024 C 
HETATM   12  C9  UNL     1      29.281  -0.879  54.031  1.00  0.00     0.114 C 
HETATM   13  N2  UNL     1      28.490  -1.712  53.506  1.00  0.00    -0.269 NA
HETATM   14  C10 UNL     1      27.357  -1.665  52.753  1.00  0.00     0.261 C 
HETATM   15  O2  UNL     1      26.188  -1.282  53.764  1.00  0.00    -0.350 OA
HETATM   16  C11 UNL     1      25.774  -0.149  52.790  1.00  0.00     0.097 A 
HETATM   17  C12 UNL     1      24.645   0.436  53.013  1.00  0.00     0.038 C 
HETATM   18  C13 UNL     1      23.736   0.043  54.106  1.00  0.00     0.067 C 
HETATM   19  C14 UNL     1      26.392   0.545  51.510  1.00  0.00     0.051 A 
HETATM   20  C15 UNL     1      26.934  -0.348  52.149  1.00  0.00     0.070 A 
HETATM   21  H7  UNL     1      26.948   3.213  51.211  1.00  0.00     0.153 HD
ENDROOT
TORSDOF 0
ENDMDL
MODEL 2
REMARK VINA RESULT:      -8.8      3.282      4.395
REMARK  0 active torsions:
REMARK  status: ('A' for Active; 'I' for Inactive)
ROOT
HETATM    1 CL1  UNL     1      27.671   4.987  48.636  1.00  0.00    -0.089 Cl
HETATM    2  C1  UNL     1      26.396   4.072  49.448  1.00  0.00     0.011 C 
HETATM    3  C2  UNL     1      25.267   4.803  49.554  1.00  0.00     0.018 C 
HETATM    4  C3  UNL     1      23.955   4.420  50.168  1.00  0.00     0.197 C 
HETATM    5  O1  UNL     1      23.804   3.034  50.259  1.00  0.00    -0.380 OA
HETATM    6  C4  UNL     1      24.407   2.548  51.412  1.00  0.00     0.151 C 
HETATM    7  C5  UNL     1      23.799   1.234  51.788  1.00  0.00     0.147 C 
HETATM    8  N1  UNL     1      24.074   0.544  52.922  1.00  0.00    -0.415 N 
HETATM    9  C6  UNL     1      25.170  -0.158  53.319  1.00  0.00     0.149 C 
HETATM   10  C7  UNL     1      26.399   0.637  53.650  1.00  0.00    -0.045 C 
HETATM   11  C8  UNL     1      27.363  -0.209  54.074  1.00  0.00     0.024 C 
HETATM   12  C9  UNL     1      28.738   0.142  54.479  1.00  0.00     0.114 C 
HETATM   13  N2  UNL     1      28.859   1.390  54.323  1.00  0.00    -0.269 NA
HETATM   14  C10 UNL     1      28.076   2.415  53.888  1.00  0.00     0.261 C 
HETATM   15  O2  UNL     1      28.038   2.280  52.302  1.00  0.00    -0.350 OA
HETATM   16  C11 UNL     1      26.491   2.354  52.374  1.00  0.00     0.097 A 
HETATM   17  C12 UNL     1      25.856   2.508  51.260  1.00  0.00     0.038 C 
HETATM   18  C13 UNL     1      26.535   2.657  49.960  1.00  0.00     0.067 C 
HETATM   19  C14 UNL     1      25.392   2.286  53.510  1.00  0.00     0.051 A 
HETATM   20  C15 UNL     1      26.597   2.177  53.698  1.00  0.00     0.070 A 
HETATM   21  H7  UNL     1      23.320   0.498  53.667  1.00  0.00     0.153 HD
ENDROOT
TORSDOF 0
ENDMDL
MODEL 3
REMARK VINA RESULT:      -8.3      1.660      4.284
REMARK  0 active torsions:
REMARK  status: ('A' for Active; 'I' for Inactive)
ROOT
HETATM    1 CL1  UNL     1      20.830  -1.462  54.471  1.00  0.00    -0.089 Cl
HETATM    2  C1  UNL     1      22.557  -1.129  54.304  1.00  0.00     0.011 C 
HETATM    3  C2  UNL     1      23.203  -1.319  55.474  1.00  0.00     0.018 C 
HETATM    4  C3  UNL     1      24.660  -1.152  55.779  1.00  0.00     0.197 C 
HETATM    5  O1  UNL     1      25.446  -1.200  54.626  1.00  0.00    -0.380 OA
HETATM    6  C4  UNL     1      25.502   0.047  54.016  1.00  0.00     0.151 C 
HETATM    7  C5  UNL     1      26.722   0.138  53.156  1.00  0.00     0.147 C 
HETATM    8  N1  UNL     1      27.141   1.255  52.512  1.00  0.00    -0.415 N 
HETATM    9  C6  UNL     1      26.659   1.916  51.425  1.00  0.00     0.149 C 
HETATM   10  C7  UNL     1      25.361   2.650  51.600  1.00  0.00    -0.045 C 
HETATM   11  C8  UNL     1      25.063   3.287  50.447  1.00  0.00     0.024 C 
HETATM   12  C9  UNL     1      23.868   4.107  50.168  1.00  0.00     0.114 C 
HETATM   13  N2  UNL     1      23.151   4.075  51.208  1.00  0.00    -0.269 NA
HETATM   14  C10 UNL     1      23.212   3.493  52.437  1.00  0.00     0.261 C 
HETATM   15  O2  UNL     1      22.838   1.963  52.204  1.00  0.00    -0.350 OA
HETATM   16  C11 UNL     1      24.124   1.574  52.977  1.00  0.00     0.097 A 
HETATM   17  C12 UNL     1      24.259   0.333  53.310  1.00  0.00     0.038 C 
HETATM   18  C13 UNL     1      23.238  -0.692  53.028  1.00  0.00     0.067 C 
HETATM   19  C14 UNL     1      25.413   2.322  53.509  1.00  0.00     0.051 A 
HETATM   20  C15 UNL     1      24.506   2.855  52.881  1.00  0.00     0.070 A 
HETATM   21  H7  UNL     1      28.014   1.736  52.875  1.00  0.00     0.153 HD
ENDROOT
TORSDOF 0
ENDMDL
MODEL 4
REMARK VINA RESULT:      -8.0      2.752      4.166
REMARK  0 active torsions:
REMARK  status: ('A' for Active; 'I' for Inactive)
ROOT
HETATM    1 CL1  UNL     1      22.714   4.515  50.726  1.00  0.00    -0.089 Cl
HETATM    2  C1  UNL     1      24.235   3.733  51.170  1.00  0.00     0.011 C 
HETATM    3  C2  UNL     1      25.065   3.648  50.109  1.00  0.00     0.018 C 
HETATM    4  C3  UNL     1      26.442   3.064  50.039  1.00  0.00     0.197 C 
HETATM    5  O1  UNL     1      27.041   2.982  51.298  1.00  0.00    -0.380 OA
HETATM    6  C4  UNL     1      26.655   1.818  51.951  1.00  0.00     0.151 C 
HETATM    7  C5  UNL     1      27.668   1.460  52.993  1.00  0.00     0.147 C 
HETATM    8  N1  UNL     1      27.658   0.323  53.731  1.00  0.00    -0.415 N 
HETATM    9  C6  UNL     1      26.862  -0.095  54.752  1.00  0.00     0.149 C 
HETATM   10  C7  UNL     1      25.447  -0.454  54.402  1.00  0.00    -0.045 C 
HETATM   11  C8  UNL     1      24.824  -0.896  55.516  1.00  0.00     0.024 C 
HETATM   12  C9  UNL     1      23.418  -1.331  55.633  1.00  0.00     0.114 C 
HETATM   13  N2  UNL     1      22.892  -1.183  54.495  1.00  0.00    -0.269 NA
HETATM   14  C10 UNL     1      23.286  -0.735  53.271  1.00  0.00     0.261 C 
HETATM   15  O2  UNL     1      23.333   0.852  53.391  1.00  0.00    -0.350 OA
HETATM   16  C11 UNL     1      24.771   0.812  52.814  1.00  0.00     0.097 A 
HETATM   17  C12 UNL     1      25.296   1.939  52.465  1.00  0.00     0.038 C 
HETATM   18  C13 UNL     1      24.579   3.224  52.550  1.00  0.00     0.067 C 
HETATM   19  C14 UNL     1      25.855  -0.300  52.514  1.00  0.00     0.051 A 
HETATM   20  C15 UNL     1      24.757  -0.513  53.012  1.00  0.00     0.070 A 
HETATM   21  H7  UNL     1      28.401  -0.406  53.524  1.00  0.00     0.153 HD
ENDROOT
TORSDOF 0
ENDMDL
MODEL 5
REMARK VINA RESULT:      -7.8      2.929      5.950
REMARK  0 active torsions:
REMARK  status: ('A' for Active; 'I' for Inactive)
ROOT
HETATM    1 CL1  UNL     1      27.037   2.600  51.267  1.00  0.00    -0.089 Cl
HETATM    2  C1  UNL     1      26.313   1.438  52.384  1.00  0.00     0.011 C 
HETATM    3  C2  UNL     1      27.024   0.292  52.420  1.00  0.00     0.018 C 
HETATM    4  C3  UNL     1      26.768  -0.946  53.224  1.00  0.00     0.197 C 
HETATM    5  O1  UNL     1      25.945  -0.696  54.324  1.00  0.00    -0.380 OA
HETATM    6  C4  UNL     1      24.606  -0.741  53.958  1.00  0.00     0.151 C 
HETATM    7  C5  UNL     1      23.760  -1.023  55.158  1.00  0.00     0.147 C 
HETATM    8  N1  UNL     1      22.423  -1.247  55.134  1.00  0.00    -0.415 N 
HETATM    9  C6  UNL     1      21.363  -0.420  54.920  1.00  0.00     0.149 C 
HETATM   10  C7  UNL     1      21.179   0.095  53.522  1.00  0.00    -0.045 C 
HETATM   11  C8  UNL     1      20.059   0.849  53.481  1.00  0.00     0.024 C 
HETATM   12  C9  UNL     1      19.515   1.568  52.313  1.00  0.00     0.114 C 
HETATM   13  N2  UNL     1      20.316   1.373  51.356  1.00  0.00    -0.269 NA
HETATM   14  C10 UNL     1      21.490   0.710  51.166  1.00  0.00     0.261 C 
HETATM   15  O2  UNL     1      22.609   1.620  51.840  1.00  0.00    -0.350 OA
HETATM   16  C11 UNL     1      23.099   0.371  52.615  1.00  0.00     0.097 A 
HETATM   17  C12 UNL     1      24.226   0.469  53.238  1.00  0.00     0.038 C 
HETATM   18  C13 UNL     1      25.065   1.681  53.200  1.00  0.00     0.067 C 
HETATM   19  C14 UNL     1      22.567  -1.095  52.881  1.00  0.00     0.051 A 
HETATM   20  C15 UNL     1      21.972  -0.245  52.231  1.00  0.00     0.070 A 
HETATM   21  H7  UNL     1      22.084  -2.234  55.327  1.00  0.00     0.153 HD
ENDROOT
TORSDOF 0
ENDMDL
MODEL 6
REMARK VINA RESULT:      -7.7      2.916      5.741
REMARK  0 active torsions:
REMARK  status: ('A' for Active; 'I' for Inactive)
ROOT
HETATM    1 CL1  UNL     1      28.675   2.484  53.454  1.00  0.00    -0.089 Cl
HETATM    2  C1  UNL     1      27.232   1.465  53.511  1.00  0.00     0.011 C 
HETATM    3  C2  UNL     1      27.514   0.202  53.127  1.00  0.00     0.018 C 
HETATM    4  C3  UNL     1      26.595  -0.976  53.029  1.00  0.00     0.197 C 
HETATM    5  O1  UNL     1      25.444  -0.809  53.802  1.00  0.00    -0.380 OA
HETATM    6  C4  UNL     1      24.483  -0.088  53.105  1.00  0.00     0.151 C 
HETATM    7  C5  UNL     1      23.126  -0.376  53.665  1.00  0.00     0.147 C 
HETATM    8  N1  UNL     1      21.957   0.071  53.144  1.00  0.00    -0.415 N 
HETATM    9  C6  UNL     1      21.384   1.305  53.115  1.00  0.00     0.149 C 
HETATM   10  C7  UNL     1      22.030   2.329  52.229  1.00  0.00    -0.045 C 
HETATM   11  C8  UNL     1      21.305   3.467  52.280  1.00  0.00     0.024 C 
HETATM   12  C9  UNL     1      21.592   4.736  51.582  1.00  0.00     0.114 C 
HETATM   13  N2  UNL     1      22.670   4.569  50.947  1.00  0.00    -0.269 NA
HETATM   14  C10 UNL     1      23.575   3.566  50.775  1.00  0.00     0.261 C 
HETATM   15  O2  UNL     1      24.429   3.527  52.118  1.00  0.00    -0.350 OA
HETATM   16  C11 UNL     1      24.146   2.005  52.204  1.00  0.00     0.097 A 
HETATM   17  C12 UNL     1      24.821   1.329  53.073  1.00  0.00     0.038 C 
HETATM   18  C13 UNL     1      25.858   1.930  53.932  1.00  0.00     0.067 C 
HETATM   19  C14 UNL     1      23.192   0.974  51.477  1.00  0.00     0.051 A 
HETATM   20  C15 UNL     1      23.224   2.176  51.247  1.00  0.00     0.070 A 
HETATM   21  H7  UNL     1      21.324  -0.638  52.672  1.00  0.00     0.153 HD
ENDROOT
TORSDOF 0
ENDMDL
MODEL 7
REMARK VINA RESULT:      -7.4      3.189      4.818
REMARK  0 active torsions:
REMARK  status: ('A' for Active; 'I' for Inactive)
ROOT
HETATM    1 CL1  UNL     1      26.588   0.059  54.223  1.00  0.00    -0.089 Cl
HETATM    2  C1  UNL     1      25.250   0.973  53.516  1.00  0.00     0.011 C 
HETATM    3  C2  UNL     1      24.165   0.190  53.344  1.00  0.00     0.018 C 
HETATM    4  C3  UNL     1      22.825   0.553  52.781  1.00  0.00     0.197 C 
HETATM    5  O1  UNL     1      22.591   1.929  52.832  1.00  0.00    -0.380 OA
HETATM    6  C4  UNL     1      23.149   2.565  51.731  1.00  0.00     0.151 C 
HETATM    7  C5  UNL     1      22.461   3.871  51.495  1.00  0.00     0.147 C 
HETATM    8  N1  UNL     1      22.680   4.688  50.435  1.00  0.00    -0.415 N 
HETATM    9  C6  UNL     1      23.727   5.491  50.103  1.00  0.00     0.149 C 
HETATM   10  C7  UNL     1      24.997   4.808  49.686  1.00  0.00    -0.045 C 
HETATM   11  C8  UNL     1      25.903   5.749  49.343  1.00  0.00     0.024 C 
HETATM   12  C9  UNL     1      27.292   5.524  48.895  1.00  0.00     0.114 C 
HETATM   13  N2  UNL     1      27.488   4.277  48.923  1.00  0.00    -0.269 NA
HETATM   14  C10 UNL     1      26.772   3.168  49.257  1.00  0.00     0.261 C 
HETATM   15  O2  UNL     1      26.746   3.139  50.849  1.00  0.00    -0.350 OA
HETATM   16  C11 UNL     1      25.206   2.980  50.779  1.00  0.00     0.097 A 
HETATM   17  C12 UNL     1      24.596   2.677  51.876  1.00  0.00     0.038 C 
HETATM   18  C13 UNL     1      25.298   2.437  53.150  1.00  0.00     0.067 C 
HETATM   19  C14 UNL     1      24.091   3.096  49.664  1.00  0.00     0.051 A 
HETATM   20  C15 UNL     1      25.285   3.296  49.479  1.00  0.00     0.070 A 
HETATM   21  H7  UNL     1      21.915   4.763  49.703  1.00  0.00     0.153 HD
ENDROOT
TORSDOF 0
ENDMDL
MODEL 8
REMARK VINA RESULT:      -7.2      3.007      4.586
REMARK  0 active torsions:
REMARK  status: ('A' for Active; 'I' for Inactive)
ROOT
HETATM    1 CL1  UNL     1      20.028   2.491  47.902  1.00  0.00    -0.089 Cl
HETATM    2  C1  UNL     1      20.304   1.594  49.399  1.00  0.00     0.011 C 
HETATM    3  C2  UNL     1      19.249   1.706  50.233  1.00  0.00     0.018 C 
HETATM    4  C3  UNL     1      19.063   1.111  51.596  1.00  0.00     0.197 C 
HETATM    5  O1  UNL     1      19.907   0.019  51.811  1.00  0.00    -0.380 OA
HETATM    6  C4  UNL     1      21.158   0.441  52.241  1.00  0.00     0.151 C 
HETATM    7  C5  UNL     1      21.843  -0.668  52.975  1.00  0.00     0.147 C 
HETATM    8  N1  UNL     1      23.028  -0.556  53.626  1.00  0.00    -0.415 N 
HETATM    9  C6  UNL     1      24.306  -0.429  53.178  1.00  0.00     0.149 C 
HETATM   10  C7  UNL     1      24.672   0.879  52.540  1.00  0.00    -0.045 C 
HETATM   11  C8  UNL     1      25.981   0.849  52.207  1.00  0.00     0.024 C 
HETATM   12  C9  UNL     1      26.751   1.915  51.537  1.00  0.00     0.114 C 
HETATM   13  N2  UNL     1      25.945   2.858  51.301  1.00  0.00    -0.269 NA
HETATM   14  C10 UNL     1      24.619   3.100  51.495  1.00  0.00     0.261 C 
HETATM   15  O2  UNL     1      23.862   2.251  50.381  1.00  0.00    -0.350 OA
HETATM   16  C11 UNL     1      22.970   1.657  51.501  1.00  0.00     0.097 A 
HETATM   17  C12 UNL     1      21.932   0.982  51.131  1.00  0.00     0.038 C 
HETATM   18  C13 UNL     1      21.550   0.802  49.719  1.00  0.00     0.067 C 
HETATM   19  C14 UNL     1      22.974   1.639  53.083  1.00  0.00     0.051 A 
HETATM   20  C15 UNL     1      23.829   2.175  52.389  1.00  0.00     0.070 A 
HETATM   21  H7  UNL     1      23.013  -0.583  54.687  1.00  0.00     0.153 HD
ENDROOT
TORSDOF 0
ENDMDL
MODEL 9
REMARK VINA RESULT:      -7.1      3.530      5.710
REMARK  0 active torsions:
REMARK  status: ('A' for Active; 'I' for Inactive)
ROOT
HETATM    1 CL1  UNL     1      22.272   2.433  47.293  1.00  0.00    -0.089 Cl
HETATM    2  C1  UNL     1      21.151   1.851  48.529  1.00  0.00     0.011 C 
HETATM    3  C2  UNL     1      20.044   2.621  48.583  1.00  0.00     0.018 C 
HETATM    4  C3  UNL     1      18.851   2.488  49.478  1.00  0.00     0.197 C 
HETATM    5  O1  UNL     1      18.732   1.199  50.004  1.00  0.00    -0.380 OA
HETATM    6  C4  UNL     1      19.514   1.057  51.142  1.00  0.00     0.151 C 
HETATM    7  C5  UNL     1      18.989  -0.061  51.985  1.00  0.00     0.147 C 
HETATM    8  N1  UNL     1      19.447  -0.391  53.217  1.00  0.00    -0.415 N 
HETATM    9  C6  UNL     1      20.599  -0.982  53.633  1.00  0.00     0.149 C 
HETATM   10  C7  UNL     1      21.857  -0.171  53.516  1.00  0.00    -0.045 C 
HETATM   11  C8  UNL     1      22.884  -0.887  54.021  1.00  0.00     0.024 C 
HETATM   12  C9  UNL     1      24.303  -0.482  54.085  1.00  0.00     0.114 C 
HETATM   13  N2  UNL     1      24.383   0.657  53.544  1.00  0.00    -0.269 NA
HETATM   14  C10 UNL     1      23.530   1.534  52.947  1.00  0.00     0.261 C 
HETATM   15  O2  UNL     1      23.243   0.933  51.501  1.00  0.00    -0.350 OA
HETATM   16  C11 UNL     1      21.727   1.083  51.785  1.00  0.00     0.097 A 
HETATM   17  C12 UNL     1      20.922   0.920  50.788  1.00  0.00     0.038 C 
HETATM   18  C13 UNL     1      21.385   0.650  49.415  1.00  0.00     0.067 C 
HETATM   19  C14 UNL     1      20.822   1.398  53.044  1.00  0.00     0.051 A 
HETATM   20  C15 UNL     1      22.043   1.305  53.068  1.00  0.00     0.070 A 
HETATM   21  H7  UNL     1      18.821  -0.184  54.049  1.00  0.00     0.153 HD
ENDROOT
TORSDOF 0
ENDMDL
