MODEL 1
REMARK VINA RESULT:      -7.8      0.000      0.000
REMARK  4 active torsions:
REMARK  status: ('A' for Active; 'I' for Inactive)
REMARK       I    between atoms: C3_3  and  N1_5 
REMARK    1  A    between atoms: N1_5  and  C4_6 
REMARK    2  A    between atoms: C6_8  and  P1_9 
REMARK    3  A    between atoms: P1_9  and  O2_10 
REMARK    4  A    between atoms: C7_11  and  C8_12 
ROOT
HETATM    1  C1  UNL     1      27.687   5.104  48.556  1.00  0.00     0.022 C 
HETATM    2  C2  UNL     1      27.093   4.373  49.304  1.00  0.00    -0.016 C 
HETATM    3  C3  UNL     1      26.368   3.501  50.195  1.00  0.00     0.301 C 
HETATM    4  O1  UNL     1      25.276   2.933  49.880  1.00  0.00    -0.258 OA
HETATM    5  N1  UNL     1      26.795   3.189  51.508  1.00  0.00    -0.301 N 
HETATM    6  H2  UNL     1      27.700   3.621  51.858  1.00  0.00     0.171 HD
ENDROOT
BRANCH   5   7
HETATM    7  C4  UNL     1      25.842   2.295  52.119  1.00  0.00     0.131 C 
HETATM    8  C5  UNL     1      24.645   2.792  52.590  1.00  0.00     0.067 C 
HETATM    9  C6  UNL     1      23.313   2.536  52.537  1.00  0.00     0.026 C 
HETATM   10  C7  UNL     1      22.618   1.319  52.510  1.00  0.00     0.081 C 
HETATM   11  N2  UNL     1      23.232   0.590  53.466  1.00  0.00    -0.240 NA
HETATM   12  C14 UNL     1      23.779  -0.615  53.254  1.00  0.00     0.233 C 
HETATM   13  N3  UNL     1      25.068  -0.855  53.534  1.00  0.00    -0.253 NA
HETATM   14  C15 UNL     1      25.821   0.090  54.131  1.00  0.00     0.137 C 
HETATM   15  C16 UNL     1      26.817   0.560  53.283  1.00  0.00     0.138 C 
HETATM   16  N4  UNL     1      26.394   1.055  52.086  1.00  0.00    -0.242 NA
BRANCH   9  17
HETATM   17  P1  UNL     1      22.142   3.967  52.487  1.00  0.00     0.045 P 
HETATM   18  H4  UNL     1      21.279   3.821  53.645  1.00  0.00     0.092 HD
BRANCH  17  19
HETATM   19  O2  UNL     1      22.991   5.475  52.487  1.00  0.00    -0.371 OA
HETATM   20  H5  UNL     1      23.950   5.330  52.398  1.00  0.00     0.215 HD
ENDBRANCH  17  19
ENDBRANCH   9  17
BRANCH  10  21
HETATM   21  C8  UNL     1      21.517   1.137  51.567  1.00  0.00    -0.005 A 
HETATM   22  C9  UNL     1      21.748   1.376  50.225  1.00  0.00     0.014 A 
HETATM   23  C10 UNL     1      20.666   1.184  49.390  1.00  0.00     0.002 A 
HETATM   24  C11 UNL     1      19.410   0.779  49.824  1.00  0.00     0.019 A 
HETATM   25  C12 UNL     1      19.268   0.562  51.180  1.00  0.00     0.011 A 
HETATM   26 BR1  UNL     1      17.530   0.007  51.737  1.00  0.00    -0.051 Br
HETATM   27  C13 UNL     1      20.292   0.731  52.069  1.00  0.00     0.032 A 
ENDBRANCH  10  21
ENDBRANCH   5   7
TORSDOF 4
ENDMDL
MODEL 2
REMARK VINA RESULT:      -7.4      6.436     11.008
REMARK  4 active torsions:
REMARK  status: ('A' for Active; 'I' for Inactive)
REMARK       I    between atoms: C3_3  and  N1_5 
REMARK    1  A    between atoms: N1_5  and  C4_6 
REMARK    2  A    between atoms: C6_8  and  P1_9 
REMARK    3  A    between atoms: P1_9  and  O2_10 
REMARK    4  A    between atoms: C7_11  and  C8_12 
ROOT
HETATM    1  C1  UNL     1      25.709   3.730  50.180  1.00  0.00     0.022 C 
HETATM    2  C2  UNL     1      26.529   4.376  49.581  1.00  0.00    -0.016 C 
HETATM    3  C3  UNL     1      27.520   5.140  48.865  1.00  0.00     0.301 C 
HETATM    4  O1  UNL     1      28.454   4.609  48.186  1.00  0.00    -0.258 OA
HETATM    5  N1  UNL     1      27.558   6.555  48.845  1.00  0.00    -0.301 N 
HETATM    6  H2  UNL     1      26.814   7.085  49.388  1.00  0.00     0.171 HD
ENDROOT
BRANCH   5   7
HETATM    7  C4  UNL     1      28.673   6.991  48.039  1.00  0.00     0.131 C 
HETATM    8  C5  UNL     1      29.933   7.049  48.594  1.00  0.00     0.067 C 
HETATM    9  C6  UNL     1      31.210   6.666  48.333  1.00  0.00     0.026 C 
HETATM   10  C7  UNL     1      31.915   6.606  47.123  1.00  0.00     0.081 C 
HETATM   11  N2  UNL     1      31.610   7.777  46.527  1.00  0.00    -0.240 NA
HETATM   12  C14 UNL     1      31.070   7.879  45.305  1.00  0.00     0.233 C 
HETATM   13  N3  UNL     1      29.914   8.530  45.105  1.00  0.00    -0.253 NA
HETATM   14  C15 UNL     1      29.318   9.184  46.120  1.00  0.00     0.137 C 
HETATM   15  C16 UNL     1      28.113   8.589  46.475  1.00  0.00     0.138 C 
HETATM   16  N4  UNL     1      28.177   7.269  46.806  1.00  0.00    -0.242 NA
BRANCH   9  17
HETATM   17  P1  UNL     1      32.272   6.116  49.745  1.00  0.00     0.045 P 
HETATM   18  H4  UNL     1      32.865   7.320  50.295  1.00  0.00     0.092 HD
BRANCH  17  19
HETATM   19  O2  UNL     1      31.352   5.240  50.920  1.00  0.00    -0.371 OA
HETATM   20  H5  UNL     1      30.663   5.807  51.311  1.00  0.00     0.215 HD
ENDBRANCH  17  19
ENDBRANCH   9  17
BRANCH  10  21
HETATM   21  C8  UNL     1      32.724   5.429  46.817  1.00  0.00    -0.005 A 
HETATM   22  C9  UNL     1      34.041   5.610  46.440  1.00  0.00     0.014 A 
HETATM   23  C10 UNL     1      34.748   4.457  46.164  1.00  0.00     0.002 A 
HETATM   24  C11 UNL     1      34.213   3.177  46.247  1.00  0.00     0.019 A 
HETATM   25  C12 UNL     1      32.890   3.088  46.631  1.00  0.00     0.011 A 
HETATM   26 BR1  UNL     1      32.190   1.316  46.734  1.00  0.00    -0.051 Br
HETATM   27  C13 UNL     1      32.126   4.184  46.920  1.00  0.00     0.032 A 
ENDBRANCH  10  21
ENDBRANCH   5   7
TORSDOF 4
ENDMDL
MODEL 3
REMARK VINA RESULT:      -6.8      3.644      6.441
REMARK  4 active torsions:
REMARK  status: ('A' for Active; 'I' for Inactive)
REMARK       I    between atoms: C3_3  and  N1_5 
REMARK    1  A    between atoms: N1_5  and  C4_6 
REMARK    2  A    between atoms: C6_8  and  P1_9 
REMARK    3  A    between atoms: P1_9  and  O2_10 
REMARK    4  A    between atoms: C7_11  and  C8_12 
ROOT
HETATM    1  C1  UNL     1      16.096   4.065  51.537  1.00  0.00     0.022 C 
HETATM    2  C2  UNL     1      17.201   3.593  51.607  1.00  0.00    -0.016 C 
HETATM    3  C3  UNL     1      18.530   3.040  51.685  1.00  0.00     0.301 C 
HETATM    4  O1  UNL     1      19.563   3.737  51.930  1.00  0.00    -0.258 OA
HETATM    5  N1  UNL     1      18.822   1.667  51.496  1.00  0.00    -0.301 N 
HETATM    6  H2  UNL     1      18.017   1.007  51.285  1.00  0.00     0.171 HD
ENDROOT
BRANCH   5   7
HETATM    7  C4  UNL     1      20.242   1.457  51.641  1.00  0.00     0.131 C 
HETATM    8  C5  UNL     1      21.048   1.450  50.523  1.00  0.00     0.067 C 
HETATM    9  C6  UNL     1      22.207   1.990  50.066  1.00  0.00     0.026 C 
HETATM   10  C7  UNL     1      23.403   2.283  50.735  1.00  0.00     0.081 C 
HETATM   11  N2  UNL     1      23.622   1.178  51.478  1.00  0.00    -0.240 NA
HETATM   12  C14 UNL     1      23.788   1.190  52.808  1.00  0.00     0.233 C 
HETATM   13  N3  UNL     1      23.004   0.461  53.615  1.00  0.00    -0.253 NA
HETATM   14  C15 UNL     1      22.089  -0.381  53.096  1.00  0.00     0.137 C 
HETATM   15  C16 UNL     1      20.793   0.038  53.372  1.00  0.00     0.138 C 
HETATM   16  N4  UNL     1      20.478   1.301  52.969  1.00  0.00    -0.242 NA
BRANCH   9  17
HETATM   17  P1  UNL     1      22.321   2.447  48.277  1.00  0.00     0.045 P 
HETATM   18  H4  UNL     1      22.724   1.240  47.578  1.00  0.00     0.092 HD
BRANCH  17  19
HETATM   19  O2  UNL     1      20.820   3.076  47.691  1.00  0.00    -0.371 OA
HETATM   20  H5  UNL     1      20.085   2.810  48.273  1.00  0.00     0.215 HD
ENDBRANCH  17  19
ENDBRANCH   9  17
BRANCH  10  21
HETATM   21  C8  UNL     1      24.064   3.565  50.504  1.00  0.00    -0.005 A 
HETATM   22  C9  UNL     1      23.452   4.717  50.961  1.00  0.00     0.014 A 
HETATM   23  C10 UNL     1      24.130   5.894  50.710  1.00  0.00     0.002 A 
HETATM   24  C11 UNL     1      25.349   5.963  50.046  1.00  0.00     0.019 A 
HETATM   25  C12 UNL     1      25.888   4.764  49.624  1.00  0.00     0.011 A 
HETATM   26 BR1  UNL     1      27.562   4.900  48.717  1.00  0.00    -0.051 Br
HETATM   27  C13 UNL     1      25.277   3.560  49.836  1.00  0.00     0.032 A 
ENDBRANCH  10  21
ENDBRANCH   5   7
TORSDOF 4
ENDMDL
MODEL 4
REMARK VINA RESULT:      -6.7      2.839      3.840
REMARK  4 active torsions:
REMARK  status: ('A' for Active; 'I' for Inactive)
REMARK       I    between atoms: C3_3  and  N1_5 
REMARK    1  A    between atoms: N1_5  and  C4_6 
REMARK    2  A    between atoms: C6_8  and  P1_9 
REMARK    3  A    between atoms: P1_9  and  O2_10 
REMARK    4  A    between atoms: C7_11  and  C8_12 
ROOT
HETATM    1  C1  UNL     1      29.017  -0.120  54.495  1.00  0.00     0.022 C 
HETATM    2  C2  UNL     1      27.843   0.056  54.299  1.00  0.00    -0.016 C 
HETATM    3  C3  UNL     1      26.434   0.269  54.079  1.00  0.00     0.301 C 
HETATM    4  O1  UNL     1      25.744   1.110  54.735  1.00  0.00    -0.258 OA
HETATM    5  N1  UNL     1      25.675  -0.433  53.112  1.00  0.00    -0.301 N 
HETATM    6  H2  UNL     1      26.171  -1.159  52.515  1.00  0.00     0.171 HD
ENDROOT
BRANCH   5   7
HETATM    7  C4  UNL     1      24.307   0.023  53.156  1.00  0.00     0.131 C 
HETATM    8  C5  UNL     1      24.024   1.352  52.927  1.00  0.00     0.067 C 
HETATM    9  C6  UNL     1      23.188   2.132  52.194  1.00  0.00     0.026 C 
HETATM   10  C7  UNL     1      21.846   1.946  51.835  1.00  0.00     0.081 C 
HETATM   11  N2  UNL     1      21.271   1.535  52.985  1.00  0.00    -0.240 NA
HETATM   12  C14 UNL     1      20.583   0.393  53.114  1.00  0.00     0.233 C 
HETATM   13  N3  UNL     1      20.922  -0.528  54.028  1.00  0.00    -0.253 NA
HETATM   14  C15 UNL     1      21.910  -0.278  54.909  1.00  0.00     0.137 C 
HETATM   15  C16 UNL     1      23.008  -1.102  54.694  1.00  0.00     0.138 C 
HETATM   16  N4  UNL     1      23.543  -1.063  53.441  1.00  0.00    -0.242 NA
BRANCH   9  17
HETATM   17  P1  UNL     1      23.839   3.725  51.513  1.00  0.00     0.045 P 
HETATM   18  H4  UNL     1      22.955   4.086  50.420  1.00  0.00     0.092 HD
BRANCH  17  19
HETATM   19  O2  UNL     1      23.908   4.949  52.734  1.00  0.00    -0.371 OA
HETATM   20  H5  UNL     1      24.500   4.678  53.460  1.00  0.00     0.215 HD
ENDBRANCH  17  19
ENDBRANCH   9  17
BRANCH  10  21
HETATM   21  C8  UNL     1      21.423   2.206  50.462  1.00  0.00    -0.005 A 
HETATM   22  C9  UNL     1      21.932   1.413  49.450  1.00  0.00     0.014 A 
HETATM   23  C10 UNL     1      21.491   1.713  48.177  1.00  0.00     0.002 A 
HETATM   24  C11 UNL     1      20.596   2.734  47.884  1.00  0.00     0.019 A 
HETATM   25  C12 UNL     1      20.138   3.477  48.954  1.00  0.00     0.011 A 
HETATM   26 BR1  UNL     1      18.911   4.870  48.512  1.00  0.00    -0.051 Br
HETATM   27  C13 UNL     1      20.528   3.240  50.242  1.00  0.00     0.032 A 
ENDBRANCH  10  21
ENDBRANCH   5   7
TORSDOF 4
ENDMDL
MODEL 5
REMARK VINA RESULT:      -6.6      8.135     10.657
REMARK  4 active torsions:
REMARK  status: ('A' for Active; 'I' for Inactive)
REMARK       I    between atoms: C3_3  and  N1_5 
REMARK    1  A    between atoms: N1_5  and  C4_6 
REMARK    2  A    between atoms: C6_8  and  P1_9 
REMARK    3  A    between atoms: P1_9  and  O2_10 
REMARK    4  A    between atoms: C7_11  and  C8_12 
ROOT
HETATM    1  C1  UNL     1      34.620   9.671  42.308  1.00  0.00     0.022 C 
HETATM    2  C2  UNL     1      34.230   8.843  43.090  1.00  0.00    -0.016 C 
HETATM    3  C3  UNL     1      33.751   7.859  44.028  1.00  0.00     0.301 C 
HETATM    4  O1  UNL     1      32.527   7.534  44.134  1.00  0.00    -0.258 OA
HETATM    5  N1  UNL     1      34.590   7.155  44.926  1.00  0.00    -0.301 N 
HETATM    6  H2  UNL     1      35.631   7.363  44.908  1.00  0.00     0.171 HD
ENDROOT
BRANCH   5   7
HETATM    7  C4  UNL     1      33.790   6.253  45.717  1.00  0.00     0.131 C 
HETATM    8  C5  UNL     1      33.331   6.654  46.954  1.00  0.00     0.067 C 
HETATM    9  C6  UNL     1      32.188   6.684  47.686  1.00  0.00     0.026 C 
HETATM   10  C7  UNL     1      31.129   5.769  47.764  1.00  0.00     0.081 C 
HETATM   11  N2  UNL     1      31.755   4.578  47.859  1.00  0.00    -0.240 NA
HETATM   12  C14 UNL     1      31.549   3.553  47.021  1.00  0.00     0.233 C 
HETATM   13  N3  UNL     1      32.560   2.994  46.339  1.00  0.00    -0.253 NA
HETATM   14  C15 UNL     1      33.828   3.389  46.560  1.00  0.00     0.137 C 
HETATM   15  C16 UNL     1      34.362   4.035  45.451  1.00  0.00     0.138 C 
HETATM   16  N4  UNL     1      33.661   5.110  44.994  1.00  0.00    -0.242 NA
BRANCH   9  17
HETATM   17  P1  UNL     1      31.891   8.135  48.795  1.00  0.00     0.045 P 
HETATM   18  H4  UNL     1      30.783   8.867  48.210  1.00  0.00     0.092 HD
BRANCH  17  19
HETATM   19  O2  UNL     1      31.562   7.630  50.417  1.00  0.00    -0.371 OA
HETATM   20  H5  UNL     1      32.239   7.000  50.725  1.00  0.00     0.215 HD
ENDBRANCH  17  19
ENDBRANCH   9  17
BRANCH  10  21
HETATM   21  C8  UNL     1      29.752   6.254  47.728  1.00  0.00    -0.005 A 
HETATM   22  C9  UNL     1      29.473   7.407  47.017  1.00  0.00     0.014 A 
HETATM   23  C10 UNL     1      28.153   7.809  47.025  1.00  0.00     0.002 A 
HETATM   24  C11 UNL     1      27.137   7.132  47.689  1.00  0.00     0.019 A 
HETATM   25  C12 UNL     1      27.504   5.991  48.374  1.00  0.00     0.011 A 
HETATM   26 BR1  UNL     1      26.082   5.089  49.272  1.00  0.00    -0.051 Br
HETATM   27  C13 UNL     1      28.790   5.530  48.412  1.00  0.00     0.032 A 
ENDBRANCH  10  21
ENDBRANCH   5   7
TORSDOF 4
ENDMDL
MODEL 6
REMARK VINA RESULT:      -6.5      3.832      5.787
REMARK  4 active torsions:
REMARK  status: ('A' for Active; 'I' for Inactive)
REMARK       I    between atoms: C3_3  and  N1_5 
REMARK    1  A    between atoms: N1_5  and  C4_6 
REMARK    2  A    between atoms: C6_8  and  P1_9 
REMARK    3  A    between atoms: P1_9  and  O2_10 
REMARK    4  A    between atoms: C7_11  and  C8_12 
ROOT
HETATM    1  C1  UNL     1      21.254   8.838  49.574  1.00  0.00     0.022 C 
HETATM    2  C2  UNL     1      21.404   7.688  49.898  1.00  0.00    -0.016 C 
HETATM    3  C3  UNL     1      21.573   6.308  50.277  1.00  0.00     0.301 C 
HETATM    4  O1  UNL     1      21.307   5.335  49.506  1.00  0.00    -0.258 OA
HETATM    5  N1  UNL     1      22.051   5.894  51.545  1.00  0.00    -0.301 N 
HETATM    6  H2  UNL     1      22.299   6.642  52.257  1.00  0.00     0.171 HD
ENDROOT
BRANCH   5   7
HETATM    7  C4  UNL     1      22.096   4.453  51.589  1.00  0.00     0.131 C 
HETATM    8  C5  UNL     1      23.044   3.778  50.850  1.00  0.00     0.067 C 
HETATM    9  C6  UNL     1      23.970   2.794  50.985  1.00  0.00     0.026 C 
HETATM   10  C7  UNL     1      23.943   1.612  51.740  1.00  0.00     0.081 C 
HETATM   11  N2  UNL     1      22.713   1.115  51.493  1.00  0.00    -0.240 NA
HETATM   12  C14 UNL     1      21.818   0.820  52.445  1.00  0.00     0.233 C 
HETATM   13  N3  UNL     1      20.593   1.366  52.445  1.00  0.00    -0.253 NA
HETATM   14  C15 UNL     1      20.200   2.154  51.425  1.00  0.00     0.137 C 
HETATM   15  C16 UNL     1      20.025   3.470  51.834  1.00  0.00     0.138 C 
HETATM   16  N4  UNL     1      21.103   4.057  52.426  1.00  0.00    -0.242 NA
BRANCH   9  17
HETATM   17  P1  UNL     1      25.565   2.950  50.060  1.00  0.00     0.045 P 
HETATM   18  H4  UNL     1      25.235   3.575  48.793  1.00  0.00     0.092 HD
BRANCH  17  19
HETATM   19  O2  UNL     1      26.728   3.862  50.960  1.00  0.00    -0.371 OA
HETATM   20  H5  UNL     1      27.145   4.539  50.397  1.00  0.00     0.215 HD
ENDBRANCH  17  19
ENDBRANCH   9  17
BRANCH  10  21
HETATM   21  C8  UNL     1      25.111   1.232  52.529  1.00  0.00    -0.005 A 
HETATM   22  C9  UNL     1      25.571   2.107  53.496  1.00  0.00     0.014 A 
HETATM   23  C10 UNL     1      26.679   1.686  54.204  1.00  0.00     0.002 A 
HETATM   24  C11 UNL     1      27.321   0.472  53.995  1.00  0.00     0.019 A 
HETATM   25  C12 UNL     1      26.796  -0.340  53.010  1.00  0.00     0.011 A 
HETATM   26 BR1  UNL     1      27.705  -1.998  52.751  1.00  0.00    -0.051 Br
HETATM   27  C13 UNL     1      25.702   0.008  52.267  1.00  0.00     0.032 A 
ENDBRANCH  10  21
ENDBRANCH   5   7
TORSDOF 4
ENDMDL
MODEL 7
REMARK VINA RESULT:      -6.5      2.697      3.212
REMARK  4 active torsions:
REMARK  status: ('A' for Active; 'I' for Inactive)
REMARK       I    between atoms: C3_3  and  N1_5 
REMARK    1  A    between atoms: N1_5  and  C4_6 
REMARK    2  A    between atoms: C6_8  and  P1_9 
REMARK    3  A    between atoms: P1_9  and  O2_10 
REMARK    4  A    between atoms: C7_11  and  C8_12 
ROOT
HETATM    1  C1  UNL     1      28.281   5.198  48.407  1.00  0.00     0.022 C 
HETATM    2  C2  UNL     1      27.318   4.722  48.948  1.00  0.00    -0.016 C 
HETATM    3  C3  UNL     1      26.155   4.157  49.587  1.00  0.00     0.301 C 
HETATM    4  O1  UNL     1      25.094   3.849  48.960  1.00  0.00    -0.258 OA
HETATM    5  N1  UNL     1      26.074   3.889  50.975  1.00  0.00    -0.301 N 
HETATM    6  H2  UNL     1      26.917   4.116  51.580  1.00  0.00     0.171 HD
ENDROOT
BRANCH   5   7
HETATM    7  C4  UNL     1      24.779   3.330  51.277  1.00  0.00     0.131 C 
HETATM    8  C5  UNL     1      23.707   4.171  51.493  1.00  0.00     0.067 C 
HETATM    9  C6  UNL     1      22.415   4.337  51.112  1.00  0.00     0.026 C 
HETATM   10  C7  UNL     1      21.417   3.392  50.832  1.00  0.00     0.081 C 
HETATM   11  N2  UNL     1      21.533   2.509  51.845  1.00  0.00    -0.240 NA
HETATM   12  C14 UNL     1      21.731   1.195  51.676  1.00  0.00     0.233 C 
HETATM   13  N3  UNL     1      22.781   0.570  52.229  1.00  0.00    -0.253 NA
HETATM   14  C15 UNL     1      23.611   1.236  53.055  1.00  0.00     0.137 C 
HETATM   15  C16 UNL     1      24.877   1.378  52.501  1.00  0.00     0.138 C 
HETATM   16  N4  UNL     1      24.927   1.980  51.280  1.00  0.00    -0.242 NA
BRANCH   9  17
HETATM   17  P1  UNL     1      21.772   6.059  50.900  1.00  0.00     0.045 P 
HETATM   18  H4  UNL     1      20.583   6.149  51.727  1.00  0.00     0.092 HD
BRANCH  17  19
HETATM   19  O2  UNL     1      22.966   7.233  51.335  1.00  0.00    -0.371 OA
HETATM   20  H5  UNL     1      23.156   7.194  52.291  1.00  0.00     0.215 HD
ENDBRANCH  17  19
ENDBRANCH   9  17
BRANCH  10  21
HETATM   21  C8  UNL     1      20.579   3.558  49.647  1.00  0.00    -0.005 A 
HETATM   22  C9  UNL     1      19.207   3.618  49.810  1.00  0.00     0.014 A 
HETATM   23  C10 UNL     1      18.474   3.774  48.650  1.00  0.00     0.002 A 
HETATM   24  C11 UNL     1      19.035   3.870  47.382  1.00  0.00     0.019 A 
HETATM   25  C12 UNL     1      20.412   3.801  47.312  1.00  0.00     0.011 A 
HETATM   26 BR1  UNL     1      21.145   3.936  45.555  1.00  0.00    -0.051 Br
HETATM   27  C13 UNL     1      21.205   3.647  48.415  1.00  0.00     0.032 A 
ENDBRANCH  10  21
ENDBRANCH   5   7
TORSDOF 4
ENDMDL
MODEL 8
REMARK VINA RESULT:      -6.5      3.555      6.346
REMARK  4 active torsions:
REMARK  status: ('A' for Active; 'I' for Inactive)
REMARK       I    between atoms: C3_3  and  N1_5 
REMARK    1  A    between atoms: N1_5  and  C4_6 
REMARK    2  A    between atoms: C6_8  and  P1_9 
REMARK    3  A    between atoms: P1_9  and  O2_10 
REMARK    4  A    between atoms: C7_11  and  C8_12 
ROOT
HETATM    1  C1  UNL     1      18.047  -0.510  52.396  1.00  0.00     0.022 C 
HETATM    2  C2  UNL     1      19.177  -0.127  52.238  1.00  0.00    -0.016 C 
HETATM    3  C3  UNL     1      20.534   0.319  52.046  1.00  0.00     0.301 C 
HETATM    4  O1  UNL     1      21.355  -0.259  51.269  1.00  0.00    -0.258 OA
HETATM    5  N1  UNL     1      21.091   1.443  52.702  1.00  0.00    -0.301 N 
HETATM    6  H2  UNL     1      20.476   1.990  53.373  1.00  0.00     0.171 HD
ENDROOT
BRANCH   5   7
HETATM    7  C4  UNL     1      22.463   1.607  52.285  1.00  0.00     0.131 C 
HETATM    8  C5  UNL     1      22.742   1.945  50.978  1.00  0.00     0.067 C 
HETATM    9  C6  UNL     1      23.489   2.824  50.261  1.00  0.00     0.026 C 
HETATM   10  C7  UNL     1      24.766   3.348  50.506  1.00  0.00     0.081 C 
HETATM   11  N2  UNL     1      25.481   2.264  50.873  1.00  0.00    -0.240 NA
HETATM   12  C14 UNL     1      26.155   2.166  52.027  1.00  0.00     0.233 C 
HETATM   13  N3  UNL     1      25.921   1.165  52.889  1.00  0.00    -0.253 NA
HETATM   14  C15 UNL     1      25.067   0.175  52.566  1.00  0.00     0.137 C 
HETATM   15  C16 UNL     1      23.932   0.197  53.367  1.00  0.00     0.138 C 
HETATM   16  N4  UNL     1      23.234   1.367  53.376  1.00  0.00    -0.242 NA
BRANCH   9  17
HETATM   17  P1  UNL     1      22.789   3.498  48.687  1.00  0.00     0.045 P 
HETATM   18  H4  UNL     1      22.805   2.402  47.738  1.00  0.00     0.092 HD
BRANCH  17  19
HETATM   19  O2  UNL     1      21.198   4.136  48.929  1.00  0.00    -0.371 OA
HETATM   20  H5  UNL     1      20.950   4.094  49.870  1.00  0.00     0.215 HD
ENDBRANCH  17  19
ENDBRANCH   9  17
BRANCH  10  21
HETATM   21  C8  UNL     1      25.006   4.778  50.329  1.00  0.00    -0.005 A 
HETATM   22  C9  UNL     1      24.237   5.672  51.050  1.00  0.00     0.014 A 
HETATM   23  C10 UNL     1      24.516   7.008  50.835  1.00  0.00     0.002 A 
HETATM   24  C11 UNL     1      25.495   7.468  49.964  1.00  0.00     0.019 A 
HETATM   25  C12 UNL     1      26.216   6.506  49.285  1.00  0.00     0.011 A 
HETATM   26 BR1  UNL     1      27.551   7.176  48.097  1.00  0.00    -0.051 Br
HETATM   27  C13 UNL     1      25.998   5.165  49.444  1.00  0.00     0.032 A 
ENDBRANCH  10  21
ENDBRANCH   5   7
TORSDOF 4
ENDMDL
MODEL 9
REMARK VINA RESULT:      -6.4      3.616      5.540
REMARK  4 active torsions:
REMARK  status: ('A' for Active; 'I' for Inactive)
REMARK       I    between atoms: C3_3  and  N1_5 
REMARK    1  A    between atoms: N1_5  and  C4_6 
REMARK    2  A    between atoms: C6_8  and  P1_9 
REMARK    3  A    between atoms: P1_9  and  O2_10 
REMARK    4  A    between atoms: C7_11  and  C8_12 
ROOT
HETATM    1  C1  UNL     1      25.874   9.565  49.737  1.00  0.00     0.022 C 
HETATM    2  C2  UNL     1      25.406   8.490  50.009  1.00  0.00    -0.016 C 
HETATM    3  C3  UNL     1      24.841   7.201  50.322  1.00  0.00     0.301 C 
HETATM    4  O1  UNL     1      24.797   6.239  49.494  1.00  0.00    -0.258 OA
HETATM    5  N1  UNL     1      24.277   6.875  51.579  1.00  0.00    -0.301 N 
HETATM    6  H2  UNL     1      24.270   7.620  52.335  1.00  0.00     0.171 HD
ENDROOT
BRANCH   5   7
HETATM    7  C4  UNL     1      23.807   5.511  51.551  1.00  0.00     0.131 C 
HETATM    8  C5  UNL     1      24.528   4.555  50.867  1.00  0.00     0.067 C 
HETATM    9  C6  UNL     1      25.028   3.304  51.035  1.00  0.00     0.026 C 
HETATM   10  C7  UNL     1      24.507   2.197  51.719  1.00  0.00     0.081 C 
HETATM   11  N2  UNL     1      23.214   2.174  51.334  1.00  0.00    -0.240 NA
HETATM   12  C14 UNL     1      22.177   2.201  52.182  1.00  0.00     0.233 C 
HETATM   13  N3  UNL     1      21.231   3.148  52.098  1.00  0.00    -0.253 NA
HETATM   14  C15 UNL     1      21.250   4.041  51.090  1.00  0.00     0.137 C 
HETATM   15  C16 UNL     1      21.509   5.326  51.550  1.00  0.00     0.138 C 
HETATM   16  N4  UNL     1      22.656   5.481  52.270  1.00  0.00    -0.242 NA
BRANCH   9  17
HETATM   17  P1  UNL     1      26.663   2.898  50.271  1.00  0.00     0.045 P 
HETATM   18  H4  UNL     1      26.388   1.937  49.219  1.00  0.00     0.092 HD
BRANCH  17  19
HETATM   19  O2  UNL     1      27.449   4.319  49.673  1.00  0.00    -0.371 OA
HETATM   20  H5  UNL     1      27.686   4.916  50.407  1.00  0.00     0.215 HD
ENDBRANCH  17  19
ENDBRANCH   9  17
BRANCH  10  21
HETATM   21  C8  UNL     1      25.377   1.412  52.592  1.00  0.00    -0.005 A 
HETATM   22  C9  UNL     1      25.774   1.960  53.797  1.00  0.00     0.014 A 
HETATM   23  C10 UNL     1      26.595   1.165  54.572  1.00  0.00     0.002 A 
HETATM   24  C11 UNL     1      27.019  -0.106  54.206  1.00  0.00     0.019 A 
HETATM   25  C12 UNL     1      26.575  -0.575  52.986  1.00  0.00     0.011 A 
HETATM   26 BR1  UNL     1      27.177  -2.324  52.518  1.00  0.00    -0.051 Br
HETATM   27  C13 UNL     1      25.760   0.152  52.164  1.00  0.00     0.032 A 
ENDBRANCH  10  21
ENDBRANCH   5   7
TORSDOF 4
ENDMDL
