MODEL 1
REMARK VINA RESULT:      -8.7      0.000      0.000
REMARK  4 active torsions:
REMARK  status: ('A' for Active; 'I' for Inactive)
REMARK    1  A    between atoms: O1_2  and  C2_3 
REMARK    2  A    between atoms: C3_4  and  O2_5 
REMARK    3  A    between atoms: C8_10  and  C9_11 
REMARK    4  A    between atoms: C9_11  and  C10_12 
ROOT
HETATM    1  C2  UNL     1      21.736   0.362  51.842  1.00  0.00     0.104 C 
HETATM    2  C3  UNL     1      22.640  -0.059  52.748  1.00  0.00     0.135 C 
HETATM    3  C5  UNL     1      23.872   0.560  53.232  1.00  0.00     0.106 C 
HETATM    4  C6  UNL     1      24.240   1.744  52.803  1.00  0.00     0.052 C 
HETATM    5  C7  UNL     1      24.022   2.320  51.433  1.00  0.00    -0.021 C 
HETATM    6  C8  UNL     1      25.074   2.793  50.802  1.00  0.00     0.035 C 
HETATM    7  C16 UNL     1      26.310   2.495  51.483  1.00  0.00     0.384 C 
HETATM    8  O3  UNL     1      27.484   2.682  51.449  1.00  0.00    -0.257 OA
HETATM    9  N1  UNL     1      26.837   1.779  52.598  1.00  0.00     0.195 N 
HETATM   10  C17 UNL     1      26.766   0.885  53.725  1.00  0.00     0.213 A 
HETATM   11  O4  UNL     1      27.867   1.391  53.521  1.00  0.00     0.000 OA
HETATM   12  C18 UNL     1      25.927  -0.019  54.554  1.00  0.00     0.246 C 
HETATM   13  O5  UNL     1      24.612  -0.128  54.131  1.00  0.00    -0.342 OA
HETATM   14  C19 UNL     1      22.805   2.383  50.652  1.00  0.00     0.015 C 
HETATM   15  C20 UNL     1      21.856   1.480  50.874  1.00  0.00     0.040 C 
HETATM   16  H14 UNL     1      27.863   1.978  52.658  1.00  0.00     0.335 HD
ENDROOT
BRANCH   6  17
HETATM   17  C9  UNL     1      25.147   3.400  49.513  1.00  0.00     0.083 C 
BRANCH  17  18
HETATM   18  C10 UNL     1      25.617   4.830  49.534  1.00  0.00    -0.052 A 
HETATM   19  C11 UNL     1      24.859   5.623  50.394  1.00  0.00     0.007 A 
HETATM   20  C12 UNL     1      25.206   6.955  50.487  1.00  0.00     0.002 A 
HETATM   21  C13 UNL     1      26.244   7.535  49.789  1.00  0.00     0.018 A 
HETATM   22  C14 UNL     1      26.975   6.699  48.938  1.00  0.00     0.006 A 
HETATM   23  I1  UNL     1      28.598   7.370  47.774  1.00  0.00    -0.045 I 
HETATM   24  C15 UNL     1      26.645   5.365  48.829  1.00  0.00     0.025 A 
ENDBRANCH  17  18
ENDBRANCH   6  17
BRANCH   2  25
HETATM   25  O2  UNL     1      22.366  -1.290  53.331  1.00  0.00    -0.351 OA
HETATM   26  C4  UNL     1      21.673  -1.501  54.520  1.00  0.00     0.210 C 
ENDBRANCH   2  25
BRANCH   1  27
HETATM   27  O1  UNL     1      20.532  -0.314  51.779  1.00  0.00    -0.353 OA
HETATM   28  C1  UNL     1      19.302   0.356  52.090  1.00  0.00     0.210 C 
ENDBRANCH   1  27
TORSDOF 4
ENDMDL
MODEL 2
REMARK VINA RESULT:      -8.2      1.977      2.232
REMARK  4 active torsions:
REMARK  status: ('A' for Active; 'I' for Inactive)
REMARK    1  A    between atoms: O1_2  and  C2_3 
REMARK    2  A    between atoms: C3_4  and  O2_5 
REMARK    3  A    between atoms: C8_10  and  C9_11 
REMARK    4  A    between atoms: C9_11  and  C10_12 
ROOT
HETATM    1  C2  UNL     1      22.344   0.137  52.777  1.00  0.00     0.104 C 
HETATM    2  C3  UNL     1      23.513   0.010  53.435  1.00  0.00     0.135 C 
HETATM    3  C5  UNL     1      24.674   0.895  53.506  1.00  0.00     0.106 C 
HETATM    4  C6  UNL     1      24.673   2.053  52.888  1.00  0.00     0.052 C 
HETATM    5  C7  UNL     1      24.005   2.384  51.585  1.00  0.00    -0.021 C 
HETATM    6  C8  UNL     1      24.745   2.939  50.650  1.00  0.00     0.035 C 
HETATM    7  C16 UNL     1      26.146   2.957  50.990  1.00  0.00     0.384 C 
HETATM    8  O3  UNL     1      27.210   3.338  50.619  1.00  0.00    -0.257 OA
HETATM    9  N1  UNL     1      27.071   2.507  51.978  1.00  0.00     0.195 N 
HETATM   10  C17 UNL     1      27.470   1.781  53.157  1.00  0.00     0.213 A 
HETATM   11  O4  UNL     1      28.357   2.435  52.615  1.00  0.00     0.000 OA
HETATM   12  C18 UNL     1      27.069   0.870  54.260  1.00  0.00     0.246 C 
HETATM   13  O5  UNL     1      25.740   0.478  54.225  1.00  0.00    -0.342 OA
HETATM   14  C19 UNL     1      22.644   2.125  51.164  1.00  0.00     0.015 C 
HETATM   15  C20 UNL     1      21.986   1.112  51.717  1.00  0.00     0.040 C 
HETATM   16  H14 UNL     1      28.016   2.886  51.736  1.00  0.00     0.335 HD
ENDROOT
BRANCH   6  17
HETATM   17  C9  UNL     1      24.366   3.362  49.342  1.00  0.00     0.083 C 
BRANCH  17  18
HETATM   18  C10 UNL     1      24.118   4.842  49.223  1.00  0.00    -0.052 A 
HETATM   19  C11 UNL     1      25.247   5.535  48.789  1.00  0.00     0.007 A 
HETATM   20  C12 UNL     1      25.127   6.901  48.647  1.00  0.00     0.002 A 
HETATM   21  C13 UNL     1      23.972   7.608  48.908  1.00  0.00     0.018 A 
HETATM   22  C14 UNL     1      22.866   6.870  49.342  1.00  0.00     0.006 A 
HETATM   23  I1  UNL     1      21.002   7.740  49.799  1.00  0.00    -0.045 I 
HETATM   24  C15 UNL     1      22.964   5.503  49.491  1.00  0.00     0.025 A 
ENDBRANCH  17  18
ENDBRANCH   6  17
BRANCH   2  25
HETATM   25  O2  UNL     1      23.651  -1.156  54.178  1.00  0.00    -0.351 OA
HETATM   26  C4  UNL     1      23.304  -1.324  55.516  1.00  0.00     0.210 C 
ENDBRANCH   2  25
BRANCH   1  27
HETATM   27  O1  UNL     1      21.327  -0.739  53.107  1.00  0.00    -0.353 OA
HETATM   28  C1  UNL     1      20.004  -0.253  53.374  1.00  0.00     0.210 C 
ENDBRANCH   1  27
TORSDOF 4
ENDMDL
MODEL 3
REMARK VINA RESULT:      -8.2      4.025      6.873
REMARK  4 active torsions:
REMARK  status: ('A' for Active; 'I' for Inactive)
REMARK    1  A    between atoms: O1_2  and  C2_3 
REMARK    2  A    between atoms: C3_4  and  O2_5 
REMARK    3  A    between atoms: C8_10  and  C9_11 
REMARK    4  A    between atoms: C9_11  and  C10_12 
ROOT
HETATM    1  C2  UNL     1      22.071   3.905  47.219  1.00  0.00     0.104 C 
HETATM    2  C3  UNL     1      22.683   5.062  47.538  1.00  0.00     0.135 C 
HETATM    3  C5  UNL     1      23.521   5.420  48.680  1.00  0.00     0.106 C 
HETATM    4  C6  UNL     1      23.821   4.530  49.596  1.00  0.00     0.052 C 
HETATM    5  C7  UNL     1      22.957   3.401  50.080  1.00  0.00    -0.021 C 
HETATM    6  C8  UNL     1      22.764   3.302  51.377  1.00  0.00     0.035 C 
HETATM    7  C16 UNL     1      23.279   4.436  52.104  1.00  0.00     0.384 C 
HETATM    8  O3  UNL     1      23.445   4.869  53.199  1.00  0.00    -0.257 OA
HETATM    9  N1  UNL     1      23.879   5.717  51.915  1.00  0.00     0.195 N 
HETATM   10  C17 UNL     1      24.345   6.837  51.138  1.00  0.00     0.213 A 
HETATM   11  O4  UNL     1      24.532   6.920  52.349  1.00  0.00     0.000 OA
HETATM   12  C18 UNL     1      24.491   7.452  49.793  1.00  0.00     0.246 C 
HETATM   13  O5  UNL     1      23.970   6.693  48.756  1.00  0.00    -0.342 OA
HETATM   14  C19 UNL     1      22.234   2.410  49.312  1.00  0.00     0.015 C 
HETATM   15  C20 UNL     1      21.862   2.709  48.073  1.00  0.00     0.040 C 
HETATM   16  H14 UNL     1      24.118   6.106  52.856  1.00  0.00     0.335 HD
ENDROOT
BRANCH   6  17
HETATM   17  C9  UNL     1      22.009   2.330  52.098  1.00  0.00     0.083 C 
BRANCH  17  18
HETATM   18  C10 UNL     1      22.844   1.246  52.726  1.00  0.00    -0.052 A 
HETATM   19  C11 UNL     1      22.105   0.445  53.595  1.00  0.00     0.007 A 
HETATM   20  C12 UNL     1      22.776  -0.581  54.226  1.00  0.00     0.002 A 
HETATM   21  C13 UNL     1      24.116  -0.854  54.046  1.00  0.00     0.018 A 
HETATM   22  C14 UNL     1      24.816  -0.023  53.165  1.00  0.00     0.006 A 
HETATM   23  I1  UNL     1      26.867  -0.254  52.741  1.00  0.00    -0.045 I 
HETATM   24  C15 UNL     1      24.164   1.009  52.524  1.00  0.00     0.025 A 
ENDBRANCH  17  18
ENDBRANCH   6  17
BRANCH   2  25
HETATM   25  O2  UNL     1      22.494   6.100  46.634  1.00  0.00    -0.351 OA
HETATM   26  C4  UNL     1      21.488   7.061  46.683  1.00  0.00     0.210 C 
ENDBRANCH   2  25
BRANCH   1  27
HETATM   27  O1  UNL     1      21.560   3.784  45.940  1.00  0.00    -0.353 OA
HETATM   28  C1  UNL     1      20.142   3.745  45.722  1.00  0.00     0.210 C 
ENDBRANCH   1  27
TORSDOF 4
ENDMDL
MODEL 4
REMARK VINA RESULT:      -8.2      2.752      4.886
REMARK  4 active torsions:
REMARK  status: ('A' for Active; 'I' for Inactive)
REMARK    1  A    between atoms: O1_2  and  C2_3 
REMARK    2  A    between atoms: C3_4  and  O2_5 
REMARK    3  A    between atoms: C8_10  and  C9_11 
REMARK    4  A    between atoms: C9_11  and  C10_12 
ROOT
HETATM    1  C2  UNL     1      26.336  -0.305  53.700  1.00  0.00     0.104 C 
HETATM    2  C3  UNL     1      25.186  -0.697  54.282  1.00  0.00     0.135 C 
HETATM    3  C5  UNL     1      23.796  -0.551  53.855  1.00  0.00     0.106 C 
HETATM    4  C6  UNL     1      23.505   0.014  52.707  1.00  0.00     0.052 C 
HETATM    5  C7  UNL     1      24.243   1.136  52.035  1.00  0.00    -0.021 C 
HETATM    6  C8  UNL     1      23.543   2.188  51.670  1.00  0.00     0.035 C 
HETATM    7  C16 UNL     1      22.187   2.150  52.161  1.00  0.00     0.384 C 
HETATM    8  O3  UNL     1      21.147   2.724  52.127  1.00  0.00    -0.257 OA
HETATM    9  N1  UNL     1      21.314   1.394  52.998  1.00  0.00     0.195 N 
HETATM   10  C17 UNL     1      20.984   0.351  53.935  1.00  0.00     0.213 A 
HETATM   11  O4  UNL     1      20.041   1.045  53.566  1.00  0.00     0.000 OA
HETATM   12  C18 UNL     1      21.468  -0.783  54.766  1.00  0.00     0.246 C 
HETATM   13  O5  UNL     1      22.832  -1.015  54.680  1.00  0.00    -0.342 OA
HETATM   14  C19 UNL     1      25.661   1.269  51.774  1.00  0.00     0.015 C 
HETATM   15  C20 UNL     1      26.518   0.623  52.557  1.00  0.00     0.040 C 
HETATM   16  H14 UNL     1      20.359   1.817  52.938  1.00  0.00     0.335 HD
ENDROOT
BRANCH   6  17
HETATM   17  C9  UNL     1      23.985   3.372  51.009  1.00  0.00     0.083 C 
BRANCH  17  18
HETATM   18  C10 UNL     1      23.377   3.579  49.648  1.00  0.00    -0.052 A 
HETATM   19  C11 UNL     1      23.003   2.378  49.047  1.00  0.00     0.007 A 
HETATM   20  C12 UNL     1      22.435   2.454  47.793  1.00  0.00     0.002 A 
HETATM   21  C13 UNL     1      22.220   3.634  47.112  1.00  0.00     0.018 A 
HETATM   22  C14 UNL     1      22.611   4.813  47.755  1.00  0.00     0.006 A 
HETATM   23  I1  UNL     1      22.379   6.726  46.902  1.00  0.00    -0.045 I 
HETATM   24  C15 UNL     1      23.182   4.759  49.008  1.00  0.00     0.025 A 
ENDBRANCH  17  18
ENDBRANCH   6  17
BRANCH   2  25
HETATM   25  O2  UNL     1      25.332  -1.356  55.497  1.00  0.00    -0.351 OA
HETATM   26  C4  UNL     1      25.233  -0.782  56.761  1.00  0.00     0.210 C 
ENDBRANCH   2  25
BRANCH   1  27
HETATM   27  O1  UNL     1      27.516  -0.813  54.210  1.00  0.00    -0.353 OA
HETATM   28  C1  UNL     1      28.544   0.067  54.687  1.00  0.00     0.210 C 
ENDBRANCH   1  27
TORSDOF 4
ENDMDL
MODEL 5
REMARK VINA RESULT:      -8.1      3.783      5.761
REMARK  4 active torsions:
REMARK  status: ('A' for Active; 'I' for Inactive)
REMARK    1  A    between atoms: O1_2  and  C2_3 
REMARK    2  A    between atoms: C3_4  and  O2_5 
REMARK    3  A    between atoms: C8_10  and  C9_11 
REMARK    4  A    between atoms: C9_11  and  C10_12 
ROOT
HETATM    1  C2  UNL     1      18.942  -0.345  52.487  1.00  0.00     0.104 C 
HETATM    2  C3  UNL     1      18.958   0.286  51.297  1.00  0.00     0.135 C 
HETATM    3  C5  UNL     1      20.070   0.662  50.426  1.00  0.00     0.106 C 
HETATM    4  C6  UNL     1      21.304   0.351  50.744  1.00  0.00     0.052 C 
HETATM    5  C7  UNL     1      21.893   0.274  52.124  1.00  0.00    -0.021 C 
HETATM    6  C8  UNL     1      22.994   0.957  52.350  1.00  0.00     0.035 C 
HETATM    7  C16 UNL     1      23.342   1.828  51.254  1.00  0.00     0.384 C 
HETATM    8  O3  UNL     1      24.173   2.586  50.868  1.00  0.00    -0.257 OA
HETATM    9  N1  UNL     1      22.867   2.296  49.994  1.00  0.00     0.195 N 
HETATM   10  C17 UNL     1      21.903   2.431  48.931  1.00  0.00     0.213 A 
HETATM   11  O4  UNL     1      22.978   2.996  48.743  1.00  0.00     0.000 OA
HETATM   12  C18 UNL     1      20.545   2.103  48.425  1.00  0.00     0.246 C 
HETATM   13  O5  UNL     1      19.780   1.338  49.292  1.00  0.00    -0.342 OA
HETATM   14  C19 UNL     1      21.389  -0.410  53.295  1.00  0.00     0.015 C 
HETATM   15  C20 UNL     1      20.082  -0.629  53.393  1.00  0.00     0.040 C 
HETATM   16  H14 UNL     1      23.604   2.909  49.575  1.00  0.00     0.335 HD
ENDROOT
BRANCH   6  17
HETATM   17  C9  UNL     1      23.760   1.049  53.549  1.00  0.00     0.083 C 
BRANCH  17  18
HETATM   18  C10 UNL     1      25.181   0.570  53.408  1.00  0.00    -0.052 A 
HETATM   19  C11 UNL     1      25.254  -0.733  52.921  1.00  0.00     0.007 A 
HETATM   20  C12 UNL     1      26.514  -1.270  52.755  1.00  0.00     0.002 A 
HETATM   21  C13 UNL     1      27.684  -0.599  53.039  1.00  0.00     0.018 A 
HETATM   22  C14 UNL     1      27.560   0.706  53.526  1.00  0.00     0.006 A 
HETATM   23  I1  UNL     1      29.212   1.915  54.028  1.00  0.00    -0.045 I 
HETATM   24  C15 UNL     1      26.311   1.262  53.701  1.00  0.00     0.025 A 
ENDBRANCH  17  18
ENDBRANCH   6  17
BRANCH   2  25
HETATM   25  O2  UNL     1      17.711   0.646  50.800  1.00  0.00    -0.351 OA
HETATM   26  C4  UNL     1      16.937  -0.091  49.908  1.00  0.00     0.210 C 
ENDBRANCH   2  25
BRANCH   1  27
HETATM   27  O1  UNL     1      17.722  -0.799  52.953  1.00  0.00    -0.353 OA
HETATM   28  C1  UNL     1      17.609  -2.094  53.560  1.00  0.00     0.210 C 
ENDBRANCH   1  27
TORSDOF 4
ENDMDL
MODEL 6
REMARK VINA RESULT:      -8.0      3.710      7.890
REMARK  4 active torsions:
REMARK  status: ('A' for Active; 'I' for Inactive)
REMARK    1  A    between atoms: O1_2  and  C2_3 
REMARK    2  A    between atoms: C3_4  and  O2_5 
REMARK    3  A    between atoms: C8_10  and  C9_11 
REMARK    4  A    between atoms: C9_11  and  C10_12 
ROOT
HETATM    1  C2  UNL     1      27.425   5.820  48.490  1.00  0.00     0.104 C 
HETATM    2  C3  UNL     1      26.622   6.864  48.772  1.00  0.00     0.135 C 
HETATM    3  C5  UNL     1      25.511   6.994  49.712  1.00  0.00     0.106 C 
HETATM    4  C6  UNL     1      25.174   5.993  50.492  1.00  0.00     0.052 C 
HETATM    5  C7  UNL     1      25.249   4.528  50.170  1.00  0.00    -0.021 C 
HETATM    6  C8  UNL     1      24.158   3.814  50.345  1.00  0.00     0.035 C 
HETATM    7  C16 UNL     1      23.005   4.627  50.644  1.00  0.00     0.384 C 
HETATM    8  O3  UNL     1      21.853   4.573  50.934  1.00  0.00    -0.257 OA
HETATM    9  N1  UNL     1      22.581   5.984  50.750  1.00  0.00     0.195 N 
HETATM   10  C17 UNL     1      22.737   7.412  50.637  1.00  0.00     0.213 A 
HETATM   11  O4  UNL     1      21.657   7.033  51.083  1.00  0.00     0.000 OA
HETATM   12  C18 UNL     1      23.612   8.548  50.247  1.00  0.00     0.246 C 
HETATM   13  O5  UNL     1      24.850   8.172  49.748  1.00  0.00    -0.342 OA
HETATM   14  C19 UNL     1      26.353   3.768  49.624  1.00  0.00     0.015 C 
HETATM   15  C20 UNL     1      27.257   4.399  48.882  1.00  0.00     0.040 C 
HETATM   16  H14 UNL     1      21.589   5.991  51.082  1.00  0.00     0.335 HD
ENDROOT
BRANCH   6  17
HETATM   17  C9  UNL     1      23.958   2.418  50.132  1.00  0.00     0.083 C 
BRANCH  17  18
HETATM   18  C10 UNL     1      23.978   1.596  51.393  1.00  0.00    -0.052 A 
HETATM   19  C11 UNL     1      22.724   1.070  51.701  1.00  0.00     0.007 A 
HETATM   20  C12 UNL     1      22.631   0.300  52.842  1.00  0.00     0.002 A 
HETATM   21  C13 UNL     1      23.691   0.026  53.679  1.00  0.00     0.018 A 
HETATM   22  C14 UNL     1      24.929   0.577  53.330  1.00  0.00     0.006 A 
HETATM   23  I1  UNL     1      26.683   0.292  54.463  1.00  0.00    -0.045 I 
HETATM   24  C15 UNL     1      25.044   1.350  52.194  1.00  0.00     0.025 A 
ENDBRANCH  17  18
ENDBRANCH   6  17
BRANCH   2  25
HETATM   25  O2  UNL     1      26.884   8.024  48.052  1.00  0.00    -0.351 OA
HETATM   26  C4  UNL     1      26.362   8.352  46.803  1.00  0.00     0.210 C 
ENDBRANCH   2  25
BRANCH   1  27
HETATM   27  O1  UNL     1      28.560   6.071  47.742  1.00  0.00    -0.353 OA
HETATM   28  C1  UNL     1      29.833   5.546  48.149  1.00  0.00     0.210 C 
ENDBRANCH   1  27
TORSDOF 4
ENDMDL
MODEL 7
REMARK VINA RESULT:      -7.8      3.728      6.882
REMARK  4 active torsions:
REMARK  status: ('A' for Active; 'I' for Inactive)
REMARK    1  A    between atoms: O1_2  and  C2_3 
REMARK    2  A    between atoms: C3_4  and  O2_5 
REMARK    3  A    between atoms: C8_10  and  C9_11 
REMARK    4  A    between atoms: C9_11  and  C10_12 
ROOT
HETATM    1  C2  UNL     1      25.634   2.277  51.443  1.00  0.00     0.104 C 
HETATM    2  C3  UNL     1      25.992   1.380  52.383  1.00  0.00     0.135 C 
HETATM    3  C5  UNL     1      25.232   0.310  53.026  1.00  0.00     0.106 C 
HETATM    4  C6  UNL     1      23.988   0.072  52.681  1.00  0.00     0.052 C 
HETATM    5  C7  UNL     1      22.961   1.076  52.241  1.00  0.00    -0.021 C 
HETATM    6  C8  UNL     1      21.807   1.075  52.871  1.00  0.00     0.035 C 
HETATM    7  C16 UNL     1      21.806   0.211  54.026  1.00  0.00     0.384 C 
HETATM    8  O3  UNL     1      21.112  -0.221  54.890  1.00  0.00    -0.257 OA
HETATM    9  N1  UNL     1      22.658  -0.620  54.812  1.00  0.00     0.195 N 
HETATM   10  C17 UNL     1      23.920  -1.192  55.205  1.00  0.00     0.213 A 
HETATM   11  O4  UNL     1      22.943  -1.586  55.836  1.00  0.00     0.000 OA
HETATM   12  C18 UNL     1      25.389  -1.253  54.984  1.00  0.00     0.246 C 
HETATM   13  O5  UNL     1      25.853  -0.417  53.981  1.00  0.00    -0.342 OA
HETATM   14  C19 UNL     1      23.070   2.115  51.240  1.00  0.00     0.015 C 
HETATM   15  C20 UNL     1      24.272   2.606  50.957  1.00  0.00     0.040 C 
HETATM   16  H14 UNL     1      22.073  -1.088  55.542  1.00  0.00     0.335 HD
ENDROOT
BRANCH   6  17
HETATM   17  C9  UNL     1      20.666   1.902  52.650  1.00  0.00     0.083 C 
BRANCH  17  18
HETATM   18  C10 UNL     1      19.564   1.231  51.874  1.00  0.00    -0.052 A 
HETATM   19  C11 UNL     1      19.539   1.630  50.539  1.00  0.00     0.007 A 
HETATM   20  C12 UNL     1      18.564   1.074  49.737  1.00  0.00     0.002 A 
HETATM   21  C13 UNL     1      17.629   0.161  50.176  1.00  0.00     0.018 A 
HETATM   22  C14 UNL     1      17.693  -0.208  51.523  1.00  0.00     0.006 A 
HETATM   23  I1  UNL     1      16.365  -1.583  52.410  1.00  0.00    -0.045 I 
HETATM   24  C15 UNL     1      18.659   0.336  52.343  1.00  0.00     0.025 A 
ENDBRANCH  17  18
ENDBRANCH   6  17
BRANCH   2  25
HETATM   25  O2  UNL     1      27.306   1.476  52.824  1.00  0.00    -0.351 OA
HETATM   26  C4  UNL     1      27.778   2.318  53.827  1.00  0.00     0.210 C 
ENDBRANCH   2  25
BRANCH   1  27
HETATM   27  O1  UNL     1      26.643   3.002  50.835  1.00  0.00    -0.353 OA
HETATM   28  C1  UNL     1      26.485   3.489  49.495  1.00  0.00     0.210 C 
ENDBRANCH   1  27
TORSDOF 4
ENDMDL
MODEL 8
REMARK VINA RESULT:      -7.6      6.093      9.624
REMARK  4 active torsions:
REMARK  status: ('A' for Active; 'I' for Inactive)
REMARK    1  A    between atoms: O1_2  and  C2_3 
REMARK    2  A    between atoms: C3_4  and  O2_5 
REMARK    3  A    between atoms: C8_10  and  C9_11 
REMARK    4  A    between atoms: C9_11  and  C10_12 
ROOT
HETATM    1  C2  UNL     1      27.286   6.203  48.592  1.00  0.00     0.104 C 
HETATM    2  C3  UNL     1      27.467   7.533  48.478  1.00  0.00     0.135 C 
HETATM    3  C5  UNL     1      28.576   8.306  47.924  1.00  0.00     0.106 C 
HETATM    4  C6  UNL     1      29.611   7.702  47.389  1.00  0.00     0.052 C 
HETATM    5  C7  UNL     1      30.214   6.393  47.808  1.00  0.00    -0.021 C 
HETATM    6  C8  UNL     1      31.506   6.373  48.052  1.00  0.00     0.035 C 
HETATM    7  C16 UNL     1      32.091   7.691  48.052  1.00  0.00     0.384 C 
HETATM    8  O3  UNL     1      33.124   8.274  48.144  1.00  0.00    -0.257 OA
HETATM    9  N1  UNL     1      31.752   9.073  47.956  1.00  0.00     0.195 N 
HETATM   10  C17 UNL     1      30.848  10.192  47.879  1.00  0.00     0.213 A 
HETATM   11  O4  UNL     1      32.043  10.475  47.831  1.00  0.00     0.000 OA
HETATM   12  C18 UNL     1      29.439  10.663  47.865  1.00  0.00     0.246 C 
HETATM   13  O5  UNL     1      28.497   9.654  47.986  1.00  0.00    -0.342 OA
HETATM   14  C19 UNL     1      29.563   5.123  48.050  1.00  0.00     0.015 C 
HETATM   15  C20 UNL     1      28.283   5.120  48.409  1.00  0.00     0.040 C 
HETATM   16  H14 UNL     1      32.640   9.627  47.952  1.00  0.00     0.335 HD
ENDROOT
BRANCH   6  17
HETATM   17  C9  UNL     1      32.326   5.275  48.448  1.00  0.00     0.083 C 
BRANCH  17  18
HETATM   18  C10 UNL     1      33.219   4.750  47.355  1.00  0.00    -0.052 A 
HETATM   19  C11 UNL     1      34.171   3.852  47.834  1.00  0.00     0.007 A 
HETATM   20  C12 UNL     1      35.042   3.311  46.913  1.00  0.00     0.002 A 
HETATM   21  C13 UNL     1      35.024   3.605  45.566  1.00  0.00     0.018 A 
HETATM   22  C14 UNL     1      34.052   4.512  45.132  1.00  0.00     0.006 A 
HETATM   23  I1  UNL     1      33.841   5.108  43.121  1.00  0.00    -0.045 I 
HETATM   24  C15 UNL     1      33.171   5.066  46.036  1.00  0.00     0.025 A 
ENDBRANCH  17  18
ENDBRANCH   6  17
BRANCH   2  25
HETATM   25  O2  UNL     1      26.427   8.316  48.967  1.00  0.00    -0.351 OA
HETATM   26  C4  UNL     1      26.306   8.805  50.264  1.00  0.00     0.210 C 
ENDBRANCH   2  25
BRANCH   1  27
HETATM   27  O1  UNL     1      26.019   5.756  48.920  1.00  0.00    -0.353 OA
HETATM   28  C1  UNL     1      25.842   4.522  49.632  1.00  0.00     0.210 C 
ENDBRANCH   1  27
TORSDOF 4
ENDMDL
MODEL 9
REMARK VINA RESULT:      -7.5      7.510     11.453
REMARK  4 active torsions:
REMARK  status: ('A' for Active; 'I' for Inactive)
REMARK    1  A    between atoms: O1_2  and  C2_3 
REMARK    2  A    between atoms: C3_4  and  O2_5 
REMARK    3  A    between atoms: C8_10  and  C9_11 
REMARK    4  A    between atoms: C9_11  and  C10_12 
ROOT
HETATM    1  C2  UNL     1      31.357  10.563  46.300  1.00  0.00     0.104 C 
HETATM    2  C3  UNL     1      30.162   9.971  46.488  1.00  0.00     0.135 C 
HETATM    3  C5  UNL     1      29.728   8.977  47.467  1.00  0.00     0.106 C 
HETATM    4  C6  UNL     1      30.553   8.541  48.390  1.00  0.00     0.052 C 
HETATM    5  C7  UNL     1      32.036   8.344  48.259  1.00  0.00    -0.021 C 
HETATM    6  C8  UNL     1      32.522   7.167  48.590  1.00  0.00     0.035 C 
HETATM    7  C16 UNL     1      31.489   6.194  48.847  1.00  0.00     0.384 C 
HETATM    8  O3  UNL     1      31.304   5.076  49.209  1.00  0.00    -0.257 OA
HETATM    9  N1  UNL     1      30.075   6.012  48.799  1.00  0.00     0.195 N 
HETATM   10  C17 UNL     1      28.721   6.395  48.490  1.00  0.00     0.213 A 
HETATM   11  O4  UNL     1      28.848   5.306  49.045  1.00  0.00     0.000 OA
HETATM   12  C18 UNL     1      27.812   7.413  47.904  1.00  0.00     0.246 C 
HETATM   13  O5  UNL     1      28.456   8.527  47.387  1.00  0.00    -0.342 OA
HETATM   14  C19 UNL     1      33.038   9.258  47.754  1.00  0.00     0.015 C 
HETATM   15  C20 UNL     1      32.669  10.192  46.884  1.00  0.00     0.040 C 
HETATM   16  H14 UNL     1      29.855   5.065  49.184  1.00  0.00     0.335 HD
ENDROOT
BRANCH   6  17
HETATM   17  C9  UNL     1      33.876   6.720  48.574  1.00  0.00     0.083 C 
BRANCH  17  18
HETATM   18  C10 UNL     1      34.162   5.663  47.541  1.00  0.00    -0.052 A 
HETATM   19  C11 UNL     1      34.705   4.509  48.102  1.00  0.00     0.007 A 
HETATM   20  C12 UNL     1      35.006   3.475  47.240  1.00  0.00     0.002 A 
HETATM   21  C13 UNL     1      34.802   3.521  45.877  1.00  0.00     0.018 A 
HETATM   22  C14 UNL     1      34.256   4.700  45.361  1.00  0.00     0.006 A 
HETATM   23  I1  UNL     1      33.861   4.990  43.311  1.00  0.00    -0.045 I 
HETATM   24  C15 UNL     1      33.948   5.746  46.204  1.00  0.00     0.025 A 
ENDBRANCH  17  18
ENDBRANCH   6  17
BRANCH   2  25
HETATM   25  O2  UNL     1      29.160  10.364  45.608  1.00  0.00    -0.351 OA
HETATM   26  C4  UNL     1      28.183  11.325  45.852  1.00  0.00     0.210 C 
ENDBRANCH   2  25
BRANCH   1  27
HETATM   27  O1  UNL     1      31.401  11.660  45.460  1.00  0.00    -0.353 OA
HETATM   28  C1  UNL     1      32.461  11.805  44.503  1.00  0.00     0.210 C 
ENDBRANCH   1  27
TORSDOF 4
ENDMDL
